# generated using pymatgen
data_ZnH15C18SN5O4
_symmetry_space_group_name_H-M   'P 1'
_cell_length_a   9.68444870
_cell_length_b   13.26355164
_cell_length_c   16.14883152
_cell_angle_alpha   90.00002519
_cell_angle_beta   95.90216347
_cell_angle_gamma   89.99982906
_symmetry_Int_Tables_number   1
_chemical_formula_structural   ZnH15C18SN5O4
_chemical_formula_sum   'Zn4 H60 C72 S4 N20 O16'
_cell_volume   2063.32429579
_cell_formula_units_Z   4
loop_
 _symmetry_equiv_pos_site_id
 _symmetry_equiv_pos_as_xyz
  1  'x, y, z'
loop_
 _atom_site_type_symbol
 _atom_site_label
 _atom_site_symmetry_multiplicity
 _atom_site_fract_x
 _atom_site_fract_y
 _atom_site_fract_z
 _atom_site_occupancy
 _atom_site_pbe_bader_charge
 _atom_site_pbe_bader_spin_density
 _atom_site_pbe_cm5_charge
 _atom_site_pbe_ddec_charge
 _atom_site_pbe_ddec_spin_density
 _atom_site_pbe_ddec_sum_bond_order
 _atom_site_pbe_magmom
Zn  Zn0  1  0.88665317  0.34695891  0.06427040  1  1.260346  0  0.710522  0.714926  0  2.421936  0
Zn  Zn1  1  0.11334792  0.84695866  0.43572997  1  1.260329  0  0.710507  0.714903  0  2.421854  0
Zn  Zn2  1  0.11334639  0.65304090  0.93573000  1  1.26034  0  0.710544  0.71497  0  2.421806  0
Zn  Zn3  1  0.88665269  0.15304191  0.56426987  1  1.260346  0  0.710502  0.714901  0  2.421864  0
H  H4  1  0.40151580  0.29000350  0.60355269  1  0.50784  0  0.290902  0.304384  0  1.000041  0
H  H5  1  0.59848271  0.79000292  0.89644781  1  0.507835  0  0.290918  0.304376  0  1.00004  0
H  H6  1  0.59848480  0.70999481  0.39644777  1  0.507854  0  0.290897  0.304281  0  1.000163  0
H  H7  1  0.40151479  0.20999614  0.10355121  1  0.507833  0  0.290931  0.304413  0  1.000033  0
H  H8  1  0.38588229  0.41718061  0.61468488  1  0.414041  0  0.309231  0.301757  0  0.928795  0
H  H9  1  0.61411675  0.91718151  0.88531447  1  0.414036  0  0.30923  0.301743  0  0.928793  0
H  H10  1  0.61411935  0.58281769  0.38531565  1  0.414085  0  0.30926  0.301828  0  0.928764  0
H  H11  1  0.38588179  0.08281906  0.11468400  1  0.414101  0  0.309206  0.301734  0  0.928829  0
H  H12  1  0.92689670  0.10324229  0.80510038  1  0.10737  0  0.102836  0.111419  0  1.047157  0
H  H13  1  0.07310466  0.60324049  0.69489837  1  0.107354  0  0.102829  0.111379  0  1.047207  0
H  H14  1  0.07310288  0.89676053  0.19489816  1  0.107358  0  0.102821  0.111408  0  1.047205  0
H  H15  1  0.92689698  0.39676007  0.30510216  1  0.107366  0  0.102828  0.111424  0  1.047201  0
H  H16  1  0.16767834  0.16292697  0.78494022  1  0.109817  0  0.107973  0.106354  0  0.987565  0
H  H17  1  0.83232278  0.66292580  0.71505916  1  0.109397  0  0.107988  0.106391  0  0.987545  0
H  H18  1  0.83232123  0.83707585  0.21505956  1  0.109327  0  0.107957  0.106333  0  0.987548  0
H  H19  1  0.16767887  0.33707477  0.28494136  1  0.109414  0  0.10797  0.106346  0  0.987565  0
H  H20  1  0.49912978  0.48351951  0.90030924  1  0.098717  0  0.109115  0.123301  0  1.000152  0
H  H21  1  0.50086899  0.98351673  0.59968950  1  0.098747  0  0.109104  0.12329  0  1.000153  0
H  H22  1  0.50086979  0.51648181  0.09969116  1  0.098743  0  0.109113  0.1233  0  1.000186  0
H  H23  1  0.49913059  0.01648233  0.40030781  1  0.09875  0  0.109122  0.123306  0  1.000179  0
H  H24  1  0.25777052  0.41860706  0.00094640  1  0.175308  0  0.127888  0.131834  0  0.986619  0
H  H25  1  0.74222822  0.91860472  0.49905261  1  0.174736  0  0.127873  0.131836  0  0.986643  0
H  H26  1  0.74222905  0.58139351  0.99905461  1  0.175287  0  0.127883  0.131824  0  0.986621  0
H  H27  1  0.25777136  0.08139208  0.50094593  1  0.175298  0  0.127877  0.131833  0  0.986611  0
H  H28  1  0.54728534  0.16296956  0.86840394  1  0.098098  0  0.1013  0.105085  0  1.011194  0
H  H29  1  0.45271578  0.66296765  0.63159607  1  0.09807  0  0.101299  0.105041  0  1.011192  0
H  H30  1  0.45271423  0.83703100  0.13159770  1  0.098109  0  0.101308  0.105069  0  1.011132  0
H  H31  1  0.54728380  0.33703140  0.36840247  1  0.098145  0  0.101302  0.105103  0  1.011146  0
H  H32  1  0.27418606  0.29966703  0.87799865  1  0.081603  0  0.104037  0.113355  0  1.060252  0
H  H33  1  0.72581554  0.79966603  0.62200144  1  0.081626  0  0.104054  0.113385  0  1.060226  0
H  H34  1  0.72581558  0.70033353  0.12200250  1  0.081613  0  0.104044  0.113374  0  1.060233  0
H  H35  1  0.27418507  0.20033302  0.37799903  1  0.081612  0  0.104046  0.113376  0  1.060236  0
H  H36  1  0.46008642  0.17908822  0.71791331  1  0.090526  0  0.105571  0.121545  0  1.002415  0
H  H37  1  0.53991463  0.67908772  0.78208731  1  0.090502  0  0.105583  0.121605  0  1.00243  0
H  H38  1  0.53991522  0.82091083  0.28208846  1  0.090465  0  0.10556  0.121535  0  1.002417  0
H  H39  1  0.46008288  0.32091210  0.21791109  1  0.090445  0  0.105574  0.12158  0  1.002398  0
H  H40  1  0.41251716  0.49974222  0.75204191  1  0.055735  0  0.103082  0.113105  0  0.997325  0
H  H41  1  0.58748155  0.99974083  0.74795745  1  0.055776  0  0.103059  0.113075  0  0.997377  0
H  H42  1  0.58748345  0.50025684  0.24795794  1  0.055717  0  0.103079  0.113093  0  0.997315  0
H  H43  1  0.41251492  0.00025747  0.25204089  1  0.05574  0  0.103082  0.113078  0  0.997288  0
H  H44  1  0.80797052  0.17760414  0.92323372  1  0.118707  0  0.113778  0.0906  0  1.018365  0
H  H45  1  0.19202846  0.67760201  0.57676491  1  0.118965  0  0.113768  0.090598  0  1.018334  0
H  H46  1  0.19202802  0.82239718  0.07676537  1  0.118975  0  0.113767  0.090578  0  1.018377  0
H  H47  1  0.80797318  0.32239780  0.42323500  1  0.118968  0  0.113767  0.090602  0  1.01833  0
H  H48  1  0.89676377  0.69870640  0.38787449  1  0.087141  0  0.111885  0.077863  0  1.027855  0
H  H49  1  0.10323898  0.19870461  0.11212531  1  0.08711  0  0.111883  0.077881  0  1.027773  0
H  H50  1  0.10323788  0.30129491  0.61212666  1  0.087129  0  0.111876  0.077855  0  1.027872  0
H  H51  1  0.89676163  0.80129520  0.88787391  1  0.087124  0  0.11188  0.077854  0  1.027843  0
H  H52  1  0.84755340  0.56450783  0.28101803  1  0.110312  0  0.10888  0.115585  0  1.031402  0
H  H53  1  0.15244989  0.06450826  0.21898362  1  0.110276  0  0.10892  0.115642  0  1.0313  0
H  H54  1  0.15244617  0.43549198  0.71898299  1  0.110316  0  0.108848  0.115545  0  1.031426  0
H  H55  1  0.84755279  0.93549231  0.78101698  1  0.110305  0  0.108846  0.115532  0  1.031438  0
H  H56  1  0.29137817  0.74645971  0.31547688  1  0.114962  0  0.116984  0.08562  0  1.013435  0
H  H57  1  0.70862335  0.24645966  0.18452224  1  0.114946  0  0.116961  0.085609  0  1.013461  0
H  H58  1  0.70862140  0.25354010  0.68452228  1  0.114931  0  0.116975  0.085603  0  1.013466  0
H  H59  1  0.29137934  0.75353939  0.81547835  1  0.114925  0  0.116962  0.085618  0  1.013441  0
H  H60  1  0.25671775  0.61259889  0.20557278  1  0.140518  0  0.108518  0.117781  0  1.047849  0
H  H61  1  0.74328431  0.11259958  0.29442633  1  0.140551  0  0.108524  0.117784  0  1.047861  0
H  H62  1  0.74328079  0.38740167  0.79442631  1  0.140514  0  0.108512  0.117775  0  1.047847  0
H  H63  1  0.25671837  0.88740023  0.70557365  1  0.14054  0  0.108526  0.117799  0  1.04784  0
C  C64  1  0.01686040  0.50081234  0.16949959  1  1.296774  0  0.210031  0.392351  0  4.164994  0
C  C65  1  0.98314211  0.00081328  0.33050198  1  1.296727  0  0.209999  0.392302  0  4.165088  0
C  C66  1  0.98313917  0.49918747  0.83050143  1  1.297246  0  0.209976  0.392268  0  4.165033  0
C  C67  1  0.01686057  0.99918728  0.66949861  1  1.296803  0  0.21  0.392337  0  4.164966  0
C  C68  1  0.52984012  0.32152063  0.89359205  1  -0.188748  0  -0.042511  -0.149015  0  4.036207  0
C  C69  1  0.47016034  0.82151943  0.60640859  1  -0.188723  0  -0.042529  -0.149026  0  4.03615  0
C  C70  1  0.47015840  0.67847918  0.10640952  1  -0.188725  0  -0.042532  -0.149095  0  4.03618  0
C  C71  1  0.52984028  0.17847737  0.39359002  1  -0.188787  0  -0.042531  -0.148977  0  4.036075  0
C  C72  1  0.97885820  0.15970601  0.84608365  1  -0.051305  0  -0.088649  -0.13665  0  3.963989  0
C  C73  1  0.02114397  0.65970430  0.65391456  1  -0.051327  0  -0.088549  -0.136444  0  3.963818  0
C  C74  1  0.02114241  0.84029606  0.15391496  1  -0.051316  0  -0.088643  -0.136675  0  3.963989  0
C  C75  1  0.97885663  0.34029552  0.34608590  1  -0.051295  0  -0.088615  -0.13666  0  3.963942  0
C  C76  1  0.43073050  0.34059779  0.72386969  1  0.465528  0  0.102234  0.309205  0  4.088894  0
C  C77  1  0.56926782  0.84059721  0.77612958  1  0.465526  0  0.102303  0.309331  0  4.088762  0
C  C78  1  0.56927011  0.65940051  0.27613077  1  0.465432  0  0.102279  0.30923  0  4.088955  0
C  C79  1  0.43072864  0.15940184  0.22386876  1  0.465533  0  0.102243  0.309173  0  4.088902  0
C  C80  1  0.04942139  0.57736648  0.23587515  1  -0.031009  0  0.010621  0.043481  0  3.945545  0
C  C81  1  0.95058081  0.07736821  0.26412519  1  -0.031221  0  0.010669  0.043485  0  3.945541  0
C  C82  1  0.95057714  0.42263409  0.76412518  1  -0.031407  0  0.010623  0.043522  0  3.945481  0
C  C83  1  0.04942188  0.92263311  0.73587478  1  -0.030992  0  0.010654  0.043537  0  3.9455  0
C  C84  1  0.11164453  0.19394589  0.83438875  1  -0.022355  0  -0.066673  -0.018593  0  3.95559  0
C  C85  1  0.88835647  0.69394532  0.66561063  1  -0.021866  0  -0.066743  -0.018735  0  3.955516  0
C  C86  1  0.88835505  0.80605543  0.16561102  1  -0.021865  0  -0.06669  -0.018565  0  3.955499  0
C  C87  1  0.11164622  0.30605449  0.33438996  1  -0.021881  0  -0.06665  -0.018524  0  3.955477  0
C  C88  1  0.49140143  0.41659701  0.86079877  1  0.074738  0  -0.079612  -0.057552  0  3.9875  0
C  C89  1  0.50859657  0.91659499  0.63920051  1  0.074702  0  -0.079616  -0.057566  0  3.987517  0
C  C90  1  0.50859710  0.58340355  0.13920156  1  0.074713  0  -0.079647  -0.057589  0  3.987554  0
C  C91  1  0.49140197  0.08340332  0.36079797  1  0.074693  0  -0.079619  -0.057588  0  3.987559  0
C  C92  1  0.15436174  0.38752952  0.00517979  1  0.576194  0  0.065578  -0.000247  0  3.834538  0
C  C93  1  0.84563712  0.88752846  0.49481922  1  0.576773  0  0.065542  -0.000324  0  3.834559  0
C  C94  1  0.84563783  0.61247029  0.99482061  1  0.57622  0  0.065572  -0.000285  0  3.834478  0
C  C95  1  0.15436141  0.11246984  0.50517987  1  0.576221  0  0.065561  -0.00031  0  3.834475  0
C  C96  1  0.51831155  0.23644161  0.84182297  1  -0.115991  0  -0.0926  -0.089558  0  4.067233  0
C  C97  1  0.48168926  0.73643965  0.65817828  1  -0.116001  0  -0.09258  -0.089417  0  4.066975  0
C  C98  1  0.48168593  0.76355895  0.15817915  1  -0.116011  0  -0.092562  -0.089435  0  4.066944  0
C  C99  1  0.51831239  0.26355789  0.34182101  1  -0.115946  0  -0.092609  -0.089605  0  4.066969  0
C  C100  1  0.17183091  0.26971438  0.88588089  1  0.047379  0  -0.077307  -0.148033  0  3.910158  0
C  C101  1  0.82816977  0.76971316  0.61411851  1  0.047384  0  -0.077331  -0.14806  0  3.910224  0
C  C102  1  0.82816865  0.73028694  0.11411951  1  0.047371  0  -0.077293  -0.14806  0  3.910188  0
C  C103  1  0.17183188  0.23028590  0.38588140  1  0.047339  0  -0.077322  -0.148086  0  3.91019  0
C  C104  1  0.46898560  0.24533669  0.75823468  1  -0.095563  0  -0.108096  -0.213142  0  3.964948  0
C  C105  1  0.53101413  0.74533468  0.74176589  1  -0.095595  0  -0.108127  -0.213308  0  3.964932  0
C  C106  1  0.53101292  0.75466236  0.24176627  1  -0.095478  0  -0.108136  -0.213207  0  3.964941  0
C  C107  1  0.46898544  0.25466287  0.25823327  1  -0.095502  0  -0.108086  -0.21314  0  3.964812  0
C  C108  1  0.09761531  0.30887292  0.94845229  1  0.428512  0  0.110181  0.190849  0  4.031836  0
C  C109  1  0.90238417  0.80887226  0.55154766  1  0.428013  0  0.11015  0.190798  0  4.031963  0
C  C110  1  0.90238425  0.69112840  0.05154811  1  0.428056  0  0.110191  0.190877  0  4.031839  0
C  C111  1  0.09761541  0.19112755  0.44845211  1  0.428529  0  0.110165  0.190843  0  4.031912  0
C  C112  1  0.44272847  0.42558558  0.77706694  1  -0.091208  0  -0.103466  -0.208598  0  3.956364  0
C  C113  1  0.55727053  0.92558425  0.72293241  1  -0.091196  0  -0.103467  -0.208625  0  3.95637  0
C  C114  1  0.55727213  0.57441423  0.22293352  1  -0.091131  0  -0.103482  -0.208577  0  3.956341  0
C  C115  1  0.44272697  0.07441556  0.27706600  1  -0.091225  0  -0.103493  -0.208568  0  3.95623  0
C  C116  1  0.91137597  0.20169787  0.91027003  1  0.455821  0  0.051108  0.107992  0  3.943868  0
C  C117  1  0.08862603  0.70169597  0.58972881  1  0.455477  0  0.051062  0.107921  0  3.943842  0
C  C118  1  0.08862463  0.79830420  0.08973043  1  0.455493  0  0.051097  0.107996  0  3.943869  0
C  C119  1  0.91137458  0.29830384  0.41027104  1  0.455487  0  0.051081  0.107974  0  3.943851  0
C  C120  1  0.97523405  0.67677553  0.34747193  1  0.501605  0  0.045215  0.08868  0  3.944909  0
C  C121  1  0.02476774  0.17677544  0.15252904  1  0.501625  0  0.045195  0.088675  0  3.944795  0
C  C122  1  0.02476655  0.32322503  0.65252915  1  0.501627  0  0.045204  0.088686  0  3.944925  0
C  C123  1  0.97523286  0.82322437  0.84747143  1  0.501613  0  0.045203  0.088701  0  3.944847  0
C  C124  1  0.94814141  0.60171948  0.28846586  1  -0.018097  0  -0.078619  -0.147368  0  3.957066  0
C  C125  1  0.05186172  0.10171936  0.21153578  1  -0.017833  0  -0.078689  -0.147442  0  3.956999  0
C  C126  1  0.05185815  0.39828109  0.71153515  1  -0.018152  0  -0.078568  -0.147329  0  3.957017  0
C  C127  1  0.94814096  0.89828045  0.78846481  1  -0.018091  0  -0.07857  -0.147311  0  3.956998  0
C  C128  1  0.19518678  0.70356783  0.30645956  1  0.438946  0  0.051721  0.107175  0  3.917449  0
C  C129  1  0.80481387  0.20356833  0.19354011  1  0.438926  0  0.051674  0.107097  0  3.917563  0
C  C130  1  0.80481175  0.29643349  0.69354015  1  0.438934  0  0.051732  0.107202  0  3.917553  0
C  C131  1  0.19518674  0.79643223  0.80645974  1  0.438978  0  0.051709  0.107138  0  3.917556  0
C  C132  1  0.17603965  0.62920766  0.24580552  1  0.021321  0  -0.072216  -0.13937  0  3.909567  0
C  C133  1  0.82396027  0.12920816  0.25419284  1  0.021274  0  -0.07219  -0.139257  0  3.909505  0
C  C134  1  0.82395784  0.37079366  0.75419413  1  0.02132  0  -0.072183  -0.139351  0  3.909507  0
C  C135  1  0.17604034  0.87079165  0.74580639  1  0.021268  0  -0.072221  -0.13939  0  3.9096  0
S  S136  1  0.58254237  0.30570256  0.00106764  1  3.138981  0  0.507097  1.163634  0  6.16825  0
S  S137  1  0.41745682  0.80569941  0.49893259  1  3.138983  0  0.507096  1.16362  0  6.168417  0
S  S138  1  0.41745719  0.69429952  0.99893337  1  3.138974  0  0.507056  1.163605  0  6.168341  0
S  S139  1  0.58254276  0.19429889  0.50106657  1  3.138979  0  0.507111  1.163645  0  6.168188  0
N  N140  1  0.07639758  0.41587120  0.06161895  1  -0.839863  0  -0.232247  -0.095535  0  3.758569  0
N  N141  1  0.92360323  0.91587069  0.43838143  1  -0.839863  0  -0.232213  -0.095496  0  3.758451  0
N  N142  1  0.92360302  0.58412861  0.93838214  1  -0.839872  0  -0.232229  -0.095482  0  3.758454  0
N  N143  1  0.07639737  0.08412836  0.56161903  1  -0.839867  0  -0.232188  -0.095417  0  3.758389  0
N  N144  1  0.11850638  0.48561719  0.11937813  1  -0.677423  0  -0.250715  -0.328593  0  3.20496  0
N  N145  1  0.88149415  0.98561750  0.38062164  1  -0.677404  0  -0.250704  -0.328549  0  3.204933  0
N  N146  1  0.88149318  0.51438186  0.88062289  1  -0.67744  0  -0.250703  -0.328578  0  3.204932  0
N  N147  1  0.11850542  0.01438155  0.61937814  1  -0.67745  0  -0.250743  -0.328652  0  3.204983  0
N  N148  1  0.37864691  0.34845620  0.64144507  1  -1.247225  0  -0.589925  -0.612078  0  3.310674  0
N  N149  1  0.62135345  0.84845631  0.85855433  1  -1.247186  0  -0.589963  -0.612078  0  3.310629  0
N  N150  1  0.62135577  0.65154210  0.35855552  1  -1.247334  0  -0.589926  -0.612038  0  3.310865  0
N  N151  1  0.37864405  0.15154350  0.14144345  1  -1.247341  0  -0.589921  -0.612079  0  3.310733  0
N  N152  1  0.96880241  0.27411809  0.95992360  1  -1.242841  0  -0.321255  -0.285963  0  3.522533  0
N  N153  1  0.03119825  0.77411629  0.54007580  1  -1.242324  0  -0.321177  -0.285867  0  3.5225  0
N  N154  1  0.03119716  0.72588323  0.04007618  1  -1.242317  0  -0.321223  -0.285925  0  3.522515  0
N  N155  1  0.96880236  0.22588276  0.45992404  1  -1.242835  0  -0.321236  -0.285954  0  3.522559  0
N  N156  1  0.09650414  0.72734891  0.35611534  1  -1.267418  0  -0.331695  -0.219956  0  3.588684  0
N  N157  1  0.90349953  0.22734917  0.14388453  1  -1.267406  0  -0.33164  -0.219984  0  3.588847  0
N  N158  1  0.90349647  0.27265165  0.64388450  1  -1.26738  0  -0.331676  -0.219969  0  3.588768  0
N  N159  1  0.09650316  0.77265139  0.85611545  1  -1.267402  0  -0.331677  -0.219974  0  3.588734  0
O  O160  1  0.89829056  0.45768568  0.16439015  1  -1.150217  0  -0.308582  -0.4997  0  2.251279  0
O  O161  1  0.10171112  0.95768540  0.33561092  1  -1.150159  0  -0.308579  -0.499691  0  2.251287  0
O  O162  1  0.10170798  0.54231564  0.83560957  1  -1.150201  0  -0.308577  -0.499696  0  2.251192  0
O  O163  1  0.89829052  0.04231441  0.66438961  1  -1.150218  0  -0.308579  -0.499707  0  2.251249  0
O  O164  1  0.46247022  0.32874253  0.04647581  1  -1.335634  0  -0.337564  -0.596912  0  2.192222  0
O  O165  1  0.53752992  0.82873985  0.45352450  1  -1.335588  0  -0.337522  -0.596904  0  2.192251  0
O  O166  1  0.53752831  0.67126030  0.95352452  1  -1.335575  0  -0.337518  -0.596907  0  2.1923  0
O  O167  1  0.46247173  0.17125920  0.54647479  1  -1.335576  0  -0.337513  -0.59692  0  2.192308  0
O  O168  1  0.69366022  0.38377881  0.02195723  1  -1.309462  0  -0.35038  -0.580991  0  2.361281  0
O  O169  1  0.30633969  0.88377665  0.47804308  1  -1.309406  0  -0.350444  -0.58102  0  2.361374  0
O  O170  1  0.30633935  0.61622326  0.97804317  1  -1.309414  0  -0.350442  -0.581031  0  2.36132  0
O  O171  1  0.69366092  0.11622316  0.52195614  1  -1.309424  0  -0.350469  -0.581038  0  2.361283  0
O  O172  1  0.63504411  0.20281679  0.01218018  1  -1.332475  0  -0.354173  -0.610011  0  2.162798  0
O  O173  1  0.36495654  0.70281375  0.48782011  1  -1.33257  0  -0.354139  -0.609976  0  2.162919  0
O  O174  1  0.36495545  0.79718529  0.98782146  1  -1.332537  0  -0.354111  -0.609949  0  2.162826  0
O  O175  1  0.63504408  0.29718531  0.51217850  1  -1.332516  0  -0.354133  -0.609977  0  2.162804  0
