# generated using pymatgen
data_ScH6(C2O)6
_symmetry_space_group_name_H-M   'P 1'
_cell_length_a   8.95156652
_cell_length_b   10.74071476
_cell_length_c   32.85413876
_cell_angle_alpha   90.00023926
_cell_angle_beta   89.99990939
_cell_angle_gamma   112.59923528
_symmetry_Int_Tables_number   1
_chemical_formula_structural   ScH6(C2O)6
_chemical_formula_sum   'Sc8 H48 C96 O48'
_cell_volume   2916.25387306
_cell_formula_units_Z   8
loop_
 _symmetry_equiv_pos_site_id
 _symmetry_equiv_pos_as_xyz
  1  'x, y, z'
loop_
 _atom_site_type_symbol
 _atom_site_label
 _atom_site_symmetry_multiplicity
 _atom_site_fract_x
 _atom_site_fract_y
 _atom_site_fract_z
 _atom_site_occupancy
 _atom_site_pbe_bader_charge
 _atom_site_pbe_bader_spin_density
 _atom_site_pbe_cm5_charge
 _atom_site_pbe_ddec_charge
 _atom_site_pbe_ddec_spin_density
 _atom_site_pbe_ddec_sum_bond_order
 _atom_site_pbe_magmom
Sc  Sc0  1  0.72639445  0.74631200  0.38608230  1  2.141158  0  1.267413  1.839269  0  2.229275  0
Sc  Sc1  1  0.22331648  0.74272951  0.36316536  1  2.1432  0  1.260339  1.837133  0  2.208002  0
Sc  Sc2  1  0.27361267  0.75369029  0.88608334  1  2.141213  0  1.267562  1.839427  0  2.229339  0
Sc  Sc3  1  0.77669933  0.75726951  0.86315035  1  2.143353  0  1.260186  1.837045  0  2.20785  0
Sc  Sc4  1  0.27362415  0.25369959  0.61391333  1  2.141185  0  1.267486  1.839353  0  2.229388  0
Sc  Sc5  1  0.77667894  0.25729004  0.63684215  1  2.143363  0  1.260203  1.837019  0  2.207958  0
Sc  Sc6  1  0.72634912  0.24626771  0.11391930  1  2.141424  0  1.267477  1.839361  0  2.229466  0
Sc  Sc7  1  0.22331484  0.24270785  0.13684346  1  2.143255  0  1.260333  1.837098  0  2.207834  0
H  H8  1  0.93209744  0.14302005  0.38739553  1  0.117785  0  0.112428  0.117517  0  0.991902  0
H  H9  1  0.06531513  0.38701641  0.36705568  1  0.097372  0  0.112751  0.120499  0  1.011876  0
H  H10  1  0.52609233  0.34883642  0.36238704  1  0.110607  0  0.113118  0.118731  0  0.984735  0
H  H11  1  0.39017059  0.10201219  0.37883232  1  0.105769  0  0.11103  0.114614  0  1.004329  0
H  H12  1  0.04542936  0.11456703  0.25679329  1  0.109387  0  0.114104  0.120534  0  0.982773  0
H  H13  1  0.88657810  0.98940436  0.31703147  1  0.095382  0  0.108907  0.107131  0  1.034939  0
H  H14  1  0.46682646  0.04962756  0.27316947  1  0.100773  0  0.112892  0.119985  0  0.985547  0
H  H15  1  0.62586355  0.17596665  0.21310464  1  0.110986  0  0.111374  0.112843  0  1.014825  0
H  H16  1  0.76976816  0.57337026  0.49110121  1  0.113903  0  0.115213  0.122637  0  0.984429  0
H  H17  1  0.83175564  0.50411363  0.55986114  1  0.103197  0  0.109032  0.109145  0  1.021171  0
H  H18  1  0.24528074  0.88900841  0.46072637  1  0.107825  0  0.110265  0.116011  0  1.013206  0
H  H19  1  0.26808413  0.06923152  0.51198937  1  0.111903  0  0.113552  0.119696  0  0.988665  0
H  H20  1  0.06792098  0.35698115  0.88739467  1  0.117619  0  0.112414  0.117487  0  0.991978  0
H  H21  1  0.93469098  0.11298448  0.86705533  1  0.097231  0  0.112743  0.120536  0  1.011929  0
H  H22  1  0.47392233  0.15116847  0.86239181  1  0.110763  0  0.11314  0.118665  0  0.984626  0
H  H23  1  0.60985099  0.39799093  0.87883675  1  0.106  0  0.110964  0.114482  0  1.004458  0
H  H24  1  0.95457434  0.38545659  0.75679177  1  0.109291  0  0.114136  0.120548  0  0.982801  0
H  H25  1  0.11343025  0.51060712  0.81703072  1  0.095426  0  0.108923  0.107148  0  1.034924  0
H  H26  1  0.53317054  0.45037913  0.77316427  1  0.100739  0  0.112847  0.119878  0  0.98541  0
H  H27  1  0.37412914  0.32405435  0.71309843  1  0.11109  0  0.111375  0.112935  0  1.014819  0
H  H28  1  0.23023377  0.92662933  0.99110646  1  0.113944  0  0.115199  0.122651  0  0.984468  0
H  H29  1  0.16823243  0.99588441  0.05986312  1  0.106973  0  0.109039  0.109154  0  1.021291  0
H  H30  1  0.75473042  0.61097674  0.96073249  1  0.108162  0  0.110252  0.115951  0  1.013326  0
H  H31  1  0.73190993  0.43075068  0.01199589  1  0.111812  0  0.11349  0.119632  0  0.988686  0
H  H32  1  0.06792309  0.85698350  0.61260436  1  0.117597  0  0.112376  0.117439  0  0.992018  0
H  H33  1  0.93469578  0.61298811  0.63294452  1  0.097234  0  0.112751  0.120519  0  1.011932  0
H  H34  1  0.47392872  0.65117318  0.63760951  1  0.110868  0  0.113147  0.118681  0  0.984753  0
H  H35  1  0.60985264  0.89799239  0.62116393  1  0.105984  0  0.11096  0.114464  0  1.004491  0
H  H36  1  0.95457599  0.88545960  0.74321057  1  0.109356  0  0.114114  0.120579  0  0.982699  0
H  H37  1  0.11342443  0.01061119  0.68296995  1  0.095048  0  0.108906  0.107145  0  1.034926  0
H  H38  1  0.53317174  0.95038092  0.72683347  1  0.100684  0  0.112836  0.119919  0  0.985342  0
H  H39  1  0.37413462  0.82405895  0.78689921  1  0.111236  0  0.111362  0.112918  0  1.014787  0
H  H40  1  0.23021873  0.42662811  0.50889655  1  0.11375  0  0.115257  0.122786  0  0.984308  0
H  H41  1  0.16823329  0.49588677  0.44013815  1  0.103276  0  0.109028  0.109187  0  1.021092  0
H  H42  1  0.75473217  0.11097599  0.53926987  1  0.107952  0  0.110276  0.116015  0  1.013288  0
H  H43  1  0.73193123  0.93075087  0.48800688  1  0.111579  0  0.113493  0.119678  0  0.988606  0
H  H44  1  0.93206682  0.64301924  0.11260614  1  0.117477  0  0.112356  0.117392  0  0.992055  0
H  H45  1  0.06529795  0.88701592  0.13294579  1  0.096856  0  0.112731  0.120489  0  1.011916  0
H  H46  1  0.52605870  0.84882686  0.13760992  1  0.111067  0  0.113107  0.118613  0  0.984658  0
H  H47  1  0.39013544  0.60200643  0.12116467  1  0.105769  0  0.110986  0.114503  0  1.004515  0
H  H48  1  0.04543032  0.61454891  0.24320660  1  0.109269  0  0.114099  0.120476  0  0.982811  0
H  H49  1  0.88656915  0.48938930  0.18296857  1  0.095364  0  0.108911  0.107125  0  1.03493  0
H  H50  1  0.46683050  0.54962334  0.22683471  1  0.10074  0  0.112877  0.119968  0  0.985359  0
H  H51  1  0.62587715  0.67595719  0.28689934  1  0.111128  0  0.11138  0.112947  0  1.014819  0
H  H52  1  0.76977478  0.07336511  0.00889618  1  0.113671  0  0.115257  0.122713  0  0.984501  0
H  H53  1  0.83177434  0.00411104  0.94013739  1  0.103484  0  0.109062  0.109238  0  1.021057  0
H  H54  1  0.24526436  0.38902670  0.03927167  1  0.107983  0  0.110258  0.115984  0  1.013234  0
H  H55  1  0.26808551  0.56925176  0.98800797  1  0.111686  0  0.113527  0.119688  0  0.988651  0
C  C56  1  0.57055154  0.92522541  0.33231146  1  1.562718  0  0.250744  0.657525  0  4.129503  0
C  C57  1  0.47648654  0.79691674  0.44009446  1  1.586948  0  0.25359  0.661883  0  4.122821  0
C  C58  1  0.38406550  0.52830521  0.35485359  1  1.58819  0  0.255818  0.66465  0  4.123082  0
C  C59  1  0.06159943  0.18909206  0.38135116  1  -0.186489  0  -0.074876  -0.084576  0  3.958366  0
C  C60  1  0.13523244  0.32391142  0.37008872  1  0.076853  0  -0.075128  -0.089511  0  3.952627  0
C  C61  1  0.30296926  0.38117443  0.36353522  1  -0.040877  0  -0.007194  -0.038452  0  3.951725  0
C  C62  1  0.39585403  0.30207787  0.36726618  1  0.049141  0  -0.074918  -0.084045  0  3.955098  0
C  C63  1  0.32116639  0.16609141  0.37687676  1  -0.101432  0  -0.075331  -0.084106  0  3.956392  0
C  C64  1  0.15401989  0.10953552  0.38441888  1  0.010352  0  -0.010117  -0.043002  0  3.957585  0
C  C65  1  0.07315849  0.96297053  0.39375164  1  1.583079  0  0.250876  0.659489  0  4.130485  0
C  C66  1  0.84422562  0.15078565  0.23121615  1  -0.040956  0  -0.007658  -0.038889  0  3.95028  0
C  C67  1  0.91920983  0.10063686  0.26086320  1  -0.022986  0  -0.074527  -0.082062  0  3.949001  0
C  C68  1  0.83109422  0.03141145  0.29427631  1  -0.001369  0  -0.077127  -0.086975  0  3.963175  0
C  C69  1  0.66719074  0.01091928  0.29833549  1  -0.08691  0  -0.010397  -0.042195  0  3.95614  0
C  C70  1  0.59374336  0.06529886  0.26945425  1  -0.031212  0  -0.075888  -0.086886  0  3.953327  0
C  C71  1  0.68217131  0.13544753  0.23613945  1  -0.004475  0  -0.075031  -0.080385  0  3.942221  0
C  C72  1  0.93360449  0.21282966  0.19333754  1  1.58431  0  0.255572  0.663043  0  4.115877  0
C  C73  1  0.48703460  0.89954317  0.47169085  1  -0.047746  0  -0.008467  -0.040127  0  3.952941  0
C  C74  1  0.96502201  0.53816362  0.46167472  1  -0.024353  0  -0.008954  -0.041443  0  3.952606  0
C  C75  1  0.86993049  0.54079497  0.49538161  1  -0.048944  0  -0.074181  -0.083548  0  3.943613  0
C  C76  1  0.93129209  0.58453094  0.42116814  1  1.566227  0  0.253817  0.659156  0  4.123829  0
C  C77  1  0.90482467  0.50286667  0.53352502  1  -0.020759  0  -0.075502  -0.081067  0  3.955129  0
C  C78  1  0.35587586  0.93819052  0.47814428  1  -0.038479  0  -0.076675  -0.084101  0  3.949166  0
C  C79  1  0.36877371  0.03834527  0.50632215  1  -0.008322  0  -0.073393  -0.084468  0  3.949624  0
C  C80  1  0.42943721  0.57477511  0.83231005  1  1.563215  0  0.250755  0.657539  0  4.12965  0
C  C81  1  0.52353514  0.70308631  0.94009228  1  1.587129  0  0.253366  0.661707  0  4.123404  0
C  C82  1  0.61594096  0.97169769  0.85485325  1  1.588293  0  0.255815  0.664731  0  4.122962  0
C  C83  1  0.93841385  0.31091005  0.88134955  1  -0.187156  0  -0.074896  -0.084635  0  3.95854  0
C  C84  1  0.86477972  0.17609054  0.87008849  1  0.078078  0  -0.075079  -0.089501  0  3.952961  0
C  C85  1  0.69704671  0.11882847  0.86353619  1  -0.041199  0  -0.007368  -0.038742  0  3.951937  0
C  C86  1  0.60416031  0.19791903  0.86726669  1  0.048839  0  -0.074813  -0.083743  0  3.955012  0
C  C87  1  0.67884769  0.33390260  0.87687804  1  -0.101283  0  -0.075386  -0.0842  0  3.95647  0
C  C88  1  0.84599589  0.39046966  0.88441895  1  0.009948  0  -0.009919  -0.042596  0  3.957119  0
C  C89  1  0.92685692  0.53703290  0.89375119  1  1.583796  0  0.250846  0.659396  0  4.130627  0
C  C90  1  0.15578077  0.34923866  0.73121310  1  -0.041921  0  -0.007699  -0.038978  0  3.950428  0
C  C91  1  0.08079136  0.39938379  0.76086086  1  -0.021943  0  -0.074492  -0.081984  0  3.949062  0
C  C92  1  0.16890823  0.46860258  0.79427312  1  -0.001573  0  -0.077173  -0.08702  0  3.96333  0
C  C93  1  0.33281685  0.48909382  0.79833317  1  -0.086814  0  -0.010418  -0.042249  0  3.956418  0
C  C94  1  0.40624856  0.43471380  0.76944908  1  -0.031679  0  -0.075748  -0.086684  0  3.953125  0
C  C95  1  0.31781791  0.36456369  0.73613392  1  -0.003946  0  -0.075205  -0.08061  0  3.94263  0
C  C96  1  0.06639848  0.28718912  0.69333414  1  1.584421  0  0.25568  0.663106  0  4.115481  0
C  C97  1  0.51297597  0.60044816  0.97169310  1  -0.047684  0  -0.008442  -0.040135  0  3.952938  0
C  C98  1  0.03497808  0.96183156  0.96167340  1  -0.024139  0  -0.008935  -0.041463  0  3.952442  0
C  C99  1  0.13007104  0.95920870  0.99538602  1  -0.048939  0  -0.074253  -0.083676  0  3.943317  0
C  C100  1  0.06872163  0.91546176  0.92117009  1  1.566318  0  0.253866  0.659451  0  4.123164  0
C  C101  1  0.09516610  0.99713204  0.03352977  1  -0.024235  0  -0.075515  -0.081069  0  3.955281  0
C  C102  1  0.64413648  0.56179989  0.97815007  1  -0.039016  0  -0.076666  -0.084124  0  3.94939  0
C  C103  1  0.63122875  0.46164796  0.00632815  1  -0.008293  0  -0.073384  -0.084364  0  3.949309  0
C  C104  1  0.42943804  0.07477398  0.66768814  1  1.562399  0  0.250665  0.657413  0  4.129828  0
C  C105  1  0.52351728  0.20307466  0.55990300  1  1.586941  0  0.253588  0.66197  0  4.123322  0
C  C106  1  0.61594613  0.47170334  0.64514539  1  1.588448  0  0.255855  0.664701  0  4.123297  0
C  C107  1  0.93841616  0.81091047  0.61864965  1  -0.187277  0  -0.07487  -0.084589  0  3.958593  0
C  C108  1  0.86477999  0.67608907  0.62991117  1  0.078104  0  -0.07508  -0.089459  0  3.952884  0
C  C109  1  0.69704750  0.61883314  0.63646468  1  -0.041142  0  -0.007382  -0.038727  0  3.951882  0
C  C110  1  0.60416064  0.69792264  0.63273372  1  0.048719  0  -0.074845  -0.083805  0  3.955142  0
C  C111  1  0.67884802  0.83390608  0.62312222  1  -0.101377  0  -0.075336  -0.084052  0  3.956322  0
C  C112  1  0.84600339  0.89047409  0.61557797  1  0.009692  0  -0.009944  -0.04275  0  3.95698  0
C  C113  1  0.92685747  0.03704508  0.60624765  1  1.583154  0  0.250853  0.659514  0  4.130343  0
C  C114  1  0.15578848  0.84924304  0.76878588  1  -0.0415  0  -0.007636  -0.038856  0  3.950554  0
C  C115  1  0.08079348  0.89938776  0.73913883  1  -0.022287  0  -0.074488  -0.082052  0  3.949186  0
C  C116  1  0.16890587  0.96860610  0.70572632  1  -0.00144  0  -0.077196  -0.08707  0  3.963503  0
C  C117  1  0.33281087  0.98909426  0.70166593  1  -0.086741  0  -0.010352  -0.042148  0  3.956255  0
C  C118  1  0.40625541  0.93472071  0.73054869  1  -0.03174  0  -0.075764  -0.086765  0  3.953029  0
C  C119  1  0.31782608  0.86456901  0.76386349  1  -0.003809  0  -0.07513  -0.080533  0  3.942498  0
C  C120  1  0.06641219  0.78718998  0.80666236  1  1.584042  0  0.255667  0.663164  0  4.115615  0
C  C121  1  0.51297806  0.10043821  0.52830509  1  -0.048213  0  -0.008435  -0.040285  0  3.95314  0
C  C122  1  0.03496579  0.46183677  0.53832457  1  -0.024272  0  -0.008989  -0.04121  0  3.952251  0
C  C123  1  0.13005849  0.45921046  0.50461677  1  -0.048622  0  -0.074287  -0.083916  0  3.943394  0
C  C124  1  0.06870777  0.41546648  0.57883023  1  1.56626  0  0.253801  0.659271  0  4.123675  0
C  C125  1  0.09516293  0.49713573  0.46647427  1  -0.020665  0  -0.075475  -0.08097  0  3.955032  0
C  C126  1  0.64414067  0.06179691  0.52185166  1  -0.038359  0  -0.076754  -0.084152  0  3.949446  0
C  C127  1  0.63124374  0.96164418  0.49367440  1  -0.0083  0  -0.073291  -0.084424  0  3.949307  0
C  C128  1  0.57054830  0.42522024  0.16769015  1  1.563054  0  0.250616  0.657376  0  4.129574  0
C  C129  1  0.47646214  0.29692016  0.05990671  1  1.587622  0  0.253462  0.661803  0  4.123701  0
C  C130  1  0.38404133  0.02829060  0.14514756  1  1.589143  0  0.255732  0.664592  0  4.123718  0
C  C131  1  0.06157211  0.68908630  0.11865035  1  -0.186968  0  -0.074906  -0.084575  0  3.958565  0
C  C132  1  0.13520467  0.82390481  0.12991080  1  0.078368  0  -0.07502  -0.089379  0  3.952666  0
C  C133  1  0.30293997  0.88117191  0.13646584  1  -0.041408  0  -0.007451  -0.038947  0  3.951964  0
C  C134  1  0.39582020  0.80207025  0.13273321  1  0.048981  0  -0.074786  -0.083663  0  3.95488  0
C  C135  1  0.32113690  0.66609073  0.12312277  1  -0.101012  0  -0.075456  -0.084315  0  3.956652  0
C  C136  1  0.15398112  0.60952666  0.11558156  1  0.009349  0  -0.009825  -0.04247  0  3.956862  0
C  C137  1  0.07312821  0.46294936  0.10625114  1  1.583804  0  0.250878  0.659565  0  4.130254  0
C  C138  1  0.84423158  0.65077392  0.26878558  1  -0.041787  0  -0.007605  -0.038786  0  3.950132  0
C  C139  1  0.91921217  0.60062171  0.23913660  1  -0.022112  0  -0.074572  -0.082089  0  3.949073  0
C  C140  1  0.83109030  0.53139685  0.20572434  1  -0.001471  0  -0.07712  -0.086939  0  3.963302  0
C  C141  1  0.66718504  0.51090563  0.20166643  1  -0.086722  0  -0.010369  -0.042145  0  3.956311  0
C  C142  1  0.59374504  0.56528460  0.23054868  1  -0.030876  0  -0.07584  -0.086924  0  3.953132  0
C  C143  1  0.68218181  0.63544078  0.26386263  1  -0.00462  0  -0.075201  -0.080582  0  3.942387  0
C  C144  1  0.93361671  0.71281743  0.30666485  1  1.583505  0  0.255749  0.663172  0  4.115317  0
C  C145  1  0.48700848  0.39955221  0.02831045  1  -0.047868  0  -0.008418  -0.040186  0  3.95306  0
C  C146  1  0.96502324  0.03815681  0.03832467  1  -0.024759  0  -0.008998  -0.041335  0  3.952546  0
C  C147  1  0.86993375  0.04078975  0.00461905  1  -0.048582  0  -0.074234  -0.083695  0  3.943584  0
C  C148  1  0.93128015  0.08452762  0.07883194  1  1.566406  0  0.253839  0.659273  0  4.123464  0
C  C149  1  0.90483844  0.00286339  0.96647500  1  -0.020922  0  -0.075511  -0.081048  0  3.955022  0
C  C150  1  0.35586053  0.43820356  0.02185409  1  -0.03863  0  -0.076667  -0.084139  0  3.949427  0
C  C151  1  0.36876898  0.53835952  0.99367388  1  -0.008322  0  -0.073367  -0.084436  0  3.949441  0
O  O152  1  0.64455180  0.88391780  0.35879757  1  -1.213873  0  -0.374887  -0.666638  0  2.360324  0
O  O153  1  0.59273154  0.75623707  0.43742595  1  -1.193746  0  -0.373105  -0.63313  0  2.235697  0
O  O154  1  0.53591439  0.58315827  0.36083001  1  -1.212031  0  -0.367644  -0.653443  0  2.326012  0
O  O155  1  0.35386032  0.75524991  0.41675524  1  -1.226813  0  -0.370314  -0.66345  0  2.369517  0
O  O156  1  0.08007217  0.22449710  0.18955342  1  -1.187858  0  -0.359617  -0.618844  0  2.219621  0
O  O157  1  0.80889483  0.61642345  0.41793055  1  -1.194967  0  -0.365265  -0.63398  0  2.27894  0
O  O158  1  0.41842960  0.89603524  0.33315398  1  -1.181955  0  -0.360303  -0.634782  0  2.255213  0
O  O159  1  0.02681915  0.59106620  0.39164086  1  -1.207108  0  -0.372945  -0.6581  0  2.311265  0
O  O160  1  0.15381384  0.88920843  0.38835347  1  -1.225381  0  -0.375823  -0.669113  0  2.377267  0
O  O161  1  0.85864883  0.24985370  0.16598121  1  -1.224425  0  -0.376779  -0.674006  0  2.38994  0
O  O162  1  0.29878564  0.59221496  0.34233651  1  -1.201812  0  -0.374142  -0.644792  0  2.257663  0
O  O163  1  0.92726311  0.91766967  0.40622748  1  -1.202203  0  -0.366667  -0.635434  0  2.248108  0
O  O164  1  0.35545827  0.61608819  0.85879869  1  -1.214104  0  -0.374829  -0.666558  0  2.360483  0
O  O165  1  0.40728692  0.74375889  0.93741900  1  -1.193492  0  -0.37306  -0.633084  0  2.236019  0
O  O166  1  0.46409169  0.91683162  0.86083058  1  -1.211885  0  -0.367674  -0.65347  0  2.325939  0
O  O167  1  0.64616427  0.74473474  0.91675458  1  -1.227004  0  -0.370089  -0.663281  0  2.369571  0
O  O168  1  0.91992152  0.27551354  0.68955056  1  -1.188015  0  -0.359645  -0.618831  0  2.219512  0
O  O169  1  0.19112520  0.88357327  0.91793118  1  -1.195254  0  -0.365274  -0.634087  0  2.278633  0
O  O170  1  0.58156141  0.60394819  0.83314950  1  -1.182197  0  -0.360368  -0.634838  0  2.255097  0
O  O171  1  0.97317852  0.90891298  0.89164576  1  -1.206814  0  -0.372974  -0.658249  0  2.31091  0
O  O172  1  0.84619291  0.61078081  0.88834980  1  -1.226204  0  -0.375747  -0.66894  0  2.377238  0
O  O173  1  0.14135092  0.25015767  0.66597833  1  -1.224421  0  -0.376762  -0.674005  0  2.389985  0
O  O174  1  0.70122489  0.90779182  0.84233605  1  -1.202194  0  -0.374099  -0.644831  0  2.257769  0
O  O175  1  0.07275532  0.58234300  0.90622593  1  -1.201804  0  -0.366738  -0.635611  0  2.248113  0
O  O176  1  0.35544608  0.11608264  0.64120019  1  -1.213782  0  -0.374849  -0.666556  0  2.360554  0
O  O177  1  0.40726676  0.24374223  0.56257243  1  -1.193556  0  -0.373015  -0.633078  0  2.236185  0
O  O178  1  0.46410120  0.41684426  0.63916562  1  -1.21204  0  -0.367655  -0.65344  0  2.326348  0
O  O179  1  0.64614246  0.24472941  0.58324344  1  -1.226592  0  -0.370261  -0.663381  0  2.369364  0
O  O180  1  0.91993544  0.77551244  0.81044069  1  -1.187648  0  -0.359719  -0.618934  0  2.219401  0
O  O181  1  0.19110207  0.38356994  0.58206753  1  -1.194967  0  -0.365244  -0.63403  0  2.278924  0
O  O182  1  0.58155967  0.10395610  0.66684561  1  -1.181787  0  -0.360291  -0.634782  0  2.255188  0
O  O183  1  0.97316650  0.40892211  0.60835630  1  -1.207055  0  -0.372923  -0.658181  0  2.311209  0
O  O184  1  0.84619346  0.11079306  0.61164734  1  -1.225578  0  -0.375751  -0.669114  0  2.377236  0
O  O185  1  0.14134931  0.75014976  0.83401869  1  -1.224397  0  -0.376769  -0.674078  0  2.390106  0
O  O186  1  0.70122309  0.40779458  0.65766613  1  -1.202183  0  -0.374146  -0.644781  0  2.257808  0
O  O187  1  0.07275464  0.08234495  0.59376755  1  -1.201291  0  -0.366716  -0.635564  0  2.247863  0
O  O188  1  0.64453297  0.38390014  0.14120486  1  -1.214372  0  -0.374765  -0.666561  0  2.360439  0
O  O189  1  0.59270359  0.25624252  0.06257755  1  -1.193993  0  -0.373067  -0.633182  0  2.236245  0
O  O190  1  0.53588778  0.08314559  0.13917236  1  -1.212801  0  -0.367672  -0.653407  0  2.326609  0
O  O191  1  0.35382749  0.25525963  0.08324471  1  -1.226966  0  -0.370179  -0.663219  0  2.369536  0
O  O192  1  0.08008927  0.72448091  0.31045208  1  -1.187245  0  -0.359777  -0.618904  0  2.219142  0
O  O193  1  0.80887586  0.11641208  0.08206811  1  -1.195156  0  -0.365277  -0.634042  0  2.278948  0
O  O194  1  0.41842378  0.39603911  0.16684826  1  -1.181931  0  -0.360331  -0.634775  0  2.255086  0
O  O195  1  0.02680325  0.09106927  0.10835992  1  -1.207009  0  -0.372937  -0.658112  0  2.31107  0
O  O196  1  0.15379558  0.38920147  0.11165314  1  -1.226112  0  -0.375838  -0.669131  0  2.377064  0
O  O197  1  0.85865919  0.74985489  0.33401669  1  -1.224176  0  -0.376726  -0.674023  0  2.390078  0
O  O198  1  0.29876641  0.09220154  0.15766841  1  -1.202283  0  -0.374065  -0.644686  0  2.257837  0
O  O199  1  0.92723052  0.41764329  0.09377731  1  -1.201584  0  -0.366618  -0.635589  0  2.248215  0
