# generated using pymatgen
data_AlH2C6O5F
_symmetry_space_group_name_H-M   'P 1'
_cell_length_a   6.65148318
_cell_length_b   14.12666392
_cell_length_c   17.34665901
_cell_angle_alpha   86.70640640
_cell_angle_beta   89.99856337
_cell_angle_gamma   89.99529958
_symmetry_Int_Tables_number   1
_chemical_formula_structural   AlH2C6O5F
_chemical_formula_sum   'Al4 H8 C24 O20 F4'
_cell_volume   1627.25648143
_cell_formula_units_Z   4
loop_
 _symmetry_equiv_pos_site_id
 _symmetry_equiv_pos_as_xyz
  1  'x, y, z'
loop_
 _atom_site_type_symbol
 _atom_site_label
 _atom_site_symmetry_multiplicity
 _atom_site_fract_x
 _atom_site_fract_y
 _atom_site_fract_z
 _atom_site_occupancy
 _atom_site_pbe_bader_charge
 _atom_site_pbe_bader_spin_density
 _atom_site_pbe_cm5_charge
 _atom_site_pbe_ddec_charge
 _atom_site_pbe_ddec_spin_density
 _atom_site_pbe_ddec_sum_bond_order
 _atom_site_pbe_magmom
Al  Al0  1  0.11278745  0.50342986  0.49650856  1  2.502881  0  0.405405  1.641858  0  2.574927  0
Al  Al1  1  0.61344313  0.49804639  0.49932739  1  2.503941  0  0.405301  1.641877  0  2.57868  0
Al  Al2  1  0.62029136  0.00159010  0.00081650  1  2.502623  0  0.405727  1.643697  0  2.576996  0
Al  Al3  1  0.11961929  0.99721842  0.00339780  1  2.50293  0  0.405708  1.641766  0  2.577199  0
H  H4  1  0.58093925  0.18348348  0.80025057  1  0.145914  0  0.123403  0.146644  0  0.968814  0
H  H5  1  0.08184944  0.79301333  0.18424406  1  0.147439  0  0.127104  0.151533  0  0.962386  0
H  H6  1  0.57862206  0.31732445  0.70218247  1  0.145284  0  0.123591  0.14599  0  0.968463  0
H  H7  1  0.08063239  0.71112141  0.31648687  1  0.138723  0  0.1273  0.152132  0  0.960852  0
H  H8  1  0.35285224  0.38036298  0.52844038  1  0.631445  0  0.358698  0.441903  0  0.837988  0
H  H9  1  0.85754928  0.61578562  0.52885385  1  0.633356  0  0.357306  0.438693  0  0.84315  0
H  H10  1  0.36163068  0.12103193  0.97474796  1  0.641254  0  0.359867  0.443004  0  0.835856  0
H  H11  1  0.86561248  0.88388009  0.97202772  1  0.630348  0  0.358118  0.439248  0  0.841592  0
C  C12  1  0.35765386  0.61108537  0.60059225  1  1.681596  0  0.277599  0.707892  0  4.172097  0
C  C13  1  0.87073775  0.39365333  0.39624043  1  1.704546  0  0.281173  0.70499  0  4.171163  0
C  C14  1  0.37319372  0.60856707  0.38759941  1  1.617031  0  0.26577  0.590869  0  4.163996  0
C  C15  1  0.86033991  0.38057961  0.60341693  1  1.619831  0  0.259948  0.586847  0  4.174871  0
C  C16  1  0.72355582  0.21687047  0.78350266  1  0.089066  0  -0.0846  -0.146573  0  4.012169  0
C  C17  1  0.22286774  0.78173288  0.21555775  1  0.076174  0  -0.081806  -0.144833  0  4.002752  0
C  C18  1  0.87866548  0.19197835  0.83075349  1  0.416734  0  0.100104  0.127801  0  3.983398  0
C  C19  1  0.38083353  0.83193173  0.18598567  1  0.440965  0  0.101469  0.125523  0  3.988883  0
C  C20  1  0.72177359  0.28358686  0.71757960  1  0.046015  0  -0.084429  -0.14444  0  4.009177  0
C  C21  1  0.22150055  0.71999700  0.28463539  1  0.032149  0  -0.08204  -0.145156  0  4.00095  0
C  C22  1  0.87432191  0.30793967  0.66895275  1  0.432064  0  0.100441  0.128728  0  3.979523  0
C  C23  1  0.37629410  0.66706203  0.31355844  1  0.466009  0  0.102337  0.126388  0  3.989937  0
C  C24  1  0.87190167  0.16802327  0.16732177  1  0.174075  0  0.003115  -0.140007  0  3.837118  0
C  C25  1  0.36834636  0.82892891  0.83496011  1  0.055757  0  -0.00173  -0.145137  0  3.840172  0
C  C26  1  0.86853732  0.22084831  0.22071359  1  -0.317393  0  0.001357  0.039094  0  4.224407  0
C  C27  1  0.36800615  0.77828253  0.78008427  1  -0.170098  0  -0.002861  0.035251  0  4.227113  0
C  C28  1  0.86683257  0.27922377  0.27955864  1  -0.234692  0  0.000596  0.03703  0  4.223924  0
C  C29  1  0.36618373  0.72234682  0.71955843  1  -0.093286  0  -0.002789  0.036088  0  4.228915  0
C  C30  1  0.86699826  0.33200640  0.33299899  1  0.180028  0  0.004444  -0.137633  0  3.835961  0
C  C31  1  0.36299001  0.67173424  0.66469528  1  0.046979  0  -0.002318  -0.146276  0  3.842903  0
C  C32  1  0.37912135  0.89086414  0.11214352  1  1.617  0  0.266123  0.591114  0  4.161959  0
C  C33  1  0.86663517  0.11954743  0.89652586  1  1.621352  0  0.261035  0.589568  0  4.1732  0
C  C34  1  0.36446803  0.88952426  0.89909938  1  1.667224  0  0.277618  0.707639  0  4.168249  0
C  C35  1  0.87700080  0.10649097  0.10402102  1  1.713099  0  0.282226  0.706619  0  4.169357  0
O  O36  1  0.54075853  0.57380872  0.40957754  1  -1.243231  0  -0.224995  -0.558504  0  2.362393  0
O  O37  1  0.02437190  0.40110360  0.56876967  1  -1.246804  0  -0.234531  -0.586234  0  2.370088  0
O  O38  1  0.18507582  0.58091056  0.58178528  1  -1.225134  0  -0.225926  -0.578762  0  2.275184  0
O  O39  1  0.70638396  0.40401037  0.43232325  1  -1.229316  0  -0.221957  -0.571443  0  2.287006  0
O  O40  1  0.20609777  0.59957359  0.42328424  1  -1.253073  0  -0.233286  -0.580388  0  2.338516  0
O  O41  1  0.68698597  0.41515180  0.58799160  1  -1.252522  0  -0.235918  -0.584197  0  2.339291  0
O  O42  1  0.03916328  0.43122503  0.41085487  1  -1.226949  0  -0.218228  -0.560737  0  2.27756  0
O  O43  1  0.52559221  0.59392433  0.56899762  1  -1.229791  0  -0.226417  -0.58372  0  2.281712  0
O  O44  1  0.36093171  0.44288010  0.50244909  1  -1.430443  0  -0.445809  -0.992802  0  2.187197  0
O  O45  1  0.86120679  0.55925008  0.49963746  1  -1.432408  0  -0.445582  -0.988203  0  2.177197  0
O  O46  1  0.19221315  0.91990576  0.91808350  1  -1.226237  0  -0.225893  -0.578383  0  2.274179  0
O  O47  1  0.71241751  0.09523767  0.06829393  1  -1.231517  0  -0.222496  -0.572952  0  2.286883  0
O  O48  1  0.54744568  0.92476292  0.09007092  1  -1.236559  0  -0.22655  -0.560643  0  2.360484  0
O  O49  1  0.03121807  0.09931318  0.93086317  1  -1.242345  0  -0.235308  -0.586673  0  2.366384  0
O  O50  1  0.53276453  0.90637920  0.93057098  1  -1.234972  0  -0.225914  -0.58281  0  2.277642  0
O  O51  1  0.04604675  0.06988210  0.08892908  1  -1.226374  0  -0.219638  -0.562423  0  2.277223  0
O  O52  1  0.69364825  0.08491090  0.91245442  1  -1.255923  0  -0.236363  -0.585685  0  2.341713  0
O  O53  1  0.21193675  0.90097990  0.07670060  1  -1.256338  0  -0.233066  -0.579898  0  2.341378  0
O  O54  1  0.36813958  0.05704618  0.99797951  1  -1.438688  0  -0.445823  -0.993752  0  2.191933  0
O  O55  1  0.86844048  0.94106222  0.00043287  1  -1.430655  0  -0.445703  -0.988133  0  2.178619  0
F  F56  1  0.06163938  0.23320199  0.82299316  1  -0.618129  0  -0.094739  -0.112681  0  1.404131  0
F  F57  1  0.55922251  0.83380124  0.22316102  1  -0.613258  0  -0.090827  -0.108979  0  1.410776  0
F  F58  1  0.05690385  0.26604617  0.67523715  1  -0.615264  0  -0.09459  -0.112805  0  1.40346  0
F  F59  1  0.55307914  0.66203059  0.27562807  1  -0.61243  0  -0.090753  -0.108929  0  1.411426  0
