# generated using pymatgen
data_HgH8C7(N2Cl)2
_symmetry_space_group_name_H-M   'P 1'
_cell_length_a   6.06557059
_cell_length_b   9.45164731
_cell_length_c   9.49225697
_cell_angle_alpha   89.99977585
_cell_angle_beta   90.00105007
_cell_angle_gamma   94.89243384
_symmetry_Int_Tables_number   1
_chemical_formula_structural   HgH8C7(N2Cl)2
_chemical_formula_sum   'Hg2 H16 C14 N8 Cl4'
_cell_volume   542.20490613
_cell_formula_units_Z   2
loop_
 _symmetry_equiv_pos_site_id
 _symmetry_equiv_pos_as_xyz
  1  'x, y, z'
loop_
 _atom_site_type_symbol
 _atom_site_label
 _atom_site_symmetry_multiplicity
 _atom_site_fract_x
 _atom_site_fract_y
 _atom_site_fract_z
 _atom_site_occupancy
 _atom_site_hle17_bader_spin_density
 _atom_site_hle17_ddec_charge
 _atom_site_hle17_ddec_spin_density
 _atom_site_hle17_ddec_sum_bond_order
 _atom_site_hle17_magmom
 _atom_site_hse06_10hf_bader_spin_density
 _atom_site_hse06_10hf_ddec_charge
 _atom_site_hse06_10hf_ddec_spin_density
 _atom_site_hse06_10hf_ddec_sum_bond_order
 _atom_site_hse06_10hf_magmom
 _atom_site_hse06_bader_spin_density
 _atom_site_hse06_ddec_charge
 _atom_site_hse06_ddec_spin_density
 _atom_site_hse06_ddec_sum_bond_order
 _atom_site_hse06_magmom
 _atom_site_pbe_bader_spin_density
 _atom_site_pbe_cm5_charge
 _atom_site_pbe_ddec_charge
 _atom_site_pbe_ddec_spin_density
 _atom_site_pbe_ddec_sum_bond_order
 _atom_site_pbe_magmom
Hg  Hg0  1  0.09017296  0.19450422  0.74999836  1  0  0.778942  0  2.070322  0  0  0.618046  0  2.560092  0  0  0.664859  0  2.528429  0  0  0.542602  0.588116  0  2.578819  0
Hg  Hg1  1  0.90983409  0.80549068  0.25000054  1  0  0.778893  0  2.070339  0  0  0.617995  0  2.560128  0  0  0.664802  0  2.528455  0  0  0.542556  0.588061  0  2.578854  0
H  H2  1  0.47255455  0.49144855  0.25000547  1  0  0.099128  0  0.941457  0  0  0.108621  0  1.009664  0  0  0.109943  0  1.009149  0  0  0.119567  0.107117  0  1.01032  0
H  H3  1  0.52745092  0.50854737  0.74999132  1  0  0.099249  0  0.941365  0  0  0.108722  0  1.009563  0  0  0.110049  0  1.009063  0  0  0.119598  0.107215  0  1.010216  0
H  H4  1  0.74803543  0.43624499  0.24998549  1  0  0.086391  0  0.975617  0  0  0.094483  0  1.04689  0  0  0.096305  0  1.045015  0  0  0.1066  0.091667  0  1.049718  0
H  H5  1  0.25192829  0.56374342  0.74999022  1  0  0.086625  0  0.975141  0  0  0.094635  0  1.046482  0  0  0.096546  0  1.044523  0  0  0.106688  0.091815  0  1.049302  0
H  H6  1  0.21469798  0.39912433  0.05789211  1  0  0.099054  0  0.964744  0  0  0.10398  0  1.038477  0  0  0.107247  0  1.034191  0  0  0.120335  0.101105  0  1.042608  0
H  H7  1  0.78530386  0.60089523  0.55789047  1  0  0.099116  0  0.964884  0  0  0.104027  0  1.038599  0  0  0.107284  0  1.03432  0  0  0.120356  0.101151  0  1.04273  0
H  H8  1  0.78532638  0.60088269  0.94209835  1  0  0.09896  0  0.964545  0  0  0.104023  0  1.038152  0  0  0.10729  0  1.033864  0  0  0.120397  0.101146  0  1.042284  0
H  H9  1  0.21469519  0.39912805  0.44211159  1  0  0.098964  0  0.964533  0  0  0.103874  0  1.038293  0  0  0.10714  0  1.034008  0  0  0.120336  0.100997  0  1.042423  0
H  H10  1  0.58184859  0.08324437  0.87683609  1  0  0.09634  0  0.992862  0  0  0.10368  0  1.058513  0  0  0.105652  0  1.058314  0  0  0.102641  0.102024  0  1.059419  0
H  H11  1  0.41812835  0.91673388  0.37682851  1  0  0.096258  0  0.993027  0  0  0.103613  0  1.058682  0  0  0.105586  0  1.058483  0  0  0.102569  0.101954  0  1.059596  0
H  H12  1  0.41813081  0.91673177  0.12317966  1  0  0.096274  0  0.992957  0  0  0.103694  0  1.058533  0  0  0.105667  0  1.058335  0  0  0.102593  0.102031  0  1.059454  0
H  H13  1  0.58186411  0.08326485  0.62315142  1  0  0.096201  0  0.993178  0  0  0.103516  0  1.05888  0  0  0.105488  0  1.058682  0  0  0.102528  0.101855  0  1.059796  0
H  H14  1  0.79786276  0.18667387  0.11615464  1  0  0.114937  0  0.98604  0  0  0.121971  0  1.053508  0  0  0.124956  0  1.051997  0  0  0.108436  0.119229  0  1.055948  0
H  H15  1  0.20210882  0.81332110  0.61616924  1  0  0.114886  0  0.985814  0  0  0.121868  0  1.053401  0  0  0.124858  0  1.051892  0  0  0.108347  0.119122  0  1.055838  0
H  H16  1  0.20207767  0.81331179  0.88384530  1  0  0.114995  0  0.985581  0  0  0.121981  0  1.053188  0  0  0.124972  0  1.05167  0  0  0.108354  0.119239  0  1.055624  0
H  H17  1  0.79790699  0.18668145  0.38383598  1  0  0.115041  0  0.985764  0  0  0.121997  0  1.053388  0  0  0.12499  0  1.05187  0  0  0.108344  0.119254  0  1.055827  0
C  C18  1  0.57120375  0.39945824  0.25000938  1  0  0.08373  0  3.605698  0  0  0.006606  0  3.847502  0  0  0.014666  0  3.856826  0  0  0.051392  0.002316  0  3.8409  0
C  C19  1  0.42880961  0.60055695  0.75000531  1  0  0.083314  0  3.605431  0  0  0.006197  0  3.847393  0  0  0.014217  0  3.856633  0  0  0.051177  0.001895  0  3.84082  0
C  C20  1  0.34082470  0.32658277  0.03801478  1  0  0.160672  0  3.650506  0  0  0.094307  0  3.923732  0  0  0.108897  0  3.936079  0  0  0.133375  0.084701  0  3.916382  0
C  C21  1  0.65916503  0.67340907  0.53801329  1  0  0.160757  0  3.651318  0  0  0.094392  0  3.924522  0  0  0.108993  0  3.936866  0  0  0.133431  0.084786  0  3.917169  0
C  C22  1  0.65918500  0.67342703  0.96197569  1  0  0.160932  0  3.651098  0  0  0.094464  0  3.924288  0  0  0.109059  0  3.936627  0  0  0.133479  0.084857  0  3.916937  0
C  C23  1  0.34084188  0.32658370  0.46199930  1  0  0.160919  0  3.650787  0  0  0.09459  0  3.924015  0  0  0.109184  0  3.936358  0  0  0.133516  0.084984  0  3.91666  0
C  C24  1  0.53608318  0.16457704  0.94900404  1  0  0.001146  0  3.77001  0  0  -0.029926  0  4.032094  0  0  -0.027978  0  4.053474  0  0  -0.00789  -0.031871  0  4.018179  0
C  C25  1  0.46392025  0.83543209  0.44900768  1  0  0.001208  0  3.770227  0  0  -0.029902  0  4.032307  0  0  -0.027952  0  4.053683  0  0  -0.007912  -0.03185  0  4.01839  0
C  C26  1  0.46386911  0.83541318  0.05099801  1  0  0.001127  0  3.770286  0  0  -0.030007  0  4.032261  0  0  -0.028049  0  4.053634  0  0  -0.008053  -0.031973  0  4.018387  0
C  C27  1  0.53611122  0.16458254  0.55098911  1  0  0.001314  0  3.770002  0  0  -0.029714  0  4.031995  0  0  -0.027757  0  4.053367  0  0  -0.007917  -0.031681  0  4.01812  0
C  C28  1  0.64581113  0.21494671  0.06737370  1  0  -0.061289  0  3.661456  0  0  -0.101078  0  3.91789  0  0  -0.100605  0  3.937041  0  0  -0.004669  -0.100722  0  3.904771  0
C  C29  1  0.35422669  0.78506528  0.56737381  1  0  -0.061188  0  3.66151  0  0  -0.100928  0  3.917954  0  0  -0.100471  0  3.937129  0  0  -0.004493  -0.100562  0  3.904814  0
C  C30  1  0.35419184  0.78503643  0.93262414  1  0  -0.06133  0  3.661389  0  0  -0.101104  0  3.917803  0  0  -0.100648  0  3.936971  0  0  -0.004495  -0.100737  0  3.904663  0
C  C31  1  0.64581038  0.21495903  0.43260191  1  0  -0.061517  0  3.660875  0  0  -0.101269  0  3.917284  0  0  -0.100811  0  3.936442  0  0  -0.00451  -0.100908  0  3.904156  0
N  N32  1  0.34768134  0.23516592  0.93190654  1  0  -0.339535  0  3.281299  0  0  -0.260917  0  3.566531  0  0  -0.282588  0  3.586176  0  0  -0.335277  -0.245671  0  3.551018  0
N  N33  1  0.65231921  0.76482949  0.43190783  1  0  -0.339588  0  3.281159  0  0  -0.260946  0  3.566371  0  0  -0.282619  0  3.58601  0  0  -0.335298  -0.245698  0  3.550854  0
N  N34  1  0.65230774  0.76483166  0.06809973  1  0  -0.339605  0  3.280789  0  0  -0.260978  0  3.566068  0  0  -0.282659  0  3.585712  0  0  -0.335232  -0.245725  0  3.550549  0
N  N35  1  0.34768784  0.23516541  0.56811213  1  0  -0.339671  0  3.280821  0  0  -0.261077  0  3.56607  0  0  -0.282756  0  3.585715  0  0  -0.335333  -0.245829  0  3.550556  0
N  N36  1  0.52057706  0.31753477  0.12254824  1  0  -0.077613  0  3.562048  0  0  0.013496  0  3.787821  0  0  -0.001527  0  3.81357  0  0  -0.242389  0.023454  0  3.769775  0
N  N37  1  0.47944818  0.68247115  0.62253657  1  0  -0.07771  0  3.562922  0  0  0.013424  0  3.788632  0  0  -0.001598  0  3.814415  0  0  -0.242417  0.023378  0  3.770577  0
N  N38  1  0.47948491  0.68246692  0.87747278  1  0  -0.077558  0  3.563234  0  0  0.013526  0  3.788988  0  0  -0.001492  0  3.814769  0  0  -0.242408  0.02348  0  3.770937  0
N  N39  1  0.52052917  0.31754835  0.37746127  1  0  -0.07749  0  3.562731  0  0  0.013602  0  3.788466  0  0  -0.001415  0  3.814213  0  0  -0.242403  0.023558  0  3.770419  0
Cl  Cl40  1  0.90610851  0.42214456  0.74999848  1  0  -0.54296  0  0.946206  0  0  -0.486946  0  1.214032  0  0  -0.504606  0  1.196812  0  0  -0.295016  -0.473197  0  1.227259  0
Cl  Cl41  1  0.09388230  0.57785413  0.25000779  1  0  -0.542914  0  0.946274  0  0  -0.486938  0  1.21412  0  0  -0.504566  0  1.196891  0  0  -0.295  -0.473191  0  1.227349  0
Cl  Cl42  1  0.90904135  0.95334782  0.74999862  1  0  -0.492692  0  0.951949  0  0  -0.431785  0  1.214749  0  0  -0.449263  0  1.198445  0  0  -0.274247  -0.420432  0  1.228688  0
Cl  Cl43  1  0.09096116  0.04665331  0.24999712  1  0  -0.492709  0  0.951899  0  0  -0.431817  0  1.214696  0  0  -0.44929  0  1.198386  0  0  -0.27426  -0.42046  0  1.22863  0
