# generated using pymatgen
data_CdH6(C3O)4
_symmetry_space_group_name_H-M   'P 1'
_cell_length_a   7.25273926
_cell_length_b   7.19578472
_cell_length_c   18.85868561
_cell_angle_alpha   90.00259732
_cell_angle_beta   95.31829636
_cell_angle_gamma   89.99882916
_symmetry_Int_Tables_number   1
_chemical_formula_structural   CdH6(C3O)4
_chemical_formula_sum   'Cd4 H24 C48 O16'
_cell_volume   979.98186363
_cell_formula_units_Z   4
loop_
 _symmetry_equiv_pos_site_id
 _symmetry_equiv_pos_as_xyz
  1  'x, y, z'
loop_
 _atom_site_type_symbol
 _atom_site_label
 _atom_site_symmetry_multiplicity
 _atom_site_fract_x
 _atom_site_fract_y
 _atom_site_fract_z
 _atom_site_occupancy
 _atom_site_hle17_bader_spin_density
 _atom_site_hle17_ddec_charge
 _atom_site_hle17_ddec_spin_density
 _atom_site_hle17_ddec_sum_bond_order
 _atom_site_hle17_magmom
 _atom_site_hse06_10hf_bader_spin_density
 _atom_site_hse06_10hf_ddec_charge
 _atom_site_hse06_10hf_ddec_spin_density
 _atom_site_hse06_10hf_ddec_sum_bond_order
 _atom_site_hse06_10hf_magmom
 _atom_site_hse06_bader_spin_density
 _atom_site_hse06_ddec_charge
 _atom_site_hse06_ddec_spin_density
 _atom_site_hse06_ddec_sum_bond_order
 _atom_site_hse06_magmom
 _atom_site_pbe_bader_spin_density
 _atom_site_pbe_cm5_charge
 _atom_site_pbe_ddec_charge
 _atom_site_pbe_ddec_spin_density
 _atom_site_pbe_ddec_sum_bond_order
 _atom_site_pbe_magmom
Cd  Cd0  1  0.65278270  0.15736043  0.45039948  1  0  1.304828  0  1.487439  0  0  1.129646  0  1.912231  0  0  1.19335  0  1.85355  0  0  0.798457  1.08353  0  1.952727  0
Cd  Cd1  1  0.84722465  0.65737644  0.54960525  1  0  1.304924  0  1.487482  0  0  1.129731  0  1.912289  0  0  1.193426  0  1.853599  0  0  0.798467  1.083639  0  1.952748  0
Cd  Cd2  1  0.34721682  0.84262603  0.54960024  1  0  1.304854  0  1.487433  0  0  1.129645  0  1.912225  0  0  1.193342  0  1.85354  0  0  0.798466  1.083529  0  1.95272  0
Cd  Cd3  1  0.15277897  0.34260029  0.45039301  1  0  1.304856  0  1.487499  0  0  1.129703  0  1.912313  0  0  1.193408  0  1.853631  0  0  0.798454  1.083625  0  1.952745  0
H  H4  1  0.52173934  0.13811645  0.70064608  1  0  0.116133  0  0.959169  0  0  0.122569  0  1.026733  0  0  0.126033  0  1.025122  0  0  0.104793  0.120056  0  1.028068  0
H  H5  1  0.97827255  0.63809230  0.29936057  1  0  0.116101  0  0.959195  0  0  0.122542  0  1.026765  0  0  0.126002  0  1.025166  0  0  0.104754  0.120036  0  1.028081  0
H  H6  1  0.47825873  0.86188668  0.29935147  1  0  0.116155  0  0.959203  0  0  0.122578  0  1.026795  0  0  0.126042  0  1.025185  0  0  0.104794  0.120073  0  1.028111  0
H  H7  1  0.02173671  0.36190250  0.70064104  1  0  0.116119  0  0.959178  0  0  0.122561  0  1.026741  0  0  0.126016  0  1.025157  0  0  0.104775  0.120055  0  1.028058  0
H  H8  1  0.43161032  0.14353327  0.82391464  1  0  0.100194  0  0.95621  0  0  0.111236  0  1.015337  0  0  0.113809  0  1.015297  0  0  0.103173  0.109413  0  1.015444  0
H  H9  1  0.06839068  0.64351132  0.17609118  1  0  0.100083  0  0.956208  0  0  0.11117  0  1.015291  0  0  0.113739  0  1.015256  0  0  0.103174  0.109347  0  1.015393  0
H  H10  1  0.56839195  0.85648237  0.17608463  1  0  0.100188  0  0.95618  0  0  0.111238  0  1.01529  0  0  0.113811  0  1.015252  0  0  0.103198  0.109413  0  1.015398  0
H  H11  1  0.93161302  0.35649598  0.82390973  1  0  0.100068  0  0.956305  0  0  0.111198  0  1.015332  0  0  0.113771  0  1.015292  0  0  0.10317  0.109376  0  1.01544  0
H  H12  1  0.50831019  0.08460549  0.95249703  1  0  0.082874  0  0.969505  0  0  0.09654  0  1.027356  0  0  0.098817  0  1.026951  0  0  0.097963  0.094886  0  1.027727  0
H  H13  1  0.99167207  0.58459339  0.04750618  1  0  0.082951  0  0.969561  0  0  0.096626  0  1.027383  0  0  0.098903  0  1.026981  0  0  0.097967  0.094974  0  1.027751  0
H  H14  1  0.49168792  0.91541710  0.04750212  1  0  0.08286  0  0.969504  0  0  0.096584  0  1.027286  0  0  0.09882  0  1.026933  0  0  0.097965  0.09493  0  1.027659  0
H  H15  1  0.00832883  0.41542364  0.95249358  1  0  0.08297  0  0.969472  0  0  0.096626  0  1.027322  0  0  0.098901  0  1.026921  0  0  0.09794  0.094973  0  1.027694  0
H  H16  1  0.81134574  0.93933735  0.99629367  1  0  0.083139  0  0.968349  0  0  0.094208  0  1.030728  0  0  0.096733  0  1.030227  0  0  0.096011  0.092398  0  1.031143  0
H  H17  1  0.68863592  0.43933384  0.00370831  1  0  0.083132  0  0.968396  0  0  0.094214  0  1.030747  0  0  0.096741  0  1.03024  0  0  0.096004  0.092402  0  1.031168  0
H  H18  1  0.18864962  0.06068107  0.00370592  1  0  0.083091  0  0.968358  0  0  0.094219  0  1.030674  0  0  0.096746  0  1.03017  0  0  0.095995  0.092398  0  1.031095  0
H  H19  1  0.31136498  0.56068319  0.99629145  1  0  0.083083  0  0.968399  0  0  0.094185  0  1.030741  0  0  0.096711  0  1.030237  0  0  0.095976  0.092368  0  1.031155  0
H  H20  1  0.04150546  0.86417111  0.91085574  1  0  0.088328  0  0.966754  0  0  0.099249  0  1.029512  0  0  0.101609  0  1.029507  0  0  0.097379  0.097559  0  1.029593  0
H  H21  1  0.45849166  0.36416240  0.08914747  1  0  0.088281  0  0.966855  0  0  0.099206  0  1.02961  0  0  0.101565  0  1.029606  0  0  0.097383  0.097503  0  1.029716  0
H  H22  1  0.95848856  0.13583481  0.08914540  1  0  0.088267  0  0.966859  0  0  0.099184  0  1.029616  0  0  0.101544  0  1.029612  0  0  0.097365  0.09748  0  1.029723  0
H  H23  1  0.54151063  0.63584629  0.91085233  1  0  0.088349  0  0.96686  0  0  0.099237  0  1.029642  0  0  0.101599  0  1.029634  0  0  0.097369  0.097538  0  1.029747  0
H  H24  1  0.13657959  0.87233578  0.78719177  1  0  0.107508  0  0.945116  0  0  0.1173  0  1.007812  0  0  0.120279  0  1.006617  0  0  0.107481  0.115179  0  1.008698  0
H  H25  1  0.36343409  0.37231005  0.21281475  1  0  0.10752  0  0.94503  0  0  0.117271  0  1.00779  0  0  0.120264  0  1.006556  0  0  0.107505  0.115161  0  1.008642  0
H  H26  1  0.86340748  0.12764929  0.21280809  1  0  0.107433  0  0.945031  0  0  0.117177  0  1.007824  0  0  0.120161  0  1.006614  0  0  0.107441  0.115068  0  1.008671  0
H  H27  1  0.63657234  0.62768613  0.78718519  1  0  0.107473  0  0.945054  0  0  0.117226  0  1.007809  0  0  0.120207  0  1.00661  0  0  0.107482  0.115112  0  1.008676  0
C  C28  1  0.74493448  0.10096274  0.59580533  1  0  0.69159  0  3.862979  0  0  0.635141  0  4.157571  0  0  0.671836  0  4.148552  0  0  0.211232  0.609964  0  4.162985  0
C  C29  1  0.75507809  0.60095530  0.40420282  1  0  0.691549  0  3.862816  0  0  0.635134  0  4.157381  0  0  0.671831  0  4.148359  0  0  0.211226  0.609957  0  4.162803  0
C  C30  1  0.25506502  0.89903067  0.40419386  1  0  0.69152  0  3.86295  0  0  0.63496  0  4.157686  0  0  0.671658  0  4.148661  0  0  0.211137  0.609777  0  4.163104  0
C  C31  1  0.24492836  0.39903533  0.59579765  1  0  0.691483  0  3.862907  0  0  0.635034  0  4.157567  0  0  0.671727  0  4.148544  0  0  0.211125  0.609846  0  4.162984  0
C  C32  1  0.78809548  0.05045666  0.67276003  1  0  -0.053204  0  3.715989  0  0  -0.039266  0  3.955227  0  0  -0.042932  0  3.973912  0  0  -0.00955  -0.03694  0  3.942822  0
C  C33  1  0.71191792  0.55044112  0.32724673  1  0  -0.052745  0  3.715679  0  0  -0.038858  0  3.954899  0  0  -0.042512  0  3.973567  0  0  -0.009334  -0.036543  0  3.942508  0
C  C34  1  0.21189708  0.94953396  0.32723842  1  0  -0.053264  0  3.716024  0  0  -0.039228  0  3.955193  0  0  -0.042897  0  3.973879  0  0  -0.009537  -0.036905  0  3.942795  0
C  C35  1  0.28808854  0.44955368  0.67275374  1  0  -0.052865  0  3.715654  0  0  -0.03902  0  3.954977  0  0  -0.042687  0  3.973668  0  0  -0.009401  -0.036694  0  3.942573  0
C  C36  1  0.65722292  0.08343420  0.71983856  1  0  -0.104608  0  3.664347  0  0  -0.137697  0  3.917874  0  0  -0.138957  0  3.935864  0  0  -0.081331  -0.136894  0  3.90595  0
C  C37  1  0.84278441  0.58341609  0.28016911  1  0  -0.104646  0  3.664553  0  0  -0.137736  0  3.918064  0  0  -0.139005  0  3.936051  0  0  -0.08134  -0.136932  0  3.906143  0
C  C38  1  0.34277106  0.91656616  0.28016099  1  0  -0.104588  0  3.664579  0  0  -0.137692  0  3.918073  0  0  -0.138951  0  3.936066  0  0  -0.081362  -0.136894  0  3.906153  0
C  C39  1  0.15722070  0.41658149  0.71983237  1  0  -0.104677  0  3.664543  0  0  -0.137771  0  3.91808  0  0  -0.139034  0  3.936064  0  0  -0.081372  -0.136969  0  3.906157  0
C  C40  1  0.69516368  0.04471266  0.79347994  1  0  0.064039  0  3.778306  0  0  0.080927  0  4.005326  0  0  0.081629  0  4.0281  0  0  -0.001735  0.080468  0  3.989949  0
C  C41  1  0.80484150  0.54469089  0.20652646  1  0  0.063945  0  3.778767  0  0  0.080845  0  4.005705  0  0  0.081557  0  4.028457  0  0  -0.001829  0.080392  0  3.99032  0
C  C42  1  0.30483582  0.95529325  0.20651925  1  0  0.063934  0  3.778278  0  0  0.080828  0  4.005276  0  0  0.081526  0  4.02806  0  0  -0.001761  0.080376  0  3.989887  0
C  C43  1  0.19516218  0.45531224  0.79347392  1  0  0.063908  0  3.778692  0  0  0.080887  0  4.005621  0  0  0.081596  0  4.028378  0  0  -0.001778  0.08044  0  3.990233  0
C  C44  1  0.56506871  0.08390787  0.84319171  1  0  -0.103923  0  3.723462  0  0  -0.123111  0  3.967989  0  0  -0.125562  0  3.988784  0  0  -0.084764  -0.12145  0  3.953882  0
C  C45  1  0.93492883  0.58388464  0.15681302  1  0  -0.103861  0  3.72341  0  0  -0.123097  0  3.967931  0  0  -0.125552  0  3.988726  0  0  -0.084816  -0.121436  0  3.953814  0
C  C46  1  0.43493078  0.91610222  0.15680695  1  0  -0.103848  0  3.723288  0  0  -0.123056  0  3.967852  0  0  -0.125506  0  3.988636  0  0  -0.08473  -0.121394  0  3.953739  0
C  C47  1  0.06507347  0.41612267  0.84318732  1  0  -0.103923  0  3.723724  0  0  -0.123221  0  3.968227  0  0  -0.125673  0  3.98902  0  0  -0.084865  -0.121567  0  3.954124  0
C  C48  1  0.60804217  0.04945811  0.91478631  1  0  -0.079344  0  3.803236  0  0  -0.093389  0  4.053634  0  0  -0.095367  0  4.075653  0  0  -0.097227  -0.091838  0  4.038507  0
C  C49  1  0.89194630  0.54944684  0.08521913  1  0  -0.079394  0  3.803094  0  0  -0.09344  0  4.053497  0  0  -0.09542  0  4.075519  0  0  -0.097174  -0.091898  0  4.038374  0
C  C50  1  0.39195177  0.95055754  0.08521218  1  0  -0.079355  0  3.803071  0  0  -0.093439  0  4.053516  0  0  -0.095387  0  4.075548  0  0  -0.097241  -0.091895  0  4.038392  0
C  C51  1  0.10805737  0.45056046  0.91478072  1  0  -0.079314  0  3.802975  0  0  -0.093338  0  4.053384  0  0  -0.095317  0  4.075407  0  0  -0.097093  -0.091788  0  4.038257  0
C  C52  1  0.78027775  0.96887388  0.93969275  1  0  -0.088734  0  3.8055  0  0  -0.102151  0  4.056456  0  0  -0.104586  0  4.078441  0  0  -0.099599  -0.100452  0  4.041401  0
C  C53  1  0.71971309  0.46886106  0.06030950  1  0  -0.088769  0  3.805505  0  0  -0.102216  0  4.056475  0  0  -0.104646  0  4.078457  0  0  -0.09958  -0.100522  0  4.041428  0
C  C54  1  0.21971899  0.03114593  0.06030688  1  0  -0.088754  0  3.805501  0  0  -0.102238  0  4.056496  0  0  -0.104671  0  4.078461  0  0  -0.099652  -0.100537  0  4.041445  0
C  C55  1  0.28028919  0.53115042  0.93969030  1  0  -0.088731  0  3.805339  0  0  -0.102192  0  4.056293  0  0  -0.104623  0  4.078271  0  0  -0.099605  -0.100485  0  4.041234  0
C  C56  1  0.90880546  0.92729549  0.89247515  1  0  -0.113394  0  3.753063  0  0  -0.13229  0  3.997955  0  0  -0.134679  0  4.020103  0  0  -0.089559  -0.130521  0  3.982879  0
C  C57  1  0.59118893  0.42728798  0.10752914  1  0  -0.113211  0  3.753122  0  0  -0.132136  0  3.997978  0  0  -0.134531  0  4.020139  0  0  -0.089562  -0.130357  0  3.982891  0
C  C58  1  0.09118715  0.07271042  0.10752489  1  0  -0.113234  0  3.753068  0  0  -0.132138  0  3.997956  0  0  -0.134527  0  4.02011  0  0  -0.089493  -0.130354  0  3.982855  0
C  C59  1  0.40881195  0.57272349  0.89247009  1  0  -0.113375  0  3.753069  0  0  -0.132233  0  3.997973  0  0  -0.134626  0  4.020128  0  0  -0.0895  -0.130461  0  3.982884  0
C  C60  1  0.87122465  0.96660070  0.81875585  1  0  0.044819  0  3.802011  0  0  0.062154  0  4.029072  0  0  0.060879  0  4.052731  0  0  -0.006584  0.062917  0  4.013038  0
C  C61  1  0.62878156  0.46657601  0.18125003  1  0  0.044706  0  3.80184  0  0  0.062132  0  4.028737  0  0  0.060856  0  4.052403  0  0  -0.006553  0.062889  0  4.012698  0
C  C62  1  0.12877074  0.03340105  0.18124480  1  0  0.044678  0  3.801896  0  0  0.062059  0  4.028879  0  0  0.060782  0  4.052544  0  0  -0.006649  0.062817  0  4.012841  0
C  C63  1  0.37122213  0.53342712  0.81875035  1  0  0.044837  0  3.801666  0  0  0.062117  0  4.028742  0  0  0.060842  0  4.052405  0  0  -0.006583  0.062878  0  4.012704  0
C  C64  1  0.00262320  0.93314252  0.76931517  1  0  -0.082317  0  3.669838  0  0  -0.115228  0  3.920227  0  0  -0.113457  0  3.937209  0  0  -0.070233  -0.116169  0  3.908609  0
C  C65  1  0.49738808  0.43311896  0.23069234  1  0  -0.082059  0  3.66959  0  0  -0.114982  0  3.9199  0  0  -0.113204  0  3.936884  0  0  -0.070153  -0.115925  0  3.908302  0
C  C66  1  0.99736662  0.06684672  0.23068425  1  0  -0.082107  0  3.66953  0  0  -0.114995  0  3.919927  0  0  -0.113219  0  3.936906  0  0  -0.07017  -0.115934  0  3.908316  0
C  C67  1  0.50261837  0.56687583  0.76930813  1  0  -0.082133  0  3.6696  0  0  -0.115013  0  3.919972  0  0  -0.11324  0  3.936951  0  0  -0.070186  -0.115954  0  3.908344  0
C  C68  1  0.96375564  0.97352594  0.69782837  1  0  -0.075922  0  3.756797  0  0  -0.062147  0  3.995673  0  0  -0.069443  0  4.01659  0  0  -0.015371  -0.057393  0  3.981639  0
C  C69  1  0.53626157  0.47350055  0.30217903  1  0  -0.076506  0  3.757263  0  0  -0.062665  0  3.996114  0  0  -0.069972  0  4.017037  0  0  -0.015513  -0.057912  0  3.982087  0
C  C70  1  0.03623695  0.02646608  0.30217114  1  0  -0.075795  0  3.756513  0  0  -0.062059  0  3.995387  0  0  -0.069349  0  4.016297  0  0  -0.015258  -0.057304  0  3.981352  0
C  C71  1  0.46374492  0.52649286  0.69782250  1  0  -0.076168  0  3.757085  0  0  -0.062313  0  3.995944  0  0  -0.069608  0  4.016856  0  0  -0.015395  -0.057552  0  3.981904  0
C  C72  1  0.10239509  0.92586904  0.64748838  1  0  0.647092  0  3.890249  0  0  0.593271  0  4.179626  0  0  0.628559  0  4.174855  0  0  0.201965  0.569215  0  4.182063  0
C  C73  1  0.39762459  0.42584920  0.35251820  1  0  0.647813  0  3.890001  0  0  0.593983  0  4.179389  0  0  0.629267  0  4.174597  0  0  0.202259  0.569917  0  4.181849  0
C  C74  1  0.89759750  0.07411464  0.35251112  1  0  0.64706  0  3.89026  0  0  0.593283  0  4.179622  0  0  0.628573  0  4.174845  0  0  0.201992  0.569222  0  4.182074  0
C  C75  1  0.60238049  0.57414143  0.64748275  1  0  0.647403  0  3.890204  0  0  0.593546  0  4.179646  0  0  0.628831  0  4.174863  0  0  0.202145  0.569488  0  4.182087  0
O  O76  1  0.64542497  0.98571965  0.55548689  1  0  -0.735069  0  2.143481  0  0  -0.647234  0  2.414218  0  0  -0.684541  0  2.401475  0  0  -0.333627  -0.620523  0  2.421645  0
O  O77  1  0.85457959  0.48570862  0.44452086  1  0  -0.735203  0  2.143358  0  0  -0.647435  0  2.414184  0  0  -0.684711  0  2.40137  0  0  -0.333723  -0.620714  0  2.421588  0
O  O78  1  0.35456490  0.01427932  0.44451413  1  0  -0.735058  0  2.143454  0  0  -0.647183  0  2.414231  0  0  -0.684483  0  2.401475  0  0  -0.333595  -0.620485  0  2.42169  0
O  O79  1  0.14543099  0.51428200  0.55547867  1  0  -0.735163  0  2.143302  0  0  -0.647313  0  2.414016  0  0  -0.684635  0  2.401307  0  0  -0.33366  -0.620642  0  2.421538  0
O  O80  1  0.80218753  0.25005358  0.57133685  1  0  -0.598349  0  1.950827  0  0  -0.540184  0  2.191508  0  0  -0.569377  0  2.182828  0  0  -0.298427  -0.51964  0  2.196859  0
O  O81  1  0.69783493  0.75004876  0.42867156  1  0  -0.598411  0  1.951129  0  0  -0.540222  0  2.191803  0  0  -0.569419  0  2.18313  0  0  -0.29839  -0.519675  0  2.197151  0
O  O82  1  0.19782439  0.74993566  0.42866166  1  0  -0.598335  0  1.950922  0  0  -0.540129  0  2.191669  0  0  -0.569322  0  2.18299  0  0  -0.298406  -0.519586  0  2.197024  0
O  O83  1  0.30216328  0.24993631  0.57133077  1  0  -0.598363  0  1.951239  0  0  -0.540166  0  2.191931  0  0  -0.56936  0  2.183255  0  0  -0.298346  -0.519615  0  2.19728  0
O  O84  1  0.04340288  0.89951977  0.58081569  1  0  -0.696516  0  2.088558  0  0  -0.610152  0  2.349378  0  0  -0.644911  0  2.337321  0  0  -0.332459  -0.58546  0  2.356509  0
O  O85  1  0.45661584  0.39951068  0.41918988  1  0  -0.696736  0  2.088387  0  0  -0.610396  0  2.349167  0  0  -0.645197  0  2.337224  0  0  -0.332576  -0.585705  0  2.356303  0
O  O86  1  0.95658697  0.10046530  0.41918479  1  0  -0.696386  0  2.08853  0  0  -0.610124  0  2.349388  0  0  -0.644956  0  2.337454  0  0  -0.33247  -0.585435  0  2.356528  0
O  O87  1  0.54339199  0.60048411  0.58081010  1  0  -0.696575  0  2.088445  0  0  -0.610238  0  2.349259  0  0  -0.645025  0  2.337284  0  0  -0.332516  -0.58555  0  2.3564  0
O  O88  1  0.27184577  0.91050955  0.66814751  1  0  -0.59916  0  1.977691  0  0  -0.53936  0  2.218525  0  0  -0.569654  0  2.214348  0  0  -0.298013  -0.51827  0  2.22085  0
O  O89  1  0.22817555  0.41047959  0.33185885  1  0  -0.599483  0  1.977703  0  0  -0.539748  0  2.218676  0  0  -0.570046  0  2.214499  0  0  -0.298184  -0.518656  0  2.221005  0
O  O90  1  0.72814680  0.08947135  0.33185146  1  0  -0.59924  0  1.977801  0  0  -0.539401  0  2.218587  0  0  -0.569691  0  2.214411  0  0  -0.298028  -0.518312  0  2.220919  0
O  O91  1  0.77182957  0.58950965  0.66814316  1  0  -0.599323  0  1.97769  0  0  -0.539537  0  2.218599  0  0  -0.56983  0  2.214428  0  0  -0.298126  -0.518448  0  2.220923  0
