# generated using pymatgen
data_CdH6C12Br2(NO2)2
_symmetry_space_group_name_H-M   'P 1'
_cell_length_a   9.86123085
_cell_length_b   11.33868263
_cell_length_c   13.43350432
_cell_angle_alpha   108.96119725
_cell_angle_beta   89.99996035
_cell_angle_gamma   89.99998795
_symmetry_Int_Tables_number   1
_chemical_formula_structural   CdH6C12Br2(NO2)2
_chemical_formula_sum   'Cd4 H24 C48 Br8 N8 O16'
_cell_volume   1420.54263211
_cell_formula_units_Z   4
loop_
 _symmetry_equiv_pos_site_id
 _symmetry_equiv_pos_as_xyz
  1  'x, y, z'
loop_
 _atom_site_type_symbol
 _atom_site_label
 _atom_site_symmetry_multiplicity
 _atom_site_fract_x
 _atom_site_fract_y
 _atom_site_fract_z
 _atom_site_occupancy
 _atom_site_hle17_bader_spin_density
 _atom_site_hle17_ddec_charge
 _atom_site_hle17_ddec_spin_density
 _atom_site_hle17_ddec_sum_bond_order
 _atom_site_hle17_magmom
 _atom_site_hse06_10hf_bader_spin_density
 _atom_site_hse06_10hf_ddec_charge
 _atom_site_hse06_10hf_ddec_spin_density
 _atom_site_hse06_10hf_ddec_sum_bond_order
 _atom_site_hse06_10hf_magmom
 _atom_site_hse06_bader_spin_density
 _atom_site_hse06_ddec_charge
 _atom_site_hse06_ddec_spin_density
 _atom_site_hse06_ddec_sum_bond_order
 _atom_site_hse06_magmom
 _atom_site_pbe_bader_spin_density
 _atom_site_pbe_cm5_charge
 _atom_site_pbe_ddec_charge
 _atom_site_pbe_ddec_spin_density
 _atom_site_pbe_ddec_sum_bond_order
 _atom_site_pbe_magmom
Cd  Cd0  1  0.62144948  0.41338015  0.60129498  1  0  1.149351  0  1.674436  0  0  0.955473  0  2.12959  0  0  1.013621  0  2.076085  0  0  0.780143  0.913889  0  2.166093  0
Cd  Cd1  1  0.12144993  0.08662050  0.89870513  1  0  1.14935  0  1.674445  0  0  0.955464  0  2.129616  0  0  1.013617  0  2.076106  0  0  0.78013  0.913879  0  2.166115  0
Cd  Cd2  1  0.37855086  0.58661987  0.39870537  1  0  1.149364  0  1.67442  0  0  0.955491  0  2.12958  0  0  1.013639  0  2.076072  0  0  0.780146  0.913913  0  2.166069  0
Cd  Cd3  1  0.87855143  0.91338045  0.10129548  1  0  1.149354  0  1.674443  0  0  0.955479  0  2.129599  0  0  1.013629  0  2.076091  0  0  0.780154  0.913904  0  2.166112  0
H  H4  1  0.40998699  0.29216257  0.71942618  1  0  0.095724  0  0.939795  0  0  0.099146  0  1.012736  0  0  0.103089  0  1.007902  0  0  0.114191  0.096283  0  1.016141  0
H  H5  1  0.90998743  0.20783702  0.78057423  1  0  0.095709  0  0.939823  0  0  0.099131  0  1.012755  0  0  0.103074  0  1.007921  0  0  0.114183  0.096268  0  1.01616  0
H  H6  1  0.59001234  0.70783558  0.28057366  1  0  0.095711  0  0.939763  0  0  0.099141  0  1.012704  0  0  0.103084  0  1.00787  0  0  0.11419  0.096282  0  1.016112  0
H  H7  1  0.09001189  0.79216393  0.21942637  1  0  0.095692  0  0.939793  0  0  0.099124  0  1.012727  0  0  0.103068  0  1.007891  0  0  0.114189  0.096263  0  1.016137  0
H  H8  1  0.71393173  0.65386839  0.79036391  1  0  0.098592  0  0.956921  0  0  0.10291  0  1.027398  0  0  0.106186  0  1.023945  0  0  0.116873  0.100537  0  1.029837  0
H  H9  1  0.21392925  0.84613222  0.70963693  1  0  0.098601  0  0.956898  0  0  0.102955  0  1.027343  0  0  0.106232  0  1.023888  0  0  0.116876  0.100579  0  1.029782  0
H  H10  1  0.28606963  0.34613349  0.20963695  1  0  0.098593  0  0.956908  0  0  0.102939  0  1.027351  0  0  0.106215  0  1.023898  0  0  0.116887  0.100564  0  1.02979  0
H  H11  1  0.78606906  0.15386780  0.29036268  1  0  0.098599  0  0.956906  0  0  0.102949  0  1.027357  0  0  0.106225  0  1.023904  0  0  0.116881  0.100572  0  1.029794  0
H  H12  1  0.20489192  0.97642148  0.50286253  1  0  0.129616  0  0.925025  0  0  0.13669  0  0.989795  0  0  0.141114  0  0.985341  0  0  0.114288  0.133517  0  0.992865  0
H  H13  1  0.70489018  0.52357727  0.99713780  1  0  0.129624  0  0.925106  0  0  0.136712  0  0.989851  0  0  0.141138  0  0.985396  0  0  0.114317  0.133541  0  0.992925  0
H  H14  1  0.79510842  0.02357667  0.49713731  1  0  0.129624  0  0.925054  0  0  0.136697  0  0.989824  0  0  0.14112  0  0.985367  0  0  0.114296  0.133523  0  0.992888  0
H  H15  1  0.29511016  0.47642368  0.00286281  1  0  0.129607  0  0.925103  0  0  0.136685  0  0.989871  0  0  0.141108  0  0.985415  0  0  0.1143  0.133513  0  0.992935  0
H  H16  1  0.98347417  0.88463374  0.67960582  1  0  0.137867  0  0.958184  0  0  0.145783  0  1.023058  0  0  0.150015  0  1.018502  0  0  0.11325  0.142703  0  1.026251  0
H  H17  1  0.48347367  0.61536583  0.82039309  1  0  0.137791  0  0.958224  0  0  0.145718  0  1.023101  0  0  0.14995  0  1.018546  0  0  0.113228  0.142638  0  1.0263  0
H  H18  1  0.01652617  0.11536628  0.32039378  1  0  0.137829  0  0.958177  0  0  0.145748  0  1.02305  0  0  0.149983  0  1.018496  0  0  0.113237  0.142672  0  1.026247  0
H  H19  1  0.51652667  0.38463419  0.17960651  1  0  0.137842  0  0.958222  0  0  0.145759  0  1.023095  0  0  0.149992  0  1.018539  0  0  0.113241  0.142679  0  1.026297  0
H  H20  1  0.51646879  0.18390291  0.40344314  1  0  0.089789  0  0.965911  0  0  0.096817  0  1.032405  0  0  0.099359  0  1.030362  0  0  0.113186  0.094946  0  1.033844  0
H  H21  1  0.01646845  0.31609663  0.09655616  1  0  0.089828  0  0.965865  0  0  0.09686  0  1.032351  0  0  0.099403  0  1.030309  0  0  0.113201  0.094989  0  1.033795  0
H  H22  1  0.48353054  0.81609711  0.59655647  1  0  0.089783  0  0.965909  0  0  0.096811  0  1.032404  0  0  0.099352  0  1.030362  0  0  0.113196  0.094944  0  1.033842  0
H  H23  1  0.98353088  0.68390339  0.90344419  1  0  0.089815  0  0.965877  0  0  0.096845  0  1.032372  0  0  0.099387  0  1.03033  0  0  0.113199  0.094978  0  1.033813  0
H  H24  1  0.81377440  0.53929096  0.47290543  1  0  0.095346  0  0.950254  0  0  0.099585  0  1.020699  0  0  0.103185  0  1.016879  0  0  0.113059  0.096974  0  1.023356  0
H  H25  1  0.31377612  0.96070939  0.02709546  1  0  0.095319  0  0.950277  0  0  0.099563  0  1.020715  0  0  0.103166  0  1.016889  0  0  0.113051  0.09695  0  1.023372  0
H  H26  1  0.18622493  0.46070999  0.52709518  1  0  0.095324  0  0.950304  0  0  0.099562  0  1.020733  0  0  0.103167  0  1.016903  0  0  0.11305  0.096946  0  1.023402  0
H  H27  1  0.68622422  0.03928970  0.97290464  1  0  0.09533  0  0.950278  0  0  0.099575  0  1.02071  0  0  0.103179  0  1.016881  0  0  0.113054  0.096962  0  1.023376  0
C  C28  1  0.39354588  0.22805799  0.64009007  1  0  0.118605  0  3.671332  0  0  0.069432  0  3.932622  0  0  0.080032  0  3.947338  0  0  0.047095  0.062467  0  3.922632  0
C  C29  1  0.89354522  0.27194161  0.85990812  1  0  0.118585  0  3.671408  0  0  0.069432  0  3.932685  0  0  0.080031  0  3.947401  0  0  0.04707  0.062467  0  3.922692  0
C  C30  1  0.60645344  0.77194016  0.35990903  1  0  0.118625  0  3.67132  0  0  0.06944  0  3.932593  0  0  0.080039  0  3.94731  0  0  0.047115  0.06247  0  3.922622  0
C  C31  1  0.10645410  0.72805841  0.14009223  1  0  0.118591  0  3.671282  0  0  0.069437  0  3.93256  0  0  0.080038  0  3.947275  0  0  0.047071  0.06247  0  3.922589  0
C  C32  1  0.76904861  0.67371753  0.72734057  1  0  0.117566  0  3.659872  0  0  0.072779  0  3.910695  0  0  0.082937  0  3.926742  0  0  0.045628  0.065701  0  3.900876  0
C  C33  1  0.26904607  0.82628306  0.77266023  1  0  0.117515  0  3.65989  0  0  0.0727  0  3.910709  0  0  0.082861  0  3.926751  0  0  0.045606  0.065624  0  3.900879  0
C  C34  1  0.23095173  0.32628435  0.27266104  1  0  0.117535  0  3.659908  0  0  0.072751  0  3.9107  0  0  0.08291  0  3.926746  0  0  0.045634  0.065679  0  3.900875  0
C  C35  1  0.73095224  0.17371696  0.22734012  1  0  0.117537  0  3.659832  0  0  0.072719  0  3.910659  0  0  0.08288  0  3.926703  0  0  0.045616  0.065654  0  3.900819  0
C  C36  1  0.29871900  0.13156900  0.62157150  1  0  -0.091715  0  3.742009  0  0  -0.063479  0  3.980298  0  0  -0.07541  0  4.002756  0  0  -0.011126  -0.056076  0  3.965456  0
C  C37  1  0.79871830  0.36842878  0.87842848  1  0  -0.091788  0  3.742109  0  0  -0.063585  0  3.980414  0  0  -0.075518  0  4.002872  0  0  -0.011143  -0.056177  0  3.965575  0
C  C38  1  0.70128236  0.86842915  0.37842909  1  0  -0.091821  0  3.742118  0  0  -0.063556  0  3.980367  0  0  -0.075489  0  4.002826  0  0  -0.01116  -0.056163  0  3.965542  0
C  C39  1  0.20128204  0.63157031  0.12157161  1  0  -0.091767  0  3.742155  0  0  -0.063567  0  3.980466  0  0  -0.075503  0  4.002927  0  0  -0.011134  -0.056174  0  3.965644  0
C  C40  1  0.85033154  0.78000742  0.74844173  1  0  -0.106523  0  3.748614  0  0  -0.078434  0  3.987635  0  0  -0.091306  0  4.010485  0  0  -0.016734  -0.070181  0  3.972475  0
C  C41  1  0.35033108  0.71999313  0.75155753  1  0  -0.106536  0  3.748528  0  0  -0.078437  0  3.987579  0  0  -0.091312  0  4.010435  0  0  -0.01675  -0.070169  0  3.972403  0
C  C42  1  0.14966778  0.21999353  0.25155739  1  0  -0.106517  0  3.748532  0  0  -0.078424  0  3.98754  0  0  -0.091295  0  4.010396  0  0  -0.016766  -0.070165  0  3.972377  0
C  C43  1  0.64966824  0.28000688  0.24844208  1  0  -0.106541  0  3.748556  0  0  -0.078456  0  3.987591  0  0  -0.091329  0  4.010444  0  0  -0.016762  -0.070195  0  3.972424  0
C  C44  1  0.27945270  0.05130565  0.51855795  1  0  -0.05618  0  3.666552  0  0  -0.095118  0  3.915236  0  0  -0.090139  0  3.931234  0  0  -0.063553  -0.098003  0  3.904339  0
C  C45  1  0.77944985  0.44869400  0.98144180  1  0  -0.056165  0  3.666565  0  0  -0.095112  0  3.915241  0  0  -0.09013  0  3.931239  0  0  -0.063598  -0.097993  0  3.90434  0
C  C46  1  0.72054764  0.94869157  0.48144163  1  0  -0.05619  0  3.666662  0  0  -0.095151  0  3.91535  0  0  -0.090166  0  3.931344  0  0  -0.063605  -0.09803  0  3.904446  0
C  C47  1  0.22054947  0.55130788  0.01855980  1  0  -0.056187  0  3.666657  0  0  -0.095131  0  3.915347  0  0  -0.090146  0  3.931345  0  0  -0.063619  -0.098014  0  3.904452  0
C  C48  1  0.92125579  0.80125222  0.66569040  1  0  -0.062956  0  3.676711  0  0  -0.102244  0  3.925288  0  0  -0.097183  0  3.942204  0  0  -0.06796  -0.10517  0  3.913655  0
C  C49  1  0.42125424  0.69874830  0.83431030  1  0  -0.062776  0  3.676693  0  0  -0.1021  0  3.925312  0  0  -0.097035  0  3.94222  0  0  -0.06789  -0.105031  0  3.913686  0
C  C50  1  0.07874557  0.19874966  0.33431121  1  0  -0.062888  0  3.676768  0  0  -0.102187  0  3.925361  0  0  -0.097119  0  3.942254  0  0  -0.067927  -0.105123  0  3.913743  0
C  C51  1  0.57874508  0.30125171  0.16569005  1  0  -0.062902  0  3.676714  0  0  -0.102183  0  3.925289  0  0  -0.097122  0  3.942203  0  0  -0.067932  -0.105112  0  3.913669  0
C  C52  1  0.35873188  0.07045679  0.43926129  1  0  0.039346  0  3.715397  0  0  0.060085  0  3.987087  0  0  0.056998  0  4.011083  0  0  -0.015306  0.061488  0  3.971224  0
C  C53  1  0.85873248  0.42954073  0.06073802  1  0  0.039365  0  3.715424  0  0  0.060123  0  3.987089  0  0  0.057035  0  4.011083  0  0  -0.015257  0.061527  0  3.971231  0
C  C54  1  0.64126846  0.92954136  0.56073780  1  0  0.039386  0  3.715384  0  0  0.060154  0  3.987039  0  0  0.057066  0  4.011033  0  0  -0.015235  0.061564  0  3.971164  0
C  C55  1  0.14126786  0.57045928  0.93926233  1  0  0.039379  0  3.715382  0  0  0.060147  0  3.987036  0  0  0.05706  0  4.011029  0  0  -0.015246  0.061557  0  3.971163  0
C  C56  1  0.91013857  0.71269481  0.56588524  1  0  0.030784  0  3.715965  0  0  0.050876  0  3.988538  0  0  0.047546  0  4.011572  0  0  -0.016759  0.052515  0  3.973111  0
C  C57  1  0.41013894  0.78730479  0.93411447  1  0  0.03067  0  3.716024  0  0  0.05077  0  3.988611  0  0  0.047441  0  4.011645  0  0  -0.01684  0.0524  0  3.973194  0
C  C58  1  0.08985974  0.28730428  0.43411411  1  0  0.030713  0  3.71594  0  0  0.050789  0  3.988518  0  0  0.04746  0  4.011555  0  0  -0.016816  0.052429  0  3.973091  0
C  C59  1  0.58986140  0.21269429  0.06588413  1  0  0.030733  0  3.715958  0  0  0.050811  0  3.988553  0  0  0.04748  0  4.011589  0  0  -0.016791  0.052438  0  3.973147  0
C  C60  1  0.45203765  0.16816460  0.46369965  1  0  0.079939  0  3.700299  0  0  0.039675  0  3.950256  0  0  0.047596  0  3.967991  0  0  0.037466  0.034705  0  3.938045  0
C  C61  1  0.95203627  0.33183568  0.03629888  1  0  0.079923  0  3.700459  0  0  0.039648  0  3.950414  0  0  0.047567  0  3.968152  0  0  0.037473  0.034677  0  3.938203  0
C  C62  1  0.54796167  0.83183355  0.53629870  1  0  0.079996  0  3.700403  0  0  0.039731  0  3.950342  0  0  0.047651  0  3.968079  0  0  0.037487  0.034756  0  3.938132  0
C  C63  1  0.04796306  0.66816527  0.96370173  1  0  0.079899  0  3.700498  0  0  0.039621  0  3.950459  0  0  0.04754  0  3.968197  0  0  0.037461  0.034649  0  3.938254  0
C  C64  1  0.82589556  0.60921775  0.55021209  1  0  0.085766  0  3.698541  0  0  0.042998  0  3.955399  0  0  0.051838  0  3.971302  0  0  0.039929  0.037178  0  3.944966  0
C  C65  1  0.32589589  0.89078281  0.94978867  1  0  0.085833  0  3.698342  0  0  0.043071  0  3.95519  0  0  0.051907  0  3.971099  0  0  0.039954  0.037255  0  3.944757  0
C  C66  1  0.17410478  0.39078413  0.44978952  1  0  0.085806  0  3.698176  0  0  0.04307  0  3.955019  0  0  0.051902  0  3.970935  0  0  0.039949  0.037248  0  3.944583  0
C  C67  1  0.67410445  0.10921720  0.05021168  1  0  0.085776  0  3.698497  0  0  0.043012  0  3.955365  0  0  0.051852  0  3.971271  0  0  0.039932  0.037195  0  3.944937  0
C  C68  1  0.22206321  0.11381666  0.71244931  1  0  0.625378  0  3.96825  0  0  0.575011  0  4.259319  0  0  0.60954  0  4.25461  0  0  0.1882  0.551745  0  4.261546  0
C  C69  1  0.72206361  0.38618208  0.78754948  1  0  0.625479  0  3.968134  0  0  0.575138  0  4.259169  0  0  0.609668  0  4.25446  0  0  0.188227  0.551871  0  4.261397  0
C  C70  1  0.77793814  0.88618335  0.28755029  1  0  0.625443  0  3.968182  0  0  0.575067  0  4.259242  0  0  0.609597  0  4.254533  0  0  0.188234  0.551813  0  4.261456  0
C  C71  1  0.27793673  0.61381794  0.21245087  1  0  0.625503  0  3.968272  0  0  0.575161  0  4.25931  0  0  0.609692  0  4.254599  0  0  0.18829  0.5519  0  4.261533  0
C  C72  1  0.86286237  0.86763921  0.85977367  1  0  0.656751  0  3.937163  0  0  0.603036  0  4.233481  0  0  0.639145  0  4.224855  0  0  0.203203  0.578519  0  4.238555  0
C  C73  1  0.36286001  0.63236040  0.64022532  1  0  0.656672  0  3.937224  0  0  0.602945  0  4.233552  0  0  0.639055  0  4.224929  0  0  0.203206  0.578418  0  4.238631  0
C  C74  1  0.13713899  0.13236174  0.14022619  1  0  0.656733  0  3.937243  0  0  0.603006  0  4.233562  0  0  0.639115  0  4.22494  0  0  0.203221  0.578485  0  4.23864  0
C  C75  1  0.63713932  0.36763775  0.35977452  1  0  0.656697  0  3.937282  0  0  0.602985  0  4.233581  0  0  0.639095  0  4.224959  0  0  0.203216  0.578456  0  4.238666  0
Br  Br76  1  0.34710144  0.96617010  0.29707847  1  0  -0.02641  0  1.323698  0  0  -0.019889  0  1.581853  0  0  -0.026051  0  1.578779  0  0  0.065784  -0.015344  0  1.583989  0
Br  Br77  1  0.84710099  0.53382930  0.20292066  1  0  -0.026415  0  1.323684  0  0  -0.019902  0  1.581828  0  0  -0.026066  0  1.578754  0  0  0.065788  -0.015348  0  1.583969  0
Br  Br78  1  0.65289889  0.03382899  0.70292088  1  0  -0.026415  0  1.32368  0  0  -0.01991  0  1.581819  0  0  -0.026072  0  1.578745  0  0  0.06577  -0.015373  0  1.583951  0
Br  Br79  1  0.15289935  0.46617072  0.79708044  1  0  -0.0264  0  1.32368  0  0  -0.019891  0  1.581817  0  0  -0.026054  0  1.578742  0  0  0.06578  -0.015355  0  1.583951  0
Br  Br80  1  0.01233690  0.72619365  0.45084891  1  0  0.012324  0  1.369987  0  0  0.02014  0  1.63988  0  0  0.016171  0  1.632831  0  0  0.078794  0.022798  0  1.644556  0
Br  Br81  1  0.51233654  0.77380682  0.04914993  1  0  0.012329  0  1.370033  0  0  0.020136  0  1.639943  0  0  0.016163  0  1.632901  0  0  0.078795  0.022802  0  1.644621  0
Br  Br82  1  0.98766344  0.27380636  0.54915069  1  0  0.012311  0  1.370008  0  0  0.020128  0  1.639904  0  0  0.016157  0  1.632857  0  0  0.078785  0.022787  0  1.644575  0
Br  Br83  1  0.48766380  0.22619320  0.95084968  1  0  0.012329  0  1.370058  0  0  0.020146  0  1.639962  0  0  0.016175  0  1.632917  0  0  0.078795  0.02281  0  1.644643  0
N  N84  1  0.46762592  0.24607646  0.56242913  1  0  -0.30397  0  3.252027  0  0  -0.221963  0  3.517574  0  0  -0.243051  0  3.536123  0  0  -0.321866  -0.207472  0  3.504463  0
N  N85  1  0.96762418  0.25392404  0.93757150  1  0  -0.303973  0  3.252119  0  0  -0.221973  0  3.517674  0  0  -0.243059  0  3.536222  0  0  -0.321881  -0.207479  0  3.50456  0
N  N86  1  0.53237645  0.75392355  0.43757122  1  0  -0.304025  0  3.25216  0  0  -0.222024  0  3.517715  0  0  -0.24311  0  3.53626  0  0  -0.321924  -0.207536  0  3.504613  0
N  N87  1  0.03237515  0.74607598  0.06242885  1  0  -0.30394  0  3.252123  0  0  -0.221946  0  3.517684  0  0  -0.243032  0  3.536231  0  0  -0.321881  -0.20746  0  3.504591  0
N  N88  1  0.75589006  0.59138901  0.62995944  1  0  -0.319911  0  3.272312  0  0  -0.238271  0  3.542852  0  0  -0.259683  0  3.561146  0  0  -0.324859  -0.223645  0  3.529966  0
N  N89  1  0.25588843  0.90861159  0.87004062  1  0  -0.319903  0  3.272212  0  0  -0.238268  0  3.542766  0  0  -0.259678  0  3.561055  0  0  -0.324839  -0.223645  0  3.529882  0
N  N90  1  0.24411129  0.40861101  0.37003942  1  0  -0.319871  0  3.272182  0  0  -0.238261  0  3.542727  0  0  -0.259673  0  3.56102  0  0  -0.32484  -0.223643  0  3.529848  0
N  N91  1  0.74411089  0.09138750  0.12995799  1  0  -0.319858  0  3.272285  0  0  -0.238219  0  3.542832  0  0  -0.25963  0  3.561122  0  0  -0.324835  -0.223598  0  3.529948  0
O  O92  1  0.26232791  0.17748612  0.80483633  1  0  -0.651326  0  2.038885  0  0  -0.587125  0  2.295136  0  0  -0.617397  0  2.286591  0  0  -0.337218  -0.565771  0  2.30003  0
O  O93  1  0.76232638  0.32251260  0.69516244  1  0  -0.651341  0  2.038857  0  0  -0.587159  0  2.295104  0  0  -0.61743  0  2.286559  0  0  -0.337234  -0.565807  0  2.300004  0
O  O94  1  0.73767243  0.82251203  0.19516128  1  0  -0.651325  0  2.038671  0  0  -0.587125  0  2.294944  0  0  -0.617397  0  2.286401  0  0  -0.337218  -0.565772  0  2.299841  0
O  O95  1  0.23767396  0.67748742  0.30483791  1  0  -0.651374  0  2.038855  0  0  -0.587181  0  2.295107  0  0  -0.617452  0  2.286562  0  0  -0.33724  -0.565826  0  2.300004  0
O  O96  1  0.80800002  0.83011741  0.93032745  1  0  -0.648151  0  2.027377  0  0  -0.581879  0  2.283511  0  0  -0.611315  0  2.271903  0  0  -0.328269  -0.561074  0  2.29038  0
O  O97  1  0.30799974  0.66988316  0.56967332  1  0  -0.648137  0  2.027421  0  0  -0.581869  0  2.283574  0  0  -0.611307  0  2.271965  0  0  -0.328294  -0.561064  0  2.290437  0
O  O98  1  0.19200032  0.16988261  0.06967365  1  0  -0.648147  0  2.027433  0  0  -0.581883  0  2.283591  0  0  -0.611317  0  2.271983  0  0  -0.328299  -0.561077  0  2.290457  0
O  O99  1  0.69199958  0.33011685  0.43032628  1  0  -0.648148  0  2.027471  0  0  -0.58189  0  2.283626  0  0  -0.611325  0  2.272017  0  0  -0.32831  -0.561079  0  2.29049  0
O  O100  1  0.12474475  0.03690125  0.69451602  1  0  -0.632127  0  1.932025  0  0  -0.578195  0  2.165387  0  0  -0.605191  0  2.155517  0  0  -0.328988  -0.559004  0  2.171069  0
O  O101  1  0.62474409  0.46309940  0.80548334  1  0  -0.632172  0  1.931956  0  0  -0.578232  0  2.165299  0  0  -0.605228  0  2.15543  0  0  -0.328972  -0.559041  0  2.170983  0
O  O102  1  0.87525356  0.96309784  0.30548333  1  0  -0.632133  0  1.932153  0  0  -0.578206  0  2.165512  0  0  -0.605202  0  2.155639  0  0  -0.328987  -0.559008  0  2.171183  0
O  O103  1  0.37525422  0.53690061  0.19451627  1  0  -0.632158  0  1.932102  0  0  -0.578232  0  2.165453  0  0  -0.605229  0  2.155579  0  0  -0.329012  -0.559034  0  2.17113  0
O  O104  1  0.92438712  0.96985843  0.87673264  1  0  -0.663461  0  2.063845  0  0  -0.603808  0  2.337706  0  0  -0.631627  0  2.323897  0  0  -0.33843  -0.584202  0  2.346635  0
O  O105  1  0.42438784  0.53014209  0.62326583  1  0  -0.663396  0  2.063889  0  0  -0.603748  0  2.337772  0  0  -0.631563  0  2.323953  0  0  -0.338418  -0.584143  0  2.346701  0
O  O106  1  0.07561220  0.03014158  0.12326622  1  0  -0.663443  0  2.063868  0  0  -0.603802  0  2.337761  0  0  -0.63162  0  2.323946  0  0  -0.338428  -0.584199  0  2.34669  0
O  O107  1  0.57561148  0.46985793  0.37673378  1  0  -0.66341  0  2.063871  0  0  -0.603766  0  2.337753  0  0  -0.631577  0  2.323925  0  0  -0.338415  -0.584159  0  2.346684  0
