# generated using pymatgen
data_Cd5H28C34(N21O)2
_symmetry_space_group_name_H-M   'P 1'
_cell_length_a   8.95313496
_cell_length_b   12.04334610
_cell_length_c   14.05485133
_cell_angle_alpha   85.14054889
_cell_angle_beta   81.73858001
_cell_angle_gamma   75.66199973
_symmetry_Int_Tables_number   1
_chemical_formula_structural   Cd5H28C34(N21O)2
_chemical_formula_sum   'Cd5 H28 C34 N42 O2'
_cell_volume   1451.12450118
_cell_formula_units_Z   1
loop_
 _symmetry_equiv_pos_site_id
 _symmetry_equiv_pos_as_xyz
  1  'x, y, z'
loop_
 _atom_site_type_symbol
 _atom_site_label
 _atom_site_symmetry_multiplicity
 _atom_site_fract_x
 _atom_site_fract_y
 _atom_site_fract_z
 _atom_site_occupancy
 _atom_site_pbe_bader_charge
 _atom_site_pbe_bader_spin_density
 _atom_site_pbe_cm5_charge
 _atom_site_pbe_ddec_charge
 _atom_site_pbe_ddec_spin_density
 _atom_site_pbe_ddec_sum_bond_order
 _atom_site_pbe_magmom
Cd  Cd0  1  0.50000175  0.50000028  0.00000168  1  1.26779  0  0.803462  0.877793  0  2.239022  0
Cd  Cd1  1  0.65172929  0.56972552  0.45417522  1  1.240826  0  0.799048  0.847861  0  2.458097  0
Cd  Cd2  1  0.34826706  0.43027229  0.54582602  1  1.240891  0  0.799055  0.847889  0  2.458174  0
Cd  Cd3  1  0.05786925  0.40673091  0.39241819  1  1.225608  0  0.809169  0.835947  0  2.435201  0
Cd  Cd4  1  0.94213011  0.59327126  0.60758314  1  1.22559  0  0.809195  0.836026  0  2.435091  0
H  H5  1  0.58655429  0.72017456  0.02565852  1  0.633011  0  0.314339  0.39653  0  0.897241  0
H  H6  1  0.41344508  0.27982758  0.97433925  1  0.633025  0  0.314362  0.396526  0  0.897299  0
H  H7  1  0.71350740  0.62026117  0.06764800  1  0.642983  0  0.289549  0.377412  0  0.965651  0
H  H8  1  0.28649085  0.37974097  0.93235130  1  0.642968  0  0.289539  0.377405  0  0.965651  0
H  H9  1  0.13945998  0.23604147  0.22731757  1  0.160289  0  0.120281  0.105566  0  1.019185  0
H  H10  1  0.86054200  0.76395639  0.77267959  1  0.160546  0  0.120307  0.105592  0  1.019082  0
H  H11  1  0.85677460  0.21729837  0.48619724  1  0.117189  0  0.117123  0.083319  0  1.020933  0
H  H12  1  0.14323016  0.78270121  0.51379525  1  0.117685  0  0.117099  0.08328  0  1.020939  0
H  H13  1  0.83532975  0.01971196  0.45784852  1  0.148616  0  0.107542  0.113825  0  1.05134  0
H  H14  1  0.16467045  0.98029104  0.54214840  1  0.148578  0  0.107538  0.113797  0  1.051438  0
H  H15  1  0.97693270  0.92667793  0.30671457  1  0.123357  0  0.119571  0.134041  0  0.989536  0
H  H16  1  0.02306312  0.07331812  0.69328259  1  0.123328  0  0.119581  0.134048  0  0.989548  0
H  H17  1  0.33386210  0.99285707  0.32844041  1  0.128872  0  0.104845  0.11183  0  1.050985  0
H  H18  1  0.66614514  0.00714520  0.67156090  1  0.128892  0  0.10483  0.111754  0  1.051127  0
H  H19  1  0.46593789  0.85112366  0.44292609  1  0.120919  0  0.119514  0.091717  0  1.006678  0
H  H20  1  0.53406349  0.14887596  0.55707597  1  0.120932  0  0.119565  0.091793  0  1.006758  0
H  H21  1  0.51469751  0.58364821  0.26328742  1  0.139165  0  0.110604  0.080489  0  1.048142  0
H  H22  1  0.48531144  0.41635236  0.73671386  1  0.139133  0  0.110647  0.080512  0  1.048314  0
H  H23  1  0.37893489  0.71483820  0.14095879  1  0.137281  0  0.10525  0.10097  0  1.061826  0
H  H24  1  0.62107809  0.28515723  0.85903968  1  0.137256  0  0.105239  0.100991  0  1.061773  0
H  H25  1  0.81122520  0.13013851  0.17847714  1  0.130857  0  0.112709  0.122133  0  1.009671  0
H  H26  1  0.18877163  0.86986450  0.82152578  1  0.1309  0  0.112674  0.122095  0  1.009641  0
H  H27  1  0.59813738  0.29257199  0.14187289  1  0.151265  0  0.114826  0.08457  0  1.035264  0
H  H28  1  0.40186595  0.70742849  0.85812607  1  0.151262  0  0.11481  0.084532  0  1.035241  0
H  H29  1  0.86216743  0.39793206  0.89927025  1  0.131625  0  0.116488  0.084925  0  1.019592  0
H  H30  1  0.13782780  0.60206573  0.10072896  1  0.131595  0  0.116484  0.084854  0  1.019664  0
H  H31  1  0.09068453  0.23944180  0.92676758  1  0.118669  0  0.11041  0.118793  0  1.015073  0
H  H32  1  0.90931235  0.76055773  0.07323205  1  0.118745  0  0.110419  0.118803  0  1.015065  0
C  C33  1  0.07270027  0.18552790  0.27643469  1  0.505628  0  0.051821  0.012959  0  3.91562  0
C  C34  1  0.92729095  0.81447497  0.72356023  1  0.505715  0  0.051837  0.012943  0  3.915604  0
C  C35  1  0.91591498  0.17478746  0.42107508  1  0.480681  0  0.052367  0.095507  0  3.934325  0
C  C36  1  0.08409208  0.82520878  0.57892601  1  0.48076  0  0.052456  0.095526  0  3.934483  0
C  C37  1  0.90511487  0.06449025  0.40555412  1  0.022226  0  -0.071775  -0.095808  0  3.950355  0
C  C38  1  0.09489303  0.93550684  0.59444469  1  0.021994  0  -0.071836  -0.09574  0  3.950513  0
C  C39  1  0.98153978  0.01321715  0.32117292  1  -0.020722  0  -0.05402  -0.097728  0  3.89234  0
C  C40  1  0.01846137  0.98677983  0.67882367  1  -0.020256  0  -0.054051  -0.097839  0  3.892429  0
C  C41  1  0.06464935  0.07630766  0.25545659  1  0.296393  0  0.099755  0.129683  0  4.027359  0
C  C42  1  0.93535405  0.92368937  0.74454263  1  0.295955  0  0.099822  0.129763  0  4.027397  0
C  C43  1  0.37090991  0.90353510  0.30947174  1  -0.0227  0  -0.079703  -0.158712  0  3.924525  0
C  C44  1  0.62909372  0.09646453  0.69052868  1  -0.022836  0  -0.079734  -0.158671  0  3.924544  0
C  C45  1  0.44657849  0.82358440  0.37478609  1  0.48142  0  0.047164  0.105738  0  3.926438  0
C  C46  1  0.55342123  0.17641345  0.62521412  1  0.481408  0  0.047159  0.105716  0  3.926304  0
C  C47  1  0.47594712  0.67533490  0.27424017  1  0.456955  0  0.039737  0.095924  0  3.960358  0
C  C48  1  0.52404804  0.32466638  0.72576375  1  0.456979  0  0.039677  0.095929  0  3.960351  0
C  C49  1  0.40082274  0.74907574  0.20536025  1  0.016546  0  -0.080432  -0.158191  0  3.957417  0
C  C50  1  0.59918308  0.25092737  0.79463969  1  0.016512  0  -0.080434  -0.158223  0  3.957371  0
C  C51  1  0.34700373  0.86601983  0.22224947  1  -0.026796  0  0.016349  0.072582  0  4.003525  0
C  C52  1  0.65300523  0.13398071  0.77774826  1  -0.026562  0  0.016387  0.072675  0  4.003377  0
C  C53  1  0.26783782  0.94159986  0.14852806  1  0.938745  0  0.226278  0.221782  0  3.972947  0
C  C54  1  0.73216723  0.05839889  0.85146803  1  0.938651  0  0.226219  0.221606  0  3.972877  0
C  C55  1  0.10586628  0.07712900  0.07465030  1  0.919859  0  0.22508  0.212987  0  3.976136  0
C  C56  1  0.89413546  0.92286624  0.92534353  1  0.919585  0  0.225033  0.212848  0  3.97626  0
C  C57  1  0.97273356  0.17124199  0.05632615  1  -0.023619  0  0.016781  0.069511  0  3.99791  0
C  C58  1  0.02727066  0.82875593  0.94367436  1  -0.023443  0  0.016878  0.069727  0  3.998015  0
C  C59  1  0.83066673  0.18721381  0.11637190  1  -0.017477  0  -0.074031  -0.144528  0  3.930741  0
C  C60  1  0.16933578  0.81278582  0.88363076  1  -0.017398  0  -0.073999  -0.144536  0  3.930681  0
C  C61  1  0.70838467  0.27771570  0.09518007  1  0.521083  0  0.046963  0.103188  0  3.949368  0
C  C62  1  0.29161760  0.72228136  0.90482424  1  0.521098  0  0.046978  0.103278  0  3.949327  0
C  C63  1  0.85531991  0.33633964  0.96012735  1  0.454324  0  0.048227  0.102454  0  3.942956  0
C  C64  1  0.14467414  0.66366158  0.03987241  1  0.454299  0  0.048276  0.102618  0  3.943224  0
C  C65  1  0.98332777  0.24747562  0.97579440  1  -0.025409  0  -0.075352  -0.145736  0  3.905492  0
C  C66  1  0.01666853  0.75252563  0.02420515  1  -0.025542  0  -0.075385  -0.145835  0  3.905653  0
N  N67  1  0.99940765  0.23362773  0.35826797  1  -1.22314  0  -0.324423  -0.223225  0  3.52124  0
N  N68  1  0.00058776  0.76637609  0.64173075  1  -1.223651  0  -0.324522  -0.223242  0  3.52151  0
N  N69  1  0.49909349  0.71130302  0.35773323  1  -1.240466  0  -0.331588  -0.25079  0  3.500175  0
N  N70  1  0.50089920  0.28869560  0.64226686  1  -1.240383  0  -0.331569  -0.250835  0  3.499851  0
N  N71  1  0.30728893  0.93180830  0.05411962  1  -0.653977  0  -0.221655  -0.238665  0  3.192573  0
N  N72  1  0.69272370  0.06819139  0.94587428  1  -0.65383  0  -0.221678  -0.238671  0  3.192592  0
N  N73  1  0.20697007  0.01686963  0.00807434  1  -0.650957  0  -0.220266  -0.232262  0  3.191889  0
N  N74  1  0.79303729  0.98312571  0.99192181  1  -0.650789  0  -0.220157  -0.23205  0  3.191799  0
N  N75  1  0.14058669  0.03268350  0.16516026  1  -1.230689  0  -0.210005  -0.097627  0  3.694336  0
N  N76  1  0.85941754  0.96731439  0.83483669  1  -1.230963  0  -0.210052  -0.097666  0  3.694473  0
N  N77  1  0.71968977  0.35193413  0.01893528  1  -1.232974  0  -0.331283  -0.255999  0  3.522391  0
N  N78  1  0.28030575  0.64806284  0.98106895  1  -1.232974  0  -0.331366  -0.256175  0  3.522803  0
N  N79  1  0.20848100  0.40310360  0.24298210  1  -0.202694  0  -0.271241  -0.480224  0  2.898295  0
N  N80  1  0.79151440  0.59690024  0.75701875  1  -0.202421  0  -0.271197  -0.480214  0  2.898603  0
N  N81  1  0.31151078  0.44176072  0.20378132  1  -0.325542  0  0.091148  0.452141  0  4.514814  0
N  N82  1  0.68848912  0.55824318  0.79621911  1  -0.325783  0  0.091125  0.45217  0  4.515082  0
N  N83  1  0.41556661  0.47950344  0.16425193  1  -0.180013  0  -0.263592  -0.479128  0  2.892593  0
N  N84  1  0.58443305  0.52049789  0.83575157  1  -0.180161  0  -0.263609  -0.479182  0  2.892572  0
N  N85  1  0.83785094  0.57439672  0.16088650  1  -0.095538  0  -0.187561  -0.395657  0  2.691477  0
N  N86  1  0.16214440  0.42561058  0.83911622  1  -0.095594  0  -0.187557  -0.395725  0  2.691202  0
N  N87  1  0.84416960  0.55143621  0.24276291  1  -0.296914  0  0.096842  0.450267  0  4.493346  0
N  N88  1  0.15582327  0.44856844  0.75723527  1  -0.297033  0  0.096827  0.450325  0  4.493281  0
N  N89  1  0.85196303  0.52842290  0.32692655  1  -0.291567  0  -0.328125  -0.536479  0  3.118762  0
N  N90  1  0.14803445  0.47157493  0.67307458  1  -0.291491  0  -0.328137  -0.536532  0  3.118999  0
N  N91  1  0.75884639  0.70190007  0.51631487  1  -0.280699  0  -0.343832  -0.560629  0  3.122346  0
N  N92  1  0.24114990  0.29810122  0.48368966  1  -0.280786  0  -0.343792  -0.560555  0  3.122325  0
N  N93  1  0.72033098  0.80467831  0.52185570  1  -0.401937  0  0.083891  0.426154  0  4.503747  0
N  N94  1  0.27966643  0.19532297  0.47814517  1  -0.401916  0  0.083894  0.426118  0  4.503594  0
N  N95  1  0.68549277  0.90399204  0.52763320  1  -0.006599  0  -0.181845  -0.372092  0  2.636546  0
N  N96  1  0.31450660  0.09601011  0.47236529  1  -0.006539  0  -0.181871  -0.372108  0  2.636467  0
N  N97  1  0.53525163  0.42921853  0.41471244  1  -0.363896  0  -0.350746  -0.579079  0  3.116754  0
N  N98  1  0.46473851  0.57078092  0.58528853  1  -0.363913  0  -0.350676  -0.578964  0  3.116851  0
N  N99  1  0.57650583  0.34600660  0.36624943  1  -0.320173  0  0.082621  0.431451  0  4.49029  0
N  N100  1  0.42348432  0.65399286  0.63375154  1  -0.319951  0  0.082538  0.431229  0  4.490532  0
N  N101  1  0.61344561  0.26582609  0.31991025  1  -0.000534  0  -0.184921  -0.36267  0  2.594436  0
N  N102  1  0.38654536  0.73417424  0.68008986  1  -0.00079  0  -0.18491  -0.362547  0  2.59453  0
N  N103  1  0.86799110  0.44019804  0.54001082  1  -0.369206  0  -0.338488  -0.574804  0  3.079237  0
N  N104  1  0.13200241  0.55980147  0.45999197  1  -0.369307  0  -0.338562  -0.574917  0  3.079233  0
N  N105  1  0.88065524  0.35767332  0.59710307  1  -0.321364  0  0.079662  0.421966  0  4.47765  0
N  N106  1  0.11934223  0.64232452  0.40289949  1  -0.321357  0  0.079641  0.421954  0  4.477496  0
N  N107  1  0.89617145  0.27848143  0.65117653  1  -0.002249  0  -0.174071  -0.348025  0  2.602027  0
N  N108  1  0.10383142  0.72151388  0.34882360  1  -0.002152  0  -0.173983  -0.34792  0  2.601946  0
O  O109  1  0.64722749  0.64209429  0.01490287  1  -1.250403  0  -0.57873  -0.745076  0  2.021764  0
O  O110  1  0.35277105  0.35790699  0.98509647  1  -1.250387  0  -0.578745  -0.745058  0  2.021801  0
