# generated using pymatgen
data_ErCuH15C16N2O13
_symmetry_space_group_name_H-M   'P 1'
_cell_length_a   10.57116371
_cell_length_b   13.96811960
_cell_length_c   19.16134922
_cell_angle_alpha   90.00017384
_cell_angle_beta   99.87426645
_cell_angle_gamma   89.99976977
_symmetry_Int_Tables_number   1
_chemical_formula_structural   ErCuH15C16N2O13
_chemical_formula_sum   'Er4 Cu4 H60 C64 N8 O52'
_cell_volume   2787.43826655
_cell_formula_units_Z   4
loop_
 _symmetry_equiv_pos_site_id
 _symmetry_equiv_pos_as_xyz
  1  'x, y, z'
loop_
 _atom_site_type_symbol
 _atom_site_label
 _atom_site_symmetry_multiplicity
 _atom_site_fract_x
 _atom_site_fract_y
 _atom_site_fract_z
 _atom_site_occupancy
 _atom_site_pbe_bader_charge
 _atom_site_pbe_bader_spin_density
 _atom_site_pbe_cm5_charge
 _atom_site_pbe_ddec_charge
 _atom_site_pbe_ddec_spin_density
 _atom_site_pbe_ddec_sum_bond_order
 _atom_site_pbe_magmom
Er  Er0  1  0.15465849  0.06568048  0.55637613  1  2.154362  -0.00012  1.496529  2.035913  -0.000141  2.096739  0.0
Er  Er1  1  0.84531063  0.56566592  0.94361764  1  2.154124  0.000104  1.496472  2.035836  0.000114  2.096987  0.0
Er  Er2  1  0.84540023  0.93433226  0.44362206  1  2.154287  0.000137  1.496651  2.036186  0.000146  2.096622  0.0
Er  Er3  1  0.15459062  0.43431890  0.05637036  1  2.154501  0.000151  1.496455  2.036065  0.000165  2.096613  0.0
Cu  Cu4  1  0.75515826  0.06569936  0.78277666  1  1.067986  0.55489  0.74407  0.777479  0.728578  2.182739  0.554
Cu  Cu5  1  0.24485598  0.56569501  0.71721199  1  1.067871  -0.554922  0.744179  0.777663  -0.768663  2.182872  -0.554
Cu  Cu6  1  0.24486589  0.93430551  0.21722140  1  1.068057  0.555908  0.744338  0.777886  0.729978  2.182691  0.555
Cu  Cu7  1  0.75515857  0.43430055  0.28278203  1  1.068231  0.555907  0.744305  0.777908  0.729982  2.182401  0.555
H  H8  1  0.76650577  0.25506138  0.83986514  1  0.160961  0.001961  0.121742  0.093077  0.000954  1.038097  0.002
H  H9  1  0.12284907  0.25294084  0.70724362  1  0.118024  0.00093  0.11518  0.129595  0.000508  1.020321  0.001
H  H10  1  0.98566829  0.11124114  0.71284982  1  0.186353  0.00172  0.127771  0.11372  0.000793  1.024785  0.001
H  H11  1  0.21846199  0.39635353  0.62817484  1  0.143568  -0.001906  0.126335  0.111737  -0.000956  0.988188  -0.002
H  H12  1  0.62245474  0.34739964  0.79334460  1  0.131941  -0.000983  0.109871  0.126117  -0.000527  1.047224  -0.001
H  H13  1  0.74176942  0.09934848  0.94452957  1  0.607178  -5.5e-05  0.325833  0.403939  -1.3e-05  0.881363  0.0
H  H14  1  0.88763064  0.10490591  0.94437081  1  0.608784  -7.3e-05  0.327762  0.409087  -1.9e-05  0.872651  0.0
H  H15  1  0.50372143  0.50035955  0.78592098  1  0.135955  -0.002149  0.125321  0.105096  -0.001103  1.011433  -0.001
H  H16  1  0.44272849  0.07130290  0.58582439  1  0.670774  9.6e-05  0.309404  0.416753  0.000122  0.899451  0.0
H  H17  1  0.40678937  0.06403123  0.50358690  1  0.617289  1.5e-05  0.332487  0.415109  1e-05  0.868895  0.0
H  H18  1  0.17271970  0.10215962  0.39625392  1  0.672773  -6.4e-05  0.293846  0.412165  -3.8e-05  0.922715  0.0
H  H19  1  0.20261507  0.18905328  0.45284041  1  0.647557  -2e-06  0.323359  0.423144  -3e-06  0.8715  0.0
H  H20  1  0.71708665  0.18248975  0.48613564  1  0.079916  2e-06  0.105743  0.164243  2e-06  0.99119  0.0
H  H21  1  0.77868246  0.26241896  0.55859375  1  0.029608  -1.3e-05  0.095153  0.144974  -9e-06  0.996707  0.0
H  H22  1  0.72005473  0.14647005  0.57503369  1  0.084264  -1.5e-05  0.10838  0.180043  -1.7e-05  0.984491  0.0
H  H23  1  0.23350374  0.75507187  0.66012765  1  0.160715  -0.001962  0.121696  0.093038  -0.001015  1.037997  -0.002
H  H24  1  0.87716334  0.75292698  0.79275883  1  0.117939  -0.00093  0.115229  0.129638  -0.000533  1.020212  -0.001
H  H25  1  0.01434382  0.61123278  0.78713506  1  0.186293  -0.001718  0.127772  0.113739  -0.000839  1.02455  -0.001
H  H26  1  0.78155359  0.89634460  0.87182353  1  0.144447  0.001905  0.126329  0.111709  0.000901  0.988216  0.002
H  H27  1  0.37755243  0.84741130  0.70665756  1  0.132172  0.000982  0.109897  0.126135  0.0005  1.047188  0.001
H  H28  1  0.25825427  0.59934986  0.55546787  1  0.607114  5.5e-05  0.325846  0.40397  1.3e-05  0.881225  0.0
H  H29  1  0.11239206  0.60490488  0.55562498  1  0.607582  7.1e-05  0.32777  0.409147  1.6e-05  0.872503  0.0
H  H30  1  0.49629312  0.00036870  0.71408217  1  0.135726  0.002149  0.125372  0.105183  0.001043  1.011364  0.001
H  H31  1  0.55722716  0.57129054  0.91416185  1  0.670407  -9.6e-05  0.309349  0.416709  -0.000127  0.899486  0.0
H  H32  1  0.59318551  0.56401480  0.99641054  1  0.61728  -1e-06  0.332389  0.414941  4e-06  0.869089  0.0
H  H33  1  0.82726215  0.60214513  0.10374422  1  0.672712  -6.1e-05  0.293911  0.412314  -3.5e-05  0.922514  0.0
H  H34  1  0.79735581  0.68903149  0.04715845  1  0.647637  -2e-06  0.323298  0.423069  -4e-06  0.871616  0.0
H  H35  1  0.28288137  0.68245724  0.01385876  1  0.080232  5e-06  0.105796  0.164518  1e-06  0.991147  0.0
H  H36  1  0.22130494  0.76237625  0.94140688  1  0.030103  -1e-05  0.095099  0.144939  -5e-06  0.996784  0.0
H  H37  1  0.27991881  0.64642852  0.92495703  1  0.084378  1.5e-05  0.10839  0.180192  1.5e-05  0.984408  0.0
H  H38  1  0.23350493  0.74492558  0.16013008  1  0.160617  0.002226  0.121635  0.092949  0.001096  1.038067  0.002
H  H39  1  0.87717316  0.74707691  0.29275634  1  0.118003  0.001202  0.115185  0.129539  0.000598  1.02039  0.001
H  H40  1  0.01435778  0.88877089  0.28714632  1  0.18576  0.001917  0.127692  0.113599  0.000878  1.02479  0.002
H  H41  1  0.78156025  0.60364059  0.37184025  1  0.143109  0.002286  0.126363  0.111803  0.001096  0.988106  0.002
H  H42  1  0.37757998  0.65262169  0.20666384  1  0.132536  0.000971  0.109841  0.126028  0.000509  1.047242  0.001
H  H43  1  0.25825761  0.90066354  0.05546510  1  0.607075  -5.4e-05  0.325872  0.40393  -1.4e-05  0.8813  0.0
H  H44  1  0.11240023  0.89511470  0.05563310  1  0.609258  -7.5e-05  0.327756  0.409088  -2.2e-05  0.872602  0.0
H  H45  1  0.49629984  0.49965534  0.21408307  1  0.136134  0.002268  0.125262  0.104942  0.001081  1.011405  0.001
H  H46  1  0.55730431  0.92870769  0.41418022  1  0.670621  9.9e-05  0.309499  0.417071  0.000123  0.899055  0.0
H  H47  1  0.59324918  0.93597149  0.49642713  1  0.61709  1.5e-05  0.332457  0.415126  9e-06  0.868906  0.0
H  H48  1  0.82731502  0.89786171  0.60375505  1  0.672854  -6.2e-05  0.293817  0.412121  -2.8e-05  0.922763  0.0
H  H49  1  0.79743021  0.81096662  0.54717582  1  0.648105  -2e-06  0.323319  0.4232  -3e-06  0.871445  0.0
H  H50  1  0.28297015  0.81751654  0.51386602  1  0.079651  -3e-06  0.105692  0.164321  -3e-06  0.991067  0.0
H  H51  1  0.22136858  0.73758662  0.44141415  1  0.02976  1.2e-05  0.095135  0.144885  7e-06  0.996783  0.0
H  H52  1  0.28000783  0.85352980  0.42497739  1  0.084101  -1.3e-05  0.108415  0.180072  -1.8e-05  0.984287  0.0
H  H53  1  0.76650505  0.24493872  0.33986843  1  0.160891  0.002226  0.121682  0.092964  0.001096  1.038114  0.002
H  H54  1  0.12285313  0.24706571  0.20724789  1  0.118352  0.001202  0.115131  0.129547  0.000599  1.020333  0.001
H  H55  1  0.98568225  0.38877280  0.21286317  1  0.185986  0.001917  0.127687  0.113542  0.000877  1.024903  0.002
H  H56  1  0.21845712  0.10364881  0.12817378  1  0.143589  0.002286  0.126324  0.111689  0.001096  0.988212  0.002
H  H57  1  0.62243715  0.15261504  0.29334035  1  0.132261  0.000971  0.1099  0.126121  0.000509  1.047097  0.001
H  H58  1  0.74177277  0.40065858  0.44453568  1  0.607232  -5.4e-05  0.325893  0.403979  -1.4e-05  0.88129  0.0
H  H59  1  0.88763305  0.39510070  0.44437838  1  0.608755  -7.3e-05  0.327773  0.409206  -1.9e-05  0.872503  0.0
H  H60  1  0.50371854  0.99965048  0.28591262  1  0.136051  0.002268  0.125299  0.105058  0.001081  1.011344  0.001
H  H61  1  0.44268273  0.42870430  0.08582018  1  0.670655  9.9e-05  0.309453  0.417073  0.000123  0.899061  0.0
H  H62  1  0.40674358  0.43595856  0.00358009  1  0.61721  0.0  0.33251  0.415221  -4e-06  0.868927  0.0
H  H63  1  0.17269095  0.39783682  0.89625285  1  0.673086  6.6e-05  0.293863  0.412057  3e-05  0.922837  0.0
H  H64  1  0.20258097  0.31094044  0.95284125  1  0.647726  2e-06  0.323355  0.423154  4e-06  0.871497  0.0
H  H65  1  0.71699587  0.31748534  0.98612592  1  0.07954  -1e-06  0.105728  0.164229  2e-06  0.990943  0.0
H  H66  1  0.77861647  0.23756061  0.05858564  1  0.029527  -1.1e-05  0.095038  0.144771  -7e-06  0.996891  0.0
H  H67  1  0.71996707  0.35349688  0.07501960  1  0.081686  -1.5e-05  0.108357  0.180072  -1.8e-05  0.984229  0.0
C  C68  1  0.84509610  0.25797927  0.81009650  1  0.414335  -0.000496  0.051316  0.072205  0.000204  3.933809  0.0
C  C69  1  0.91473325  0.34220596  0.80825550  1  0.044407  0.003371  -0.006846  -0.088211  0.002435  3.933572  0.003
C  C70  1  0.01913079  0.34188081  0.77167200  1  -0.100502  -0.01189  0.024033  0.026862  -0.008725  3.881839  -0.009
C  C71  1  0.04407914  0.25780424  0.73682724  1  0.081108  0.002868  -0.071003  -0.133588  0.002023  3.895868  0.003
C  C72  1  0.96777668  0.17732886  0.73977732  1  0.441733  -0.000778  0.06393  0.121487  5.7e-05  3.866001  0.0
C  C73  1  0.87690391  0.42765497  0.84685801  1  1.600266  0.000554  0.192817  0.570306  0.000403  4.243468  0.0
C  C74  1  0.11001028  0.42514671  0.77175283  1  1.635311  0.00131  0.214782  0.579347  -0.000304  4.215931  0.003
C  C75  1  0.30860256  0.38238595  0.66360544  1  0.473457  9.6e-05  0.051054  0.064206  -0.000845  3.900487  0.0
C  C76  1  0.36744175  0.29315767  0.66548096  1  0.005941  -0.002527  1.4e-05  -0.063754  -0.002014  3.926309  -0.003
C  C77  1  0.48283335  0.27768522  0.71235581  1  -0.025488  0.010466  0.016126  0.015106  0.007335  3.879155  0.008
C  C78  1  0.53375011  0.35385726  0.75543148  1  0.044339  -0.002696  -0.075276  -0.133625  -0.00206  3.907895  -0.003
C  C79  1  0.46840057  0.44057482  0.75165030  1  0.456502  0.000485  0.056963  0.109534  -0.000461  3.896193  0.0
C  C80  1  0.55254732  0.18304889  0.71332282  1  1.607297  0.000863  0.212129  0.578277  0.001943  4.202095  -0.001
C  C81  1  0.29831723  0.21404038  0.62264603  1  1.571876  -0.000832  0.18669  0.576834  -0.000611  4.285641  -0.001
C  C82  1  0.77189154  0.18807965  0.54011882  1  -0.063035  -3.2e-05  -0.238585  -0.528959  -3.2e-05  3.86936  0.0
C  C83  1  0.90313943  0.14605304  0.54220331  1  1.548446  -1.2e-05  0.217871  0.740665  -1.1e-05  4.094622  0.0
C  C84  1  0.15490861  0.75798368  0.68989688  1  0.414334  0.000495  0.051402  0.072413  -0.000412  3.933673  0.0
C  C85  1  0.08526722  0.84220916  0.69173872  1  0.044633  -0.003368  -0.006957  -0.088612  -0.002605  3.933799  -0.003
C  C86  1  0.98087064  0.84187853  0.72832491  1  -0.100674  0.011887  0.02406  0.026976  0.008282  3.881956  0.009
C  C87  1  0.95592652  0.75779932  0.76316624  1  0.081413  -0.002868  -0.07111  -0.133799  -0.002184  3.895588  -0.003
C  C88  1  0.03222936  0.67732176  0.76021080  1  0.441505  0.00078  0.063872  0.121501  -0.000266  3.864965  0.0
C  C89  1  0.12308176  0.92766075  0.65313239  1  1.599594  -0.000555  0.192763  0.570285  -0.000429  4.243601  0.0
C  C90  1  0.88999268  0.92514471  0.72824859  1  1.635281  -0.001309  0.214937  0.579746  2e-06  4.215918  -0.003
C  C91  1  0.69141212  0.88238358  0.83639125  1  0.472337  -9.3e-05  0.051073  0.064147  0.000636  3.900623  0.0
C  C92  1  0.63256759  0.79315333  0.83451399  1  0.005447  0.002528  -3e-06  -0.063701  0.001845  3.926332  0.003
C  C93  1  0.51717894  0.77768605  0.78763781  1  -0.024223  -0.010468  0.016  0.014827  -0.007727  3.879295  -0.008
C  C94  1  0.46625606  0.85386523  0.74457061  1  0.04433  0.002698  -0.075241  -0.133452  0.001914  3.907816  0.003
C  C95  1  0.53160232  0.94058690  0.74835480  1  0.456472  -0.000481  0.056791  0.109233  0.000242  3.896346  0.0
C  C96  1  0.44745389  0.68304922  0.78666537  1  1.605309  -0.000858  0.212138  0.578352  -0.00223  4.201748  0.001
C  C97  1  0.70167135  0.71402742  0.87734469  1  1.572126  0.00083  0.186882  0.577136  0.000577  4.285346  0.001
C  C98  1  0.22808277  0.68803699  0.95987258  1  -0.064545  2.4e-05  -0.238556  -0.52945  2.3e-05  3.869523  0.0
C  C99  1  0.09682835  0.64602724  0.95779155  1  1.548812  1.1e-05  0.218068  0.741048  9e-06  4.094284  0.0
C  C100  1  0.15490597  0.74201557  0.18989477  1  0.414326  -0.000572  0.051334  0.07228  0.000139  3.933959  0.0
C  C101  1  0.08526882  0.65779317  0.19174151  1  0.044375  0.008168  -0.006897  -0.088512  0.005574  3.933718  0.006
C  C102  1  0.98086456  0.65813265  0.22832228  1  -0.100011  0.005081  0.023935  0.026913  0.003665  3.881822  0.004
C  C103  1  0.95593829  0.74221637  0.26316653  1  0.080606  0.008513  -0.071084  -0.133706  0.005802  3.895751  0.006
C  C104  1  0.03225131  0.82268317  0.26022006  1  0.44256  -7.2e-05  0.063855  0.121483  0.000471  3.865494  0.0
C  C105  1  0.12306647  0.57233415  0.15313392  1  1.599555  0.000842  0.192878  0.570603  0.000592  4.243194  0.001
C  C106  1  0.88998602  0.57486532  0.22825616  1  1.635229  -0.000819  0.214664  0.579299  0.000415  4.216054  -0.003
C  C107  1  0.69143119  0.61761534  0.33640344  1  0.473342  -0.000327  0.051034  0.064024  0.000496  3.900688  0.0
C  C108  1  0.63259489  0.70684934  0.33453445  1  0.00673  0.008622  6.1e-05  -0.063576  0.005791  3.926932  0.006
C  C109  1  0.51721385  0.72232895  0.28765695  1  -0.025195  0.006067  0.015884  0.014505  0.004345  3.880037  0.005
C  C110  1  0.46627884  0.64615692  0.24458164  1  0.044325  0.007205  -0.075081  -0.13319  0.005007  3.907738  0.005
C  C111  1  0.53161399  0.55943005  0.24836354  1  0.456389  0.000498  0.057005  0.109584  0.000782  3.896342  0.0
C  C112  1  0.44748835  0.81696241  0.28669719  1  1.607533  0.001251  0.212252  0.578499  0.002259  4.202866  -0.001
C  C113  1  0.70173093  0.78596162  0.37736578  1  1.571867  0.001228  0.186532  0.576594  0.00082  4.28605  0.001
C  C114  1  0.22814894  0.81192664  0.45988600  1  -0.063035  -1.1e-05  -0.238636  -0.529072  -1.7e-05  3.869041  0.0
C  C115  1  0.09689912  0.85395111  0.45779767  1  1.551084  1.2e-05  0.218126  0.74101  1e-05  4.094624  0.0
C  C116  1  0.84510210  0.24202476  0.31010199  1  0.414321  -0.000577  0.051256  0.072203  0.000135  3.934  0.0
C  C117  1  0.91474445  0.15779642  0.30826442  1  0.04444  0.008163  -0.006892  -0.08848  0.005571  3.93359  0.006
C  C118  1  0.01914775  0.15812418  0.27167990  1  -0.100218  0.005078  0.023944  0.027017  0.003663  3.881929  0.004
C  C119  1  0.04408995  0.24220339  0.23683735  1  0.080845  0.008511  -0.071082  -0.133916  0.005804  3.895704  0.006
C  C120  1  0.96779287  0.32268525  0.23979020  1  0.442218  -7.4e-05  0.063959  0.12181  0.000468  3.865522  0.0
C  C121  1  0.87692127  0.07234841  0.34687254  1  1.599866  0.000843  0.192815  0.570501  0.000592  4.243328  0.001
C  C122  1  0.11002379  0.07485657  0.27175396  1  1.635566  -0.000811  0.214782  0.579424  0.00042  4.215633  -0.003
C  C123  1  0.30859571  0.11761197  0.16360265  1  0.473094  -0.000319  0.051143  0.064298  0.000502  3.900639  0.0
C  C124  1  0.36741527  0.20684580  0.16547494  1  0.006402  0.008624  4.9e-05  -0.063479  0.005792  3.926518  0.006
C  C125  1  0.48280104  0.22232812  0.21235032  1  -0.012986  0.00607  0.015871  0.014399  0.004349  3.879779  0.005
C  C126  1  0.53373256  0.14615897  0.25542513  1  0.032221  0.007205  -0.075045  -0.133159  0.005005  3.907592  0.005
C  C127  1  0.46840263  0.05943371  0.25164562  1  0.45661  0.000503  0.056935  0.109476  0.000785  3.896107  0.0
C  C128  1  0.55252417  0.31696638  0.21331737  1  1.607014  0.001242  0.212266  0.578504  0.002252  4.201895  -0.001
C  C129  1  0.29826734  0.28595668  0.12264946  1  1.571162  0.001228  0.186621  0.576755  0.00082  4.286002  0.001
C  C130  1  0.77182136  0.31189771  0.04010734  1  -0.060665  -2.1e-05  -0.238461  -0.528777  -2.3e-05  3.868967  0.0
C  C131  1  0.90306714  0.35392679  0.04220112  1  1.551591  1.1e-05  0.21807  0.740967  1.1e-05  4.094345  0.0
N  N132  1  0.86977007  0.17750806  0.77648041  1  -1.219145  0.080757  -0.352347  -0.238371  0.054938  3.627004  0.07
N  N133  1  0.35691155  0.45411358  0.70697155  1  -1.221009  -0.08338  -0.349823  -0.224886  -0.059799  3.637234  -0.072
N  N134  1  0.13024173  0.67750624  0.72350669  1  -1.218643  -0.080759  -0.352271  -0.238313  -0.057957  3.626538  -0.07
N  N135  1  0.64309895  0.95411334  0.79302908  1  -1.220992  0.083375  -0.349666  -0.224566  0.056688  3.637188  0.072
N  N136  1  0.13025216  0.82249609  0.22350911  1  -1.219361  0.085901  -0.352395  -0.238486  0.058294  3.626703  0.074
N  N137  1  0.64310588  0.54588985  0.29303735  1  -1.220718  0.088009  -0.349641  -0.224578  0.059707  3.637161  0.075
N  N138  1  0.86977186  0.32249791  0.27648672  1  -1.219875  0.085903  -0.352444  -0.238627  0.058291  3.62701  0.074
N  N139  1  0.35691368  0.04589153  0.20696841  1  -1.220651  0.088006  -0.349758  -0.224785  0.059706  3.637363  0.075
O  O140  1  0.77666718  0.42371263  0.87557782  1  -1.177008  -9.6e-05  -0.367317  -0.611262  -8.1e-05  2.197837  0.0
O  O141  1  0.94807784  0.50186099  0.85236586  1  -1.179749  0.000574  -0.363213  -0.601623  0.000356  2.255484  0.0
O  O142  1  0.19923996  0.43555323  0.82380022  1  -1.164676  -0.002705  -0.302438  -0.537803  -0.001575  2.181241  -0.003
O  O143  1  0.09574719  0.47543828  0.71503556  1  -1.105011  -0.102571  -0.315176  -0.523732  -0.071215  2.278808  -0.093
O  O144  1  0.27135358  0.13956447  0.65616863  1  -1.168464  -0.001138  -0.392785  -0.635675  -0.000769  2.19117  -0.001
O  O145  1  0.26340571  0.22374382  0.55641482  1  -1.167565  3.9e-05  -0.369594  -0.63271  4.7e-05  2.204747  0.0
O  O146  1  0.61001836  0.15761172  0.77543119  1  -1.112189  0.102662  -0.325607  -0.546781  0.06727  2.337333  0.093
O  O147  1  0.55364916  0.13871639  0.65648837  1  -1.182661  0.001919  -0.310814  -0.568017  0.000759  2.170308  0.002
O  O148  1  0.91433948  0.06283561  0.51458936  1  -1.217559  2e-06  -0.447052  -0.763153  -1e-06  2.381426  0.0
O  O149  1  0.00374835  0.18932015  0.57119020  1  -1.185967  -6.9e-05  -0.371819  -0.633319  -4.4e-05  2.153214  0.0
O  O150  1  0.80886759  0.07510312  0.92031790  1  -1.193413  -0.000457  -0.566625  -0.757964  -0.000254  1.945483  0.0
O  O151  1  0.38482240  0.03801640  0.54713351  1  -1.255323  0.000254  -0.601092  -0.815972  0.000165  1.985344  0.0
O  O152  1  0.15919343  0.12755829  0.44430194  1  -1.303319  -3e-05  -0.649332  -0.877999  -1e-05  2.068627  0.0
O  O153  1  0.22332234  0.92372014  0.62441293  1  -1.176566  9.6e-05  -0.367239  -0.611183  7.6e-05  2.197739  0.0
O  O154  1  0.05190406  0.00186193  0.64762011  1  -1.179829  -0.000574  -0.363073  -0.601352  -0.000383  2.255333  0.0
O  O155  1  0.80077159  0.93556347  0.67621456  1  -1.164374  0.002713  -0.302447  -0.537941  0.00141  2.181709  0.003
O  O156  1  0.90427666  0.97543576  0.78497682  1  -1.105229  0.102616  -0.315253  -0.523916  0.067502  2.278355  0.093
O  O157  1  0.72864399  0.63956059  0.84381704  1  -1.168578  0.001139  -0.392743  -0.635608  0.000729  2.19138  0.001
O  O158  1  0.73656170  0.72371241  0.94358174  1  -1.167677  -4.2e-05  -0.369803  -0.633001  -5.4e-05  2.204436  0.0
O  O159  1  0.38998009  0.65761340  0.72455981  1  -1.111405  -0.102676  -0.325648  -0.546871  -0.07102  2.337481  -0.093
O  O160  1  0.44634650  0.63871696  0.84350494  1  -1.182212  -0.001916  -0.310783  -0.568007  -0.000894  2.169938  -0.002
O  O161  1  0.08562965  0.56281497  0.98541275  1  -1.216662  3.4e-05  -0.447208  -0.763186  1.2e-05  2.38143  0.0
O  O162  1  0.99621635  0.68929003  0.92880551  1  -1.18652  7.6e-05  -0.371928  -0.633477  4.5e-05  2.153262  0.0
O  O163  1  0.19115621  0.57509980  0.57967637  1  -1.192171  0.000457  -0.566635  -0.758043  0.00022  1.945183  0.0
O  O164  1  0.61512092  0.53799972  0.95285619  1  -1.25497  -0.000238  -0.600848  -0.815645  -0.000158  1.985594  0.0
O  O165  1  0.84076813  0.62753282  0.05569173  1  -1.303286  1.7e-05  -0.649311  -0.877982  1.9e-05  2.068731  0.0
O  O166  1  0.22330800  0.57626717  0.12441822  1  -1.177339  0.000415  -0.367275  -0.611367  0.00023  2.197711  0.0
O  O167  1  0.05185029  0.49815175  0.14759963  1  -1.17904  0.001304  -0.363239  -0.60156  0.000821  2.255218  0.001
O  O168  1  0.80074002  0.56444805  0.17621505  1  -1.164544  0.002487  -0.302322  -0.537885  0.001234  2.181166  0.003
O  O169  1  0.90428080  0.52457017  0.28497121  1  -1.105138  0.102614  -0.315141  -0.523716  0.067476  2.278654  0.093
O  O170  1  0.72867441  0.86044182  0.34383449  1  -1.16933  0.001283  -0.392851  -0.635627  0.000793  2.191151  0.001
O  O171  1  0.73667317  0.77626748  0.44359415  1  -1.167627  0.001105  -0.369306  -0.632472  0.000673  2.204996  0.001
O  O172  1  0.38999715  0.84239529  0.22459057  1  -1.112353  0.102569  -0.325602  -0.546719  0.067196  2.337677  0.093
O  O173  1  0.44638651  0.86128919  0.34353425  1  -1.183091  0.00187  -0.31081  -0.56803  0.000702  2.170563  0.001
O  O174  1  0.08571924  0.93717427  0.48540361  1  -1.217617  1e-05  -0.447033  -0.763094  7e-06  2.381383  0.0
O  O175  1  0.99628157  0.81069617  0.42882040  1  -1.188126  5.9e-05  -0.372042  -0.633635  3.9e-05  2.15344  0.0
O  O176  1  0.19117288  0.92491105  0.07968379  1  -1.193779  -0.000439  -0.56663  -0.757934  -0.000249  1.945475  0.0
O  O177  1  0.61521135  0.96198059  0.45287745  1  -1.255197  0.000249  -0.601154  -0.816313  0.000152  1.984875  0.0
O  O178  1  0.84085185  0.87246161  0.55570803  1  -1.303922  1.7e-05  -0.649193  -0.878005  2.1e-05  2.068576  0.0
O  O179  1  0.77668164  0.07627327  0.37559000  1  -1.176789  0.000415  -0.367299  -0.611336  0.000231  2.197809  0.0
O  O180  1  0.94812585  0.99815868  0.35239102  1  -1.179622  0.001303  -0.363219  -0.601522  0.000821  2.255312  0.001
O  O181  1  0.19925352  0.06444569  0.32379141  1  -1.164887  0.002469  -0.302317  -0.537813  0.001223  2.181409  0.003
O  O182  1  0.09574365  0.02455622  0.21503340  1  -1.105088  0.102607  -0.315288  -0.523898  0.067472  2.278317  0.093
O  O183  1  0.27132446  0.36043926  0.15616949  1  -1.168967  0.001281  -0.392847  -0.635626  0.000793  2.191214  0.001
O  O184  1  0.26332034  0.27624233  0.05641696  1  -1.167221  0.001111  -0.369335  -0.632701  0.00068  2.205017  0.001
O  O185  1  0.61001621  0.34238860  0.27542413  1  -1.111984  0.102595  -0.325511  -0.546671  0.067214  2.337343  0.093
O  O186  1  0.55362004  0.36130365  0.15647932  1  -1.182781  0.001869  -0.310873  -0.568041  0.000702  2.169885  0.001
O  O187  1  0.91423799  0.43714837  0.01458773  1  -1.217549  3.9e-05  -0.446978  -0.763121  2.5e-05  2.381062  0.0
O  O188  1  0.00368490  0.31067689  0.07118667  1  -1.188298  6.2e-05  -0.371996  -0.633689  4.2e-05  2.153118  0.0
O  O189  1  0.80886890  0.42490220  0.42032387  1  -1.193456  -0.00044  -0.566677  -0.758125  -0.000248  1.945324  0.0
O  O190  1  0.38476880  0.46197293  0.04712445  1  -1.255273  0.000232  -0.601154  -0.816379  0.000138  1.985001  0.0
O  O191  1  0.15915904  0.37243624  0.94429924  1  -1.30382  5.7e-05  -0.649267  -0.877846  1.9e-05  2.068684  0.0
