# generated using pymatgen
data_AlH37C23O2
_symmetry_space_group_name_H-M   'P 1'
_cell_length_a   8.82630257
_cell_length_b   11.78477541
_cell_length_c   12.41062115
_cell_angle_alpha   67.07234526
_cell_angle_beta   73.37355521
_cell_angle_gamma   77.98180028
_symmetry_Int_Tables_number   1
_chemical_formula_structural   AlH37C23O2
_chemical_formula_sum   'Al2 H74 C46 O4'
_cell_volume   1132.34285899
_cell_formula_units_Z   2
loop_
 _symmetry_equiv_pos_site_id
 _symmetry_equiv_pos_as_xyz
  1  'x, y, z'
loop_
 _atom_site_type_symbol
 _atom_site_label
 _atom_site_symmetry_multiplicity
 _atom_site_fract_x
 _atom_site_fract_y
 _atom_site_fract_z
 _atom_site_occupancy
 _atom_site_hle17_bader_spin_density
 _atom_site_hle17_ddec_charge
 _atom_site_hle17_ddec_spin_density
 _atom_site_hle17_ddec_sum_bond_order
 _atom_site_hle17_magmom
 _atom_site_hse06_10hf_bader_spin_density
 _atom_site_hse06_10hf_ddec_charge
 _atom_site_hse06_10hf_ddec_spin_density
 _atom_site_hse06_10hf_ddec_sum_bond_order
 _atom_site_hse06_10hf_magmom
 _atom_site_hse06_bader_spin_density
 _atom_site_hse06_ddec_charge
 _atom_site_hse06_ddec_spin_density
 _atom_site_hse06_ddec_sum_bond_order
 _atom_site_hse06_magmom
 _atom_site_pbe_bader_spin_density
 _atom_site_pbe_cm5_charge
 _atom_site_pbe_ddec_charge
 _atom_site_pbe_ddec_spin_density
 _atom_site_pbe_ddec_sum_bond_order
 _atom_site_pbe_magmom
Al  Al0  1  0.11561106  0.35853505  0.25724556  1  0  1.286697  0  2.489769  0  0  1.129993  0  2.879097  0  0  1.157414  0  2.852535  0  0  0.280917  1.110472  0  2.897569  0
Al  Al1  1  0.88439360  0.64146548  0.74275288  1  0  1.286732  0  2.489757  0  0  1.130023  0  2.878972  0  0  1.15744  0  2.852412  0  0  0.280916  1.110499  0  2.897453  0
H  H2  1  0.22444304  0.96853385  0.00442663  1  0  0.084567  0  0.978286  0  0  0.1  0  1.037259  0  0  0.102576  0  1.035833  0  0  0.096669  0.098297  0  1.038119  0
H  H3  1  0.77556488  0.03146018  0.99557435  1  0  0.084528  0  0.978275  0  0  0.09995  0  1.037271  0  0  0.102527  0  1.035842  0  0  0.096644  0.098249  0  1.038126  0
H  H4  1  0.51251879  0.26860035  0.83212176  1  0  0.096862  0  0.954386  0  0  0.108613  0  1.015979  0  0  0.111909  0  1.014038  0  0  0.099511  0.106658  0  1.016639  0
H  H5  1  0.48746030  0.73141414  0.16787352  1  0  0.096822  0  0.95449  0  0  0.108585  0  1.01604  0  0  0.111915  0  1.014068  0  0  0.09949  0.106634  0  1.016696  0
H  H6  1  0.80603311  0.04792233  0.28206267  1  0  0.095422  0  0.968244  0  0  0.118742  0  1.027923  0  0  0.119696  0  1.0286  0  0  0.087196  0.117888  0  1.027682  0
H  H7  1  0.19396813  0.95207727  0.71793842  1  0  0.09542  0  0.968242  0  0  0.118725  0  1.027941  0  0  0.11968  0  1.028617  0  0  0.087188  0.11787  0  1.027699  0
H  H8  1  0.85909729  0.11714605  0.12312932  1  0  0.086533  0  0.961697  0  0  0.109371  0  1.024502  0  0  0.110256  0  1.025114  0  0  0.080317  0.108775  0  1.024045  0
H  H9  1  0.14090408  0.88285263  0.87687208  1  0  0.086505  0  0.961735  0  0  0.109358  0  1.024517  0  0  0.110236  0  1.025137  0  0  0.080313  0.108762  0  1.02406  0
H  H10  1  0.90017053  0.18590940  0.21561076  1  0  0.101882  0  0.983097  0  0  0.119885  0  1.050384  0  0  0.12183  0  1.050056  0  0  0.087802  0.118436  0  1.050646  0
H  H11  1  0.09983595  0.81408648  0.78439063  1  0  0.101895  0  0.983047  0  0  0.119881  0  1.050364  0  0  0.121839  0  1.050031  0  0  0.087786  0.118437  0  1.05062  0
H  H12  1  0.01211445  0.92978602  0.40031446  1  0  0.095287  0  0.970244  0  0  0.118137  0  1.031263  0  0  0.118985  0  1.032216  0  0  0.085576  0.117499  0  1.030518  0
H  H13  1  0.98789060  0.07021171  0.59968735  1  0  0.095368  0  0.970114  0  0  0.118141  0  1.031232  0  0  0.118993  0  1.03218  0  0  0.085563  0.117504  0  1.030487  0
H  H14  1  0.10341333  0.06835248  0.34707559  1  0  0.106094  0  0.986242  0  0  0.124332  0  1.050466  0  0  0.126734  0  1.049295  0  0  0.089062  0.122519  0  1.051345  0
H  H15  1  0.89658817  0.93164527  0.65292451  1  0  0.106071  0  0.986278  0  0  0.124325  0  1.050486  0  0  0.126729  0  1.049313  0  0  0.089072  0.122509  0  1.051365  0
H  H16  1  0.21807665  0.93101174  0.33037942  1  0  0.093319  0  0.974807  0  0  0.114069  0  1.039172  0  0  0.115203  0  1.039411  0  0  0.08316  0.113002  0  1.039315  0
H  H17  1  0.78192603  0.06898601  0.66962045  1  0  0.093336  0  0.974766  0  0  0.114101  0  1.039104  0  0  0.115236  0  1.039341  0  0  0.083185  0.113035  0  1.039246  0
H  H18  1  0.95429442  0.84718812  0.27273256  1  0  0.099913  0  0.964035  0  0  0.121874  0  1.024396  0  0  0.123243  0  1.024703  0  0  0.087587  0.120985  0  1.024054  0
H  H19  1  0.04570758  0.15280593  0.72726639  1  0  0.099876  0  0.964038  0  0  0.121842  0  1.02439  0  0  0.123211  0  1.024695  0  0  0.087573  0.120952  0  1.02405  0
H  H20  1  0.15608824  0.83593002  0.19371763  1  0  0.092514  0  0.95764  0  0  0.114555  0  1.018519  0  0  0.115736  0  1.018796  0  0  0.084536  0.113832  0  1.018285  0
H  H21  1  0.84391325  0.16406773  0.80628086  1  0  0.092519  0  0.957596  0  0  0.114531  0  1.018501  0  0  0.115714  0  1.018777  0  0  0.084516  0.113809  0  1.018266  0
H  H22  1  0.00249831  0.91219095  0.11397392  1  0  0.088045  0  0.975975  0  0  0.106865  0  1.045076  0  0  0.10784  0  1.045752  0  0  0.080836  0.106152  0  1.044733  0
H  H23  1  0.99750424  0.08780772  0.88602482  1  0  0.088064  0  0.975954  0  0  0.10689  0  1.045042  0  0  0.107865  0  1.045718  0  0  0.080845  0.106177  0  1.044698  0
H  H24  1  0.52253562  0.12989312  0.73006464  1  0  0.104365  0  0.959905  0  0  0.125991  0  1.01979  0  0  0.127505  0  1.019225  0  0  0.089964  0.124709  0  1.020482  0
H  H25  1  0.47747023  0.87010739  0.26993759  1  0  0.10441  0  0.959851  0  0  0.126003  0  1.019769  0  0  0.12754  0  1.019182  0  0  0.089975  0.124735  0  1.020448  0
H  H26  1  0.34542782  0.06158338  0.76415325  1  0  0.101563  0  0.966015  0  0  0.123291  0  1.028534  0  0  0.124213  0  1.028895  0  0  0.088152  0.122522  0  1.028467  0
H  H27  1  0.65458327  0.93841342  0.23584444  1  0  0.101547  0  0.9661  0  0  0.123254  0  1.028639  0  0  0.124177  0  1.029002  0  0  0.088177  0.122485  0  1.028572  0
H  H28  1  0.50475101  0.97503359  0.83190376  1  0  0.107156  0  0.96601  0  0  0.124733  0  1.032911  0  0  0.125127  0  1.034938  0  0  0.088475  0.124349  0  1.031573  0
H  H29  1  0.49525432  0.02497063  0.16809721  1  0  0.107089  0  0.966052  0  0  0.124705  0  1.032904  0  0  0.125102  0  1.03493  0  0  0.088478  0.124317  0  1.031572  0
H  H30  1  0.19446524  0.62297066  0.14646969  1  0  0.110595  0  0.938809  0  0  0.130541  0  0.996295  0  0  0.130847  0  0.996599  0  0  0.120483  0.130255  0  0.996156  0
H  H31  1  0.80553837  0.37702895  0.85352849  1  0  0.110602  0  0.938829  0  0  0.130532  0  0.996315  0  0  0.13084  0  0.996619  0  0  0.120497  0.130256  0  0.996166  0
H  H32  1  0.01578859  0.69745418  0.09349556  1  0  0.098702  0  0.933224  0  0  0.114112  0  1.000133  0  0  0.114747  0  1.000447  0  0  0.109052  0.113733  0  0.999806  0
H  H33  1  0.98421464  0.30254820  0.90650249  1  0  0.098726  0  0.933184  0  0  0.114106  0  1.000111  0  0  0.11474  0  1.000427  0  0  0.109043  0.113726  0  0.999784  0
H  H34  1  0.19270783  0.65630231  0.99343979  1  0  0.095255  0  0.94243  0  0  0.111613  0  1.007852  0  0  0.112156  0  1.008052  0  0  0.107288  0.111061  0  1.008097  0
H  H35  1  0.80729273  0.34369359  0.00656038  1  0  0.095253  0  0.942453  0  0  0.111597  0  1.007863  0  0  0.112139  0  1.008064  0  0  0.107285  0.111047  0  1.008104  0
H  H36  1  0.86919769  0.58632556  0.05333847  1  0  0.076347  0  0.96206  0  0  0.085191  0  1.029487  0  0  0.085244  0  1.030831  0  0  0.112074  0.08481  0  1.029209  0
H  H37  1  0.13079950  0.41367776  0.94666288  1  0  0.076421  0  0.961966  0  0  0.085246  0  1.029372  0  0  0.085297  0  1.030715  0  0  0.112091  0.084865  0  1.029093  0
H  H38  1  0.89592946  0.42143197  0.11896282  1  0  0.077331  0  0.93489  0  0  0.089083  0  0.999717  0  0  0.089733  0  0.999085  0  0  0.123667  0.088123  0  1.001142  0
H  H39  1  0.10406667  0.57857043  0.88103747  1  0  0.077322  0  0.93495  0  0  0.089048  0  0.999758  0  0  0.089695  0  0.99913  0  0  0.123662  0.088089  0  1.001181  0
H  H40  1  0.81407867  0.32545637  0.32514013  1  0  0.108694  0  1.003157  0  0  0.12447  0  1.067512  0  0  0.125877  0  1.068524  0  0  0.07617  0.124831  0  1.063918  0
H  H41  1  0.18592405  0.67454971  0.67485907  1  0  0.108692  0  1.003178  0  0  0.124475  0  1.067519  0  0  0.125882  0  1.068533  0  0  0.076165  0.124836  0  1.063925  0
H  H42  1  0.92118147  0.23184465  0.43268009  1  0  0.112725  0  1.004362  0  0  0.130986  0  1.063451  0  0  0.132001  0  1.065213  0  0  0.081306  0.130029  0  1.062387  0
H  H43  1  0.07882188  0.76815679  0.56732150  1  0  0.112759  0  1.004345  0  0  0.130992  0  1.063481  0  0  0.132007  0  1.065243  0  0  0.081313  0.130034  0  1.062418  0
H  H44  1  0.92721652  0.42298856  0.48174754  1  0  0.009144  0  0.920747  0  0  0.030422  0  0.975168  0  0  0.029808  0  0.97629  0  0  0.083914  0.030636  0  0.974513  0
H  H45  1  0.07278303  0.57701474  0.51825575  1  0  0.009198  0  0.920822  0  0  0.030446  0  0.975216  0  0  0.029837  0  0.976333  0  0  0.083936  0.030638  0  0.974586  0
H  H46  1  0.64400595  0.42468937  0.59845365  1  0  0.086705  0  0.976239  0  0  0.106114  0  1.043166  0  0  0.107369  0  1.043609  0  0  0.078961  0.105391  0  1.042757  0
H  H47  1  0.35599343  0.57530652  0.40155160  1  0  0.086732  0  0.976231  0  0  0.106149  0  1.043164  0  0  0.107404  0  1.043605  0  0  0.078968  0.105425  0  1.042757  0
H  H48  1  0.73320714  0.27183473  0.60835712  1  0  0.081702  0  0.985275  0  0  0.102154  0  1.052369  0  0  0.10308  0  1.052994  0  0  0.077832  0.101416  0  1.052141  0
H  H49  1  0.26679659  0.72816394  0.39164219  1  0  0.081767  0  0.98526  0  0  0.102218  0  1.05236  0  0  0.103141  0  1.052988  0  0  0.077859  0.101484  0  1.052128  0
H  H50  1  0.59901008  0.35019738  0.51312926  1  0  0.088475  0  0.973351  0  0  0.10825  0  1.038953  0  0  0.109783  0  1.038987  0  0  0.080059  0.107932  0  1.037137  0
H  H51  1  0.40099615  0.64980036  0.48687149  1  0  0.088409  0  0.973395  0  0  0.108247  0  1.038927  0  0  0.109781  0  1.038959  0  0  0.080056  0.107929  0  1.037113  0
H  H52  1  0.88285246  0.59031149  0.29386429  1  0  0.07953  0  0.980053  0  0  0.101733  0  1.044945  0  0  0.102949  0  1.045068  0  0  0.08071  0.100842  0  1.044935  0
H  H53  1  0.11714498  0.40968997  0.70613850  1  0  0.079502  0  0.980087  0  0  0.1017  0  1.04499  0  0  0.102914  0  1.045115  0  0  0.0807  0.100809  0  1.044978  0
H  H54  1  0.72346247  0.60548359  0.41398630  1  0  0.0921  0  0.972749  0  0  0.11476  0  1.034117  0  0  0.115414  0  1.035414  0  0  0.084297  0.11398  0  1.033774  0
H  H55  1  0.27653603  0.39451879  0.58601594  1  0  0.092085  0  0.972825  0  0  0.114728  0  1.034206  0  0  0.115381  0  1.035502  0  0  0.084293  0.113948  0  1.033863  0
H  H56  1  0.69624070  0.54161226  0.31391153  1  0  0.0913  0  0.948698  0  0  0.115296  0  1.007051  0  0  0.116094  0  1.00803  0  0  0.082716  0.114529  0  1.006583  0
H  H57  1  0.30376067  0.45838641  0.68609310  1  0  0.091335  0  0.948779  0  0  0.115325  0  1.007123  0  0  0.11612  0  1.008107  0  0  0.082719  0.114559  0  1.006653  0
H  H58  1  0.35846189  0.46603190  0.23360603  1  0  0.109285  0  1.02489  0  0  0.123015  0  1.089872  0  0  0.124051  0  1.091802  0  0  0.074167  0.121708  0  1.089607  0
H  H59  1  0.64154565  0.53396490  0.76639480  1  0  0.109256  0  1.024878  0  0  0.12301  0  1.089849  0  0  0.124044  0  1.091778  0  0  0.07416  0.121702  0  1.089585  0
H  H60  1  0.21249527  0.45801744  0.36675701  1  0  0.111324  0  1.005721  0  0  0.127098  0  1.068425  0  0  0.128378  0  1.069896  0  0  0.081561  0.126148  0  1.067557  0
H  H61  1  0.78751096  0.54198029  0.63324536  1  0  0.111299  0  1.005727  0  0  0.127055  0  1.068464  0  0  0.128332  0  1.069935  0  0  0.081538  0.126105  0  1.067595  0
H  H62  1  0.45053195  0.33086133  0.42187163  1  0  0.009338  0  0.93559  0  0  0.028772  0  0.992754  0  0  0.02823  0  0.993739  0  0  0.07986  0.029656  0  0.990521  0
H  H63  1  0.54947584  0.66913363  0.57812984  1  0  0.009376  0  0.935633  0  0  0.02877  0  0.99282  0  0  0.028227  0  0.99381  0  0  0.079862  0.029653  0  0.990587  0
H  H64  1  0.35316186  0.12783698  0.54402378  1  0  0.091189  0  0.958802  0  0  0.113583  0  1.01971  0  0  0.114787  0  1.019901  0  0  0.083646  0.112357  0  1.020087  0
H  H65  1  0.64684356  0.87215798  0.45597897  1  0  0.091188  0  0.958863  0  0  0.113597  0  1.019745  0  0  0.114797  0  1.019939  0  0  0.083642  0.112372  0  1.02012  0
H  H66  1  0.22078994  0.15279822  0.45109480  1  0  0.082002  0  0.972996  0  0  0.106378  0  1.035243  0  0  0.107653  0  1.035116  0  0  0.08755  0.10515  0  1.035547  0
H  H67  1  0.77921773  0.84719766  0.54890715  1  0  0.082035  0  0.973003  0  0  0.106409  0  1.035244  0  0  0.107682  0  1.035119  0  0  0.08757  0.105182  0  1.035547  0
H  H68  1  0.18852401  0.24481065  0.54158901  1  0  0.090195  0  0.969643  0  0  0.111919  0  1.033042  0  0  0.113076  0  1.033418  0  0  0.084933  0.111101  0  1.032772  0
H  H69  1  0.81148365  0.75518524  0.45841133  1  0  0.090181  0  0.969698  0  0  0.111915  0  1.033086  0  0  0.113073  0  1.03346  0  0  0.0849  0.111097  0  1.032816  0
H  H70  1  0.58016517  0.15527321  0.35458830  1  0  0.088063  0  0.961352  0  0  0.109951  0  1.022175  0  0  0.111159  0  1.022384  0  0  0.081749  0.109228  0  1.021294  0
H  H71  1  0.41984317  0.84472639  0.64540732  1  0  0.088047  0  0.96133  0  0  0.109943  0  1.022153  0  0  0.111152  0  1.022362  0  0  0.081736  0.109221  0  1.021271  0
H  H72  1  0.58167779  0.29631815  0.22929558  1  0  0.085446  0  0.962876  0  0  0.106564  0  1.027081  0  0  0.107422  0  1.027957  0  0  0.078442  0.105898  0  1.026239  0
H  H73  1  0.41833042  0.70368237  0.77070294  1  0  0.085391  0  0.962923  0  0  0.10653  0  1.027106  0  0  0.10739  0  1.02798  0  0  0.078449  0.105863  0  1.026266  0
H  H74  1  0.44477269  0.19081837  0.26075241  1  0  0.089519  0  0.969298  0  0  0.111963  0  1.030988  0  0  0.112926  0  1.031971  0  0  0.084579  0.111272  0  1.03016  0
H  H75  1  0.55523472  0.80917937  0.73924568  1  0  0.089478  0  0.969318  0  0  0.111938  0  1.030984  0  0  0.112905  0  1.031964  0  0  0.084566  0.111248  0  1.030157  0
C  C76  1  0.23260602  0.20068096  0.10057853  1  0  0.294333  0  3.797361  0  0  0.269218  0  4.057782  0  0  0.281879  0  4.072108  0  0  0.103704  0.260815  0  4.047405  0
C  C77  1  0.76738575  0.79931868  0.89942125  1  0  0.294332  0  3.797228  0  0  0.269178  0  4.057687  0  0  0.281835  0  4.072008  0  0  0.103688  0.260775  0  4.047314  0
C  C78  1  0.18599815  0.09102689  0.10213798  1  0  -0.080378  0  3.652615  0  0  -0.061626  0  3.885222  0  0  -0.066617  0  3.910016  0  0  -0.017255  -0.05906  0  3.868992  0
C  C79  1  0.81400360  0.90896900  0.89786759  1  0  -0.080278  0  3.652544  0  0  -0.061487  0  3.885149  0  0  -0.066475  0  3.909936  0  0  -0.01721  -0.058921  0  3.868921  0
C  C80  1  0.25777719  0.05245282  0.00447644  1  0  -0.148268  0  3.737211  0  0  -0.177496  0  3.983248  0  0  -0.177802  0  4.004313  0  0  -0.093937  -0.176935  0  3.969255  0
C  C81  1  0.74222586  0.94754216  0.99552276  1  0  -0.148301  0  3.737222  0  0  -0.177513  0  3.983264  0  0  -0.177824  0  4.004339  0  0  -0.093945  -0.176949  0  3.969269  0
C  C82  1  0.37252942  0.11486128  0.90482083  1  0  0.12831  0  3.81839  0  0  0.152371  0  4.061895  0  0  0.150929  0  4.088263  0  0  -0.024586  0.153194  0  4.044189  0
C  C83  1  0.62746921  0.88514017  0.09518253  1  0  0.128388  0  3.818105  0  0  0.152428  0  4.061641  0  0  0.150982  0  4.088027  0  0  -0.02455  0.153249  0  4.043939  0
C  C84  1  0.42176497  0.21827951  0.90624729  1  0  -0.163478  0  3.743574  0  0  -0.192884  0  3.989716  0  0  -0.193911  0  4.00917  0  0  -0.097425  -0.191806  0  3.975697  0
C  C85  1  0.57822038  0.78172385  0.09375082  1  0  -0.163626  0  3.743735  0  0  -0.193014  0  3.989866  0  0  -0.194088  0  4.009323  0  0  -0.097458  -0.191936  0  3.975847  0
C  C86  1  0.35614373  0.26062035  0.00379804  1  0  -0.039981  0  3.971533  0  0  -0.027428  0  4.212034  0  0  -0.031132  0  4.234195  0  0  -0.031902  -0.025036  0  4.196819  0
C  C87  1  0.64383140  0.73938860  0.99619687  1  0  -0.039846  0  3.971002  0  0  -0.027289  0  4.21152  0  0  -0.030988  0  4.233677  0  0  -0.031807  -0.024901  0  4.196308  0
C  C88  1  0.41309037  0.36322428  0.00416046  1  0  -0.063534  0  3.862531  0  0  -0.062572  0  4.109587  0  0  -0.060753  0  4.13488  0  0  -0.021361  -0.063738  0  4.093235  0
C  C89  1  0.58686761  0.63677177  0.99582656  1  0  -0.063489  0  3.863085  0  0  -0.062518  0  4.110115  0  0  -0.060699  0  4.135393  0  0  -0.021406  -0.063685  0  4.093772  0
C  C90  1  0.46893474  0.45218053  0.00069245  1  0  -0.07188  0  4.100234  0  0  -0.068808  0  4.35319  0  0  -0.069837  0  4.378833  0  0  -0.04666  -0.068269  0  4.336406  0
C  C91  1  0.53100307  0.54785912  0.99928102  1  0  -0.072029  0  4.101732  0  0  -0.068997  0  4.354684  0  0  -0.070016  0  4.380302  0  0  -0.046808  -0.068464  0  4.337917  0
C  C92  1  0.05942522  0.01884483  0.20627477  1  0  0.228911  0  3.569039  0  0  0.26655  0  3.783819  0  0  0.267966  0  3.803514  0  0  -0.009647  0.265485  0  3.770547  0
C  C93  1  0.94057628  0.98115292  0.79372614  1  0  0.228815  0  3.568907  0  0  0.266377  0  3.783804  0  0  0.267783  0  3.803533  0  0  -0.009671  0.265312  0  3.770533  0
C  C94  1  0.89677677  0.09784279  0.20625909  1  0  -0.337703  0  3.65542  0  0  -0.417797  0  3.887879  0  0  -0.42136  0  3.899059  0  0  -0.243078  -0.415024  0  3.880163  0
C  C95  1  0.10322709  0.90215495  0.79374215  1  0  -0.337689  0  3.655415  0  0  -0.417749  0  3.887876  0  0  -0.421322  0  3.899046  0  0  -0.243079  -0.414978  0  3.880166  0
C  C96  1  0.10127846  0.98556094  0.32820758  1  0  -0.339079  0  3.640431  0  0  -0.418557  0  3.871456  0  0  -0.42175  0  3.881096  0  0  -0.245932  -0.415947  0  3.864859  0
C  C97  1  0.89872539  0.01443681  0.67179123  1  0  -0.339123  0  3.640289  0  0  -0.418563  0  3.871373  0  0  -0.421757  0  3.881009  0  0  -0.245946  -0.415952  0  3.864777  0
C  C98  1  0.04316313  0.89675205  0.19495870  1  0  -0.345575  0  3.682556  0  0  -0.424628  0  3.91684  0  0  -0.427683  0  3.927486  0  0  -0.245232  -0.422126  0  3.909216  0
C  C99  1  0.95683862  0.10324385  0.80504123  1  0  -0.345524  0  3.682514  0  0  -0.424525  0  3.91678  0  0  -0.427582  0  3.927427  0  0  -0.245177  -0.422026  0  3.909157  0
C  C100  1  0.44001385  0.06811297  0.80226536  1  0  -0.329042  0  3.724421  0  0  -0.406804  0  3.955972  0  0  -0.408857  0  3.966539  0  0  -0.240492  -0.405133  0  3.949072  0
C  C101  1  0.55999068  0.93188847  0.19773599  1  0  -0.328992  0  3.724529  0  0  -0.406721  0  3.956085  0  0  -0.408801  0  3.966631  0  0  -0.240523  -0.405062  0  3.949174  0
C  C102  1  0.12129794  0.63004088  0.08595226  1  0  -0.064464  0  3.544964  0  0  -0.165215  0  3.798605  0  0  -0.158653  0  3.802381  0  0  -0.118069  -0.169794  0  3.796349  0
C  C103  1  0.87870199  0.36995965  0.91404795  1  0  -0.064507  0  3.544992  0  0  -0.165173  0  3.798541  0  0  -0.158611  0  3.802321  0  0  -0.118056  -0.16976  0  3.796277  0
C  C104  1  0.95666286  0.50401001  0.06112158  1  0  0.056022  0  3.557189  0  0  -0.004632  0  3.811385  0  0  0.002437  0  3.816086  0  0  -0.049875  -0.01011  0  3.810198  0
C  C105  1  0.04333315  0.49599331  0.93888001  1  0  0.055914  0  3.55727  0  0  -0.004576  0  3.8113  0  0  0.002499  0  3.816003  0  0  -0.049848  -0.010056  0  3.810115  0
C  C106  1  0.90494838  0.32802050  0.36962491  1  0  -0.725487  0  3.6348  0  0  -0.7339  0  3.8755  0  0  -0.745357  0  3.886238  0  0  -0.274814  -0.726141  0  3.866452  0
C  C107  1  0.09505497  0.67198095  0.63037668  1  0  -0.725519  0  3.634922  0  0  -0.733947  0  3.875594  0  0  -0.745395  0  3.886315  0  0  -0.274788  -0.726188  0  3.866544  0
C  C108  1  0.83412622  0.41467420  0.44231839  1  0  0.196541  0  3.684817  0  0  0.210473  0  3.909445  0  0  0.212036  0  3.929685  0  0  -0.0913  0.209298  0  3.895995  0
C  C109  1  0.16587595  0.58532724  0.55768425  1  0  0.196474  0  3.685043  0  0  0.21054  0  3.90946  0  0  0.212103  0  3.929702  0  0  -0.091317  0.209377  0  3.895998  0
C  C110  1  0.69477927  0.36273050  0.54671135  1  0  -0.323151  0  3.688562  0  0  -0.398708  0  3.927006  0  0  -0.402174  0  3.938244  0  0  -0.251243  -0.395843  0  3.918316  0
C  C111  1  0.30522446  0.63726817  0.45329038  1  0  -0.323201  0  3.688611  0  0  -0.398858  0  3.927037  0  0  -0.402325  0  3.938276  0  0  -0.251289  -0.395994  0  3.918339  0
C  C112  1  0.78180036  0.54514978  0.36176236  1  0  -0.319792  0  3.684816  0  0  -0.394423  0  3.918041  0  0  -0.397393  0  3.929674  0  0  -0.245568  -0.392331  0  3.910823  0
C  C113  1  0.21819958  0.45485075  0.63824188  1  0  -0.319754  0  3.685004  0  0  -0.394396  0  3.918189  0  0  -0.397362  0  3.929826  0  0  -0.245543  -0.392303  0  3.91096  0
C  C114  1  0.27942221  0.40337391  0.30956447  1  0  -0.727847  0  3.640295  0  0  -0.731542  0  3.875536  0  0  -0.743225  0  3.886646  0  0  -0.273332  -0.724018  0  3.868934  0
C  C115  1  0.72058283  0.59662382  0.69043734  1  0  -0.727803  0  3.640214  0  0  -0.731509  0  3.875437  0  0  -0.743204  0  3.886588  0  0  -0.273345  -0.723982  0  3.868828  0
C  C116  1  0.38279675  0.29444441  0.38216834  1  0  0.197395  0  3.692368  0  0  0.212078  0  3.91676  0  0  0.213614  0  3.936882  0  0  -0.091525  0.211086  0  3.901774  0
C  C117  1  0.61720948  0.70555333  0.61783162  1  0  0.197349  0  3.692343  0  0  0.21208  0  3.916706  0  0  0.213611  0  3.936831  0  0  -0.091488  0.211089  0  3.901719  0
C  C118  1  0.28099555  0.19997421  0.48575582  1  0  -0.331648  0  3.70497  0  0  -0.408504  0  3.942259  0  0  -0.411493  0  3.953169  0  0  -0.241334  -0.406346  0  3.935281  0
C  C119  1  0.71901448  0.80002167  0.51424404  1  0  -0.331617  0  3.705013  0  0  -0.408512  0  3.942278  0  0  -0.411488  0  3.953176  0  0  -0.241279  -0.406355  0  3.935297  0
C  C120  1  0.50438265  0.23056104  0.30243625  1  0  -0.31877  0  3.693491  0  0  -0.393179  0  3.927635  0  0  -0.396347  0  3.939583  0  0  -0.246003  -0.389924  0  3.917245  0
C  C121  1  0.49562319  0.76943949  0.69756034  1  0  -0.318687  0  3.69342  0  0  -0.393146  0  3.927593  0  0  -0.396316  0  3.93954  0  0  -0.246028  -0.389892  0  3.917203  0
O  O122  1  0.16131265  0.24723957  0.18671222  1  0  -0.667714  0  2.282751  0  0  -0.582795  0  2.53318  0  0  -0.604334  0  2.525209  0  0  -0.28342  -0.567481  0  2.538076  0
O  O123  1  0.83867596  0.75275728  0.81329164  1  0  -0.667789  0  2.282714  0  0  -0.582863  0  2.533216  0  0  -0.604399  0  2.525254  0  0  -0.283493  -0.567546  0  2.538115  0
O  O124  1  0.07017378  0.50852424  0.12311842  1  0  -0.308837  0  2.48749  0  0  -0.203565  0  2.726692  0  0  -0.221183  0  2.728417  0  0  -0.164429  -0.190945  0  2.726135  0
O  O125  1  0.92981998  0.49147815  0.87688558  1  0  -0.308803  0  2.48752  0  0  -0.203583  0  2.726669  0  0  -0.221199  0  2.728389  0  0  -0.164428  -0.190963  0  2.726119  0
