# generated using pymatgen
data_CdH13C18N3O4
_symmetry_space_group_name_H-M   'P 1'
_cell_length_a   11.74782605
_cell_length_b   13.11883219
_cell_length_c   13.55276475
_cell_angle_alpha   77.67767595
_cell_angle_beta   66.42504460
_cell_angle_gamma   68.52511614
_symmetry_Int_Tables_number   1
_chemical_formula_structural   CdH13C18N3O4
_chemical_formula_sum   'Cd4 H52 C72 N12 O16'
_cell_volume   1775.98749103
_cell_formula_units_Z   4
loop_
 _symmetry_equiv_pos_site_id
 _symmetry_equiv_pos_as_xyz
  1  'x, y, z'
loop_
 _atom_site_type_symbol
 _atom_site_label
 _atom_site_symmetry_multiplicity
 _atom_site_fract_x
 _atom_site_fract_y
 _atom_site_fract_z
 _atom_site_occupancy
 _atom_site_pbe_bader_charge
 _atom_site_pbe_bader_spin_density
 _atom_site_pbe_cm5_charge
 _atom_site_pbe_ddec_charge
 _atom_site_pbe_ddec_spin_density
 _atom_site_pbe_ddec_sum_bond_order
 _atom_site_pbe_magmom
Cd  Cd0  1  0.85450809  0.44396167  0.54912805  1  1.31076  0  0.800423  0.963996  0  2.131636  0
Cd  Cd1  1  0.14549038  0.55603148  0.45086193  1  1.31066  0  0.800439  0.964038  0  2.13165  0
Cd  Cd2  1  0.74655701  0.50758042  0.27004176  1  1.275181  0  0.776241  0.904122  0  2.174103  0
Cd  Cd3  1  0.25344880  0.49243765  0.72997257  1  1.275288  0  0.776177  0.904115  0  2.174128  0
H  H4  1  0.52304998  0.19267829  0.69495981  1  0.152713  0  0.124385  0.127571  0  1.005331  0
H  H5  1  0.47691842  0.80734226  0.30505492  1  0.152617  0  0.124349  0.127534  0  1.005242  0
H  H6  1  0.60052635  0.35977261  0.54657300  1  0.207685  0  0.126962  0.139621  0  1.023897  0
H  H7  1  0.39945083  0.64023391  0.45343722  1  0.20789  0  0.126956  0.139642  0  1.023971  0
H  H8  1  0.91043159  0.06379963  0.80866855  1  0.065504  0  0.104301  0.11019  0  1.031459  0
H  H9  1  0.08959260  0.93618590  0.19130054  1  0.066001  0  0.104378  0.110327  0  1.031593  0
H  H10  1  0.10606129  0.05729344  0.84078552  1  0.082894  0  0.108757  0.104327  0  0.975028  0
H  H11  1  0.89396052  0.94270113  0.15918318  1  0.08293  0  0.108753  0.104279  0  0.975221  0
H  H12  1  0.19973077  0.21577361  0.76219178  1  0.093864  0  0.107718  0.115683  0  1.009304  0
H  H13  1  0.80025514  0.78424433  0.23780982  1  0.094002  0  0.107672  0.115638  0  1.009341  0
H  H14  1  0.08975477  0.37076065  0.65710780  1  0.152106  0  0.122362  0.101414  0  1.002454  0
H  H15  1  0.91023396  0.62924897  0.34288355  1  0.152316  0  0.122325  0.101394  0  1.002514  0
H  H16  1  0.56553865  0.11624409  0.86696382  1  0.057622  0  0.108751  0.082171  0  0.994501  0
H  H17  1  0.43446117  0.88375663  0.13304246  1  0.057564  0  0.108735  0.082113  0  0.994574  0
H  H18  1  0.70622155  0.11712548  0.88333321  1  0.039693  0  0.1094  0.08129  0  0.992143  0
H  H19  1  0.29378683  0.88288657  0.11665569  1  0.039366  0  0.109448  0.081298  0  0.992094  0
H  H20  1  0.69995648  0.96530020  0.74186416  1  0.042864  0  0.099688  0.107798  0  0.9728  0
H  H21  1  0.30003688  0.03469813  0.25814940  1  0.042904  0  0.099638  0.107713  0  0.972728  0
H  H22  1  0.84291316  0.96270803  0.75593157  1  0.061333  0  0.093576  0.095323  0  1.00625  0
H  H23  1  0.15708895  0.03729585  0.24406211  1  0.061427  0  0.093581  0.095288  0  1.006265  0
H  H24  1  0.60256392  0.92500420  0.94524534  1  0.009662  0  0.087006  0.07377  0  1.003481  0
H  H25  1  0.39744322  0.07500476  0.05476312  1  0.009521  0  0.087059  0.073759  0  1.003396  0
H  H26  1  0.75137182  0.91461021  0.95607510  1  0.005639  0  0.086878  0.076094  0  0.986694  0
H  H27  1  0.24863630  0.08540613  0.04393065  1  0.005873  0  0.086789  0.075964  0  0.986748  0
H  H28  1  0.72768025  0.76942272  0.81749044  1  0.137448  0  0.113174  0.108551  0  1.007539  0
H  H29  1  0.27233899  0.23058621  0.18251441  1  0.137546  0  0.113157  0.108482  0  1.007634  0
H  H30  1  0.86826380  0.75290126  0.84374292  1  0.088104  0  0.110447  0.099677  0  1.034628  0
H  H31  1  0.13174998  0.24710530  0.15627180  1  0.088376  0  0.110422  0.099706  0  1.03462  0
H  H32  1  0.54195467  0.72035266  0.95022390  1  0.157297  0  0.134373  0.139246  0  0.978035  0
H  H33  1  0.45805418  0.27965866  0.04977384  1  0.15715  0  0.134368  0.139222  0  0.978198  0
H  H34  1  0.50287848  0.59421518  0.14938870  1  0.121913  0  0.128542  0.129953  0  0.973571  0
H  H35  1  0.49712282  0.40579611  0.85060586  1  0.121934  0  0.128544  0.129913  0  0.973508  0
H  H36  1  0.96334028  0.75942351  0.92335873  1  0.101801  0  0.105341  0.114429  0  1.037823  0
H  H37  1  0.03667152  0.24058544  0.07664880  1  0.101797  0  0.105295  0.114401  0  1.037946  0
H  H38  1  0.18755889  0.69554203  0.92611222  1  0.143823  0  0.110185  0.122123  0  1.009044  0
H  H39  1  0.81245493  0.30445377  0.07389526  1  0.143933  0  0.110182  0.122146  0  1.009056  0
H  H40  1  0.24283229  0.54866451  0.06829786  1  0.108806  0  0.11278  0.120601  0  0.978992  0
H  H41  1  0.75717675  0.45132633  0.93170801  1  0.109177  0  0.112763  0.120654  0  0.979001  0
H  H42  1  0.06795855  0.47182835  0.20015707  1  0.128881  0  0.114421  0.091266  0  1.019732  0
H  H43  1  0.93204345  0.52818233  0.79985878  1  0.128728  0  0.114406  0.091229  0  1.019629  0
H  H44  1  0.26143337  0.14133301  0.48106619  1  0.083234  0  0.097442  0.102035  0  1.048148  0
H  H45  1  0.73857618  0.85866986  0.51890880  1  0.082657  0  0.097431  0.101985  0  1.048165  0
H  H46  1  0.18691105  0.98043710  0.54053624  1  0.064631  0  0.095673  0.094397  0  1.047859  0
H  H47  1  0.81311818  0.01955498  0.45943033  1  0.065225  0  0.095638  0.094378  0  1.047676  0
H  H48  1  0.88447426  0.14190893  0.40217405  1  0.076895  0  0.104924  0.11021  0  1.020821  0
H  H49  1  0.11552470  0.85807615  0.59783082  1  0.07684  0  0.10492  0.110286  0  1.020767  0
H  H50  1  0.63631800  0.84423572  0.40125844  1  0.064022  0  0.094793  0.087424  0  1.071255  0
H  H51  1  0.36363483  0.15578894  0.59875511  1  0.063872  0  0.094797  0.087321  0  1.071231  0
H  H52  1  0.32061478  0.02193196  0.66584252  1  0.071345  0  0.090023  0.083997  0  1.061495  0
H  H53  1  0.67934469  0.97805845  0.33419978  1  0.071042  0  0.090011  0.084054  0  1.061545  0
H  H54  1  0.27653309  0.84823546  0.75256412  1  0.054219  0  0.096415  0.095745  0  1.011885  0
H  H55  1  0.72343389  0.15174564  0.24745243  1  0.054879  0  0.096376  0.095628  0  1.011632  0
C  C56  1  0.60383250  0.22303203  0.67774345  1  0.281796  0  0.013375  -0.085172  0  3.88727  0
C  C57  1  0.39614618  0.77697282  0.32226439  1  0.281711  0  0.013311  -0.085217  0  3.887258  0
C  C58  1  0.64060195  0.30711453  0.60624126  1  0.463511  0  0.018923  0.015311  0  3.930297  0
C  C59  1  0.35938049  0.69288199  0.39375672  1  0.463851  0  0.018977  0.015319  0  3.930675  0
C  C60  1  0.77658311  0.23947034  0.69440794  1  0.928237  0  0.207747  0.172928  0  3.996953  0
C  C61  1  0.22343191  0.76052265  0.30556577  1  0.929549  0  0.207834  0.173003  0  3.99653  0
C  C62  1  0.88988908  0.22542226  0.72177597  1  0.477227  0  0.122558  0.166959  0  4.033679  0
C  C63  1  0.11011937  0.77457561  0.27819314  1  0.474611  0  0.12256  0.167079  0  4.033431  0
C  C64  1  0.94815660  0.13309177  0.77981332  1  0.011848  0  -0.089461  -0.173039  0  3.955873  0
C  C65  1  0.05185702  0.86690685  0.22014859  1  0.013564  0  -0.089631  -0.173403  0  3.956374  0
C  C66  1  0.05975291  0.12879302  0.79605811  1  -0.082006  0  -0.071076  -0.030694  0  4.005259  0
C  C67  1  0.94024741  0.87120992  0.20392388  1  -0.081989  0  -0.071038  -0.030576  0  4.005542  0
C  C68  1  0.11236315  0.21480397  0.75285670  1  0.007748  0  -0.086663  -0.138352  0  3.976341  0
C  C69  1  0.88764131  0.78519329  0.24713317  1  0.007568  0  -0.086609  -0.138237  0  3.976298  0
C  C70  1  0.05023689  0.30294720  0.69446694  1  0.47493  0  0.059063  0.124229  0  3.937311  0
C  C71  1  0.94976499  0.69705165  0.30551761  1  0.477184  0  0.059028  0.124249  0  3.937042  0
C  C72  1  0.67164072  0.09981587  0.82632500  1  0.312772  0  -0.05294  -0.062955  0  3.919683  0
C  C73  1  0.32835588  0.90019052  0.17367234  1  0.312952  0  -0.053  -0.062969  0  3.919701  0
C  C74  1  0.73688572  0.98009225  0.79863271  1  -0.037051  0  -0.163964  -0.17465  0  3.920655  0
C  C75  1  0.26311907  0.01991254  0.20136941  1  -0.035154  0  -0.163879  -0.174441  0  3.920427  0
C  C76  1  0.70912270  0.90308387  0.90123182  1  -0.002929  0  -0.159855  -0.14829  0  3.946075  0
C  C77  1  0.29088779  0.09692096  0.09877487  1  -0.00475  0  -0.159843  -0.148102  0  3.945851  0
C  C78  1  0.76119504  0.78227201  0.87750399  1  0.264829  0  -0.061476  -0.085756  0  3.858095  0
C  C79  1  0.23881864  0.21773449  0.12250488  1  0.264291  0  -0.061393  -0.085785  0  3.858073  0
C  C80  1  0.59793931  0.69205350  0.00342784  1  0.277351  0  0.008341  -0.108555  0  3.920052  0
C  C81  1  0.40206548  0.30795374  0.99657300  1  0.277648  0  0.008347  -0.108649  0  3.920241  0
C  C82  1  0.58032987  0.62961039  0.10073680  1  0.456199  0  0.013246  -0.005091  0  4.019342  0
C  C83  1  0.41967706  0.37039601  0.89926198  1  0.455802  0  0.013301  -0.004833  0  4.019005  0
C  C84  1  0.76713676  0.66031413  0.05361015  1  0.928335  0  0.207768  0.173902  0  3.969992  0
C  C85  1  0.23286625  0.33968826  0.94639904  1  0.928364  0  0.207774  0.173865  0  3.970211  0
C  C86  1  0.89755795  0.64265345  0.05529974  1  0.488085  0  0.114045  0.148422  0  4.0348  0
C  C87  1  0.10244551  0.35734821  0.94471756  1  0.487554  0  0.114048  0.148364  0  4.035185  0
C  C88  1  0.98736728  0.69551816  0.98400305  1  -0.032027  0  -0.085265  -0.159005  0  3.952562  0
C  C89  1  0.01264766  0.30447675  0.01599831  1  -0.03096  0  -0.085172  -0.158866  0  3.952687  0
C  C90  1  0.11347277  0.66135899  0.98667767  1  0.008546  0  -0.064465  -0.016195  0  3.936352  0
C  C91  1  0.88652943  0.33864249  0.01332241  1  0.008499  0  -0.064523  -0.01635  0  3.936304  0
C  C92  1  0.14534197  0.57882771  0.06374445  1  -0.062653  0  -0.07942  -0.11547  0  3.944523  0
C  C93  1  0.85466447  0.42117550  0.93626406  1  -0.062843  0  -0.07943  -0.115501  0  3.944892  0
C  C94  1  0.04872992  0.53407721  0.13612859  1  0.493083  0  0.04775  0.097211  0  3.963967  0
C  C95  1  0.95127701  0.46591939  0.86387751  1  0.49347  0  0.047782  0.097255  0  3.963883  0
C  C96  1  0.93565941  0.32699087  0.33287139  1  1.556218  0  0.195596  0.563414  0  4.220726  0
C  C97  1  0.06433803  0.67299243  0.66712039  1  1.557263  0  0.195711  0.563604  0  4.22069  0
C  C98  1  0.00866448  0.23145569  0.38952840  1  0.006464  0  -0.022116  -0.070842  0  4.017609  0
C  C99  1  0.99133498  0.76853994  0.61046216  1  0.006129  0  -0.022027  -0.070744  0  4.017686  0
C  C100  1  0.11314301  0.23543078  0.41278110  1  -0.083102  0  -0.013958  -0.046945  0  3.941953  0
C  C101  1  0.88686408  0.76456394  0.58720100  1  -0.083283  0  -0.014181  -0.047395  0  3.942418  0
C  C102  1  0.17723364  0.14191739  0.46536396  1  -0.042901  0  -0.093928  -0.103916  0  3.981635  0
C  C103  1  0.82278111  0.85807399  0.53461316  1  -0.042154  0  -0.093849  -0.103655  0  3.981632  0
C  C104  1  0.13400694  0.05027995  0.49893661  1  -0.062185  0  -0.091047  -0.125571  0  3.969071  0
C  C105  1  0.86600550  0.94971071  0.50105109  1  -0.063385  0  -0.091085  -0.125618  0  3.968954  0
C  C106  1  0.02526655  0.04745848  0.48040281  1  0.000166  0  -0.017739  0.051652  0  4.015659  0
C  C107  1  0.97474495  0.95252973  0.51958651  1  -0.035469  0  -0.017563  0.051685  0  4.015726  0
C  C108  1  0.96691273  0.13881954  0.42198269  1  -0.042585  0  -0.087862  -0.145372  0  3.956935  0
C  C109  1  0.03309172  0.86117037  0.57801176  1  -0.042328  0  -0.087938  -0.145526  0  3.95712  0
C  C110  1  0.15356599  0.33833716  0.38328000  1  1.608068  0  0.204418  0.586904  0  4.224516  0
C  C111  1  0.84645376  0.66165340  0.61669844  1  1.608278  0  0.204529  0.587231  0  4.224262  0
C  C112  1  0.62666307  0.64596365  0.47469847  1  1.573585  0  0.212609  0.603959  0  4.186711  0
C  C113  1  0.37333856  0.35404390  0.52533296  1  1.57236  0  0.212406  0.603597  0  4.187009  0
C  C114  1  0.53399527  0.74960710  0.52874415  1  -0.072423  0  -0.008418  -0.036825  0  3.93298  0
C  C115  1  0.46599639  0.25039622  0.47127483  1  -0.072976  0  -0.008152  -0.03629  0  3.932181  0
C  C116  1  0.55688840  0.84847339  0.47902167  1  -0.059283  0  -0.094728  -0.160924  0  3.979608  0
C  C117  1  0.44307353  0.15153986  0.52100291  1  -0.059235  0  -0.094878  -0.161035  0  3.980169  0
C  C118  1  0.48452753  0.94874751  0.52643218  1  0.034143  0  -0.015738  0.058315  0  4.01437  0
C  C119  1  0.51542634  0.05126349  0.47361352  1  -0.001832  0  -0.015768  0.058262  0  4.014796  0
C  C120  1  0.38244125  0.94638782  0.62631530  1  -0.08236  0  -0.101138  -0.139077  0  4.007886  0
C  C121  1  0.61752349  0.05360583  0.37372291  1  -0.083912  0  -0.101087  -0.13913  0  4.007835  0
C  C122  1  0.35699945  0.84859798  0.67574359  1  -0.092089  0  -0.093852  -0.111965  0  4.020143  0
C  C123  1  0.64297550  0.15138484  0.32428077  1  -0.090595  0  -0.093831  -0.11188  0  4.020133  0
C  C124  1  0.43220449  0.74865741  0.62885390  1  0.064343  0  -0.00244  -0.015672  0  3.902413  0
C  C125  1  0.56780160  0.25132945  0.37116424  1  0.064936  0  -0.002567  -0.01585  0  3.902252  0
C  C126  1  0.39224476  0.64818489  0.68401010  1  1.588731  0  0.193241  0.576442  0  4.246628  0
C  C127  1  0.60775940  0.35180340  0.31598702  1  1.588533  0  0.193351  0.576455  0  4.247072  0
N  N128  1  0.94174773  0.30894745  0.68032563  1  -1.194851  0  -0.314145  -0.291288  0  3.449758  0
N  N129  1  0.05826001  0.69105544  0.31965222  1  -1.197009  0  -0.31414  -0.291419  0  3.449446  0
N  N130  1  0.74667643  0.31601242  0.61801187  1  -1.203906  0  -0.344662  -0.320792  0  3.511959  0
N  N131  1  0.25332408  0.68398229  0.38196892  1  -1.204658  0  -0.344737  -0.320854  0  3.511905  0
N  N132  1  0.68938220  0.18086462  0.73342692  1  -1.195428  0  -0.23887  -6.2e-05  0  3.725224  0
N  N133  1  0.31061329  0.81913677  0.26656454  1  -1.196236  0  -0.238792  -2.4e-05  0  3.725348  0
N  N134  1  0.92899178  0.56396880  0.13160140  1  -1.221444  0  -0.319764  -0.285374  0  3.461947  0
N  N135  1  0.07101965  0.43603603  0.86840569  1  -1.222373  0  -0.319759  -0.285327  0  3.461638  0
N  N136  1  0.68475452  0.61137694  0.13038971  1  -1.188828  0  -0.349596  -0.324086  0  3.546989  0
N  N137  1  0.31525092  0.38862379  0.86961676  1  -1.188538  0  -0.349623  -0.324093  0  3.546846  0
N  N138  1  0.71529614  0.71189487  0.97431744  1  -1.215956  0  -0.232062  0.019332  0  3.71086  0
N  N139  1  0.28470965  0.28810750  0.02569002  1  -1.216224  0  -0.232107  0.019318  0  3.711241  0
O  O140  1  0.91157133  0.31151474  0.25574681  1  -1.161662  0  -0.312341  -0.532456  0  2.185296  0
O  O141  1  0.08843139  0.68847917  0.74423631  1  -1.161829  0  -0.312283  -0.532515  0  2.185302  0
O  O142  1  0.89857963  0.42276110  0.36702515  1  -1.160902  0  -0.326041  -0.566809  0  2.338602  0
O  O143  1  0.10140827  0.57722064  0.63297485  1  -1.161662  0  -0.326192  -0.566887  0  2.338733  0
O  O144  1  0.09611277  0.40348294  0.46116073  1  -1.143009  0  -0.335215  -0.581334  0  2.387531  0
O  O145  1  0.90389600  0.59652392  0.53880260  1  -1.142849  0  -0.335112  -0.581341  0  2.387606  0
O  O146  1  0.23308047  0.35508348  0.29290769  1  -1.164858  0  -0.316342  -0.526205  0  2.079566  0
O  O147  1  0.76695614  0.64488406  0.70707047  1  -1.164994  0  -0.316511  -0.526461  0  2.079373  0
O  O148  1  0.66636567  0.65463297  0.37118289  1  -1.139728  0  -0.338969  -0.583309  0  2.266103  0
O  O149  1  0.33367980  0.34537449  0.62884012  1  -1.138942  0  -0.338909  -0.583278  0  2.266223  0
O  O150  1  0.65958212  0.56194580  0.53496394  1  -1.177793  0  -0.324727  -0.546873  0  2.294688  0
O  O151  1  0.34039933  0.43805856  0.46507547  1  -1.177527  0  -0.324626  -0.546712  0  2.294852  0
O  O152  1  0.37815617  0.59426229  0.62274361  1  -1.143839  0  -0.331339  -0.544326  0  2.258594  0
O  O153  1  0.62185779  0.40574141  0.37723256  1  -1.143657  0  -0.331354  -0.544275  0  2.258957  0
O  O154  1  0.36645821  0.62800436  0.78390960  1  -1.164352  0  -0.341982  -0.57867  0  2.113952  0
O  O155  1  0.63351582  0.37196670  0.21609037  1  -1.164271  0  -0.34204  -0.578641  0  2.113927  0
