# generated using pymatgen
data_CuH6C4(N2Cl)2
_symmetry_space_group_name_H-M   'P 1'
_cell_length_a   6.77631276
_cell_length_b   8.99597149
_cell_length_c   14.12616679
_cell_angle_alpha   89.99935003
_cell_angle_beta   90.00050246
_cell_angle_gamma   111.15865999
_symmetry_Int_Tables_number   1
_chemical_formula_structural   CuH6C4(N2Cl)2
_chemical_formula_sum   'Cu4 H24 C16 N16 Cl8'
_cell_volume   803.07115192
_cell_formula_units_Z   4
loop_
 _symmetry_equiv_pos_site_id
 _symmetry_equiv_pos_as_xyz
  1  'x, y, z'
loop_
 _atom_site_type_symbol
 _atom_site_label
 _atom_site_symmetry_multiplicity
 _atom_site_fract_x
 _atom_site_fract_y
 _atom_site_fract_z
 _atom_site_occupancy
 _atom_site_hle17_ddec_charge
 _atom_site_hle17_ddec_spin_density
 _atom_site_hle17_ddec_sum_bond_order
 _atom_site_hle17_magmom
 _atom_site_hse06_10hf_ddec_charge
 _atom_site_hse06_10hf_ddec_spin_density
 _atom_site_hse06_10hf_ddec_sum_bond_order
 _atom_site_hse06_10hf_magmom
 _atom_site_hse06_ddec_charge
 _atom_site_hse06_ddec_spin_density
 _atom_site_hse06_ddec_sum_bond_order
 _atom_site_hse06_magmom
 _atom_site_pbe_cm5_charge
 _atom_site_pbe_ddec_charge
 _atom_site_pbe_ddec_spin_density
 _atom_site_pbe_ddec_sum_bond_order
 _atom_site_pbe_magmom
Cu  Cu0  1  0.30306931  0.74111140  0.25507279  1  0.701244  -0.641378  2.017753  -0.451  0.695663  -0.748897  2.412749  -0.575  0.786144  -0.833965  2.336359  -0.663  0.597729  0.646147  -0.686556  2.459515  -0.518
Cu  Cu1  1  0.19692619  0.25888775  0.75507055  1  0.701371  0.641379  2.017671  0.451  0.695801  0.7489  2.412648  0.575  0.786295  0.833951  2.33625  0.663  0.597796  0.646285  0.686553  2.459411  0.518
Cu  Cu2  1  0.69692218  0.25888594  0.74493158  1  0.701352  -0.641385  2.017756  -0.451  0.69577  -0.748898  2.412752  -0.575  0.78626  -0.833952  2.336337  -0.663  0.597788  0.646254  -0.686551  2.459513  -0.518
Cu  Cu3  1  0.80306705  0.74111317  0.24492886  1  0.701328  0.641377  2.017728  0.451  0.695766  0.74891  2.412711  0.575  0.786276  0.83397  2.33632  0.663  0.59776  0.646246  0.686561  2.459479  0.518
H  H4  1  0.69171880  0.61278536  0.62137517  1  0.131126  2.1e-05  0.94179  0.0  0.14586  -1.7e-05  1.011765  0.0  0.148173  -1.9e-05  1.009967  0.0  0.108374  0.144249  -1.4e-05  1.012896  0.0
H  H5  1  0.80827935  0.38722147  0.12136728  1  0.131053  -2.4e-05  0.941755  0.0  0.145789  1.7e-05  1.011734  0.0  0.148103  1.9e-05  1.009934  0.0  0.108347  0.14418  1.4e-05  1.012863  0.0
H  H6  1  0.30827477  0.38720719  0.37862920  1  0.131128  2.5e-05  0.94171  0.0  0.145817  -1.7e-05  1.011759  0.0  0.148131  -1.9e-05  1.009958  0.0  0.108348  0.144204  -1.4e-05  1.01289  0.0
H  H7  1  0.19172477  0.61278058  0.87863213  1  0.131103  -2e-05  0.941831  0.0  0.14585  1.7e-05  1.011795  0.0  0.148163  1.9e-05  1.009997  0.0  0.108373  0.144239  1.4e-05  1.012923  0.0
H  H8  1  0.43259500  0.61927723  0.64235409  1  0.125756  -0.000773  0.9575  0.0  0.141503  -0.000692  1.027041  0.0  0.142618  -0.000575  1.027371  0.0  0.105294  0.140676  -0.000748  1.026855  0.0
H  H9  1  0.06740633  0.38072591  0.14234876  1  0.125776  0.00077  0.95746  0.0  0.141508  0.000691  1.027007  0.0  0.142621  0.000575  1.027341  0.0  0.10531  0.140684  0.000748  1.026818  0.0
H  H10  1  0.56740152  0.38071530  0.35764957  1  0.125722  -0.00077  0.957565  0.0  0.141468  -0.000691  1.027111  0.0  0.142583  -0.000575  1.027442  0.0  0.105301  0.140645  -0.000748  1.026922  0.0
H  H11  1  0.93259515  0.61927376  0.85765066  1  0.125741  0.000773  0.957485  0.0  0.141489  0.000692  1.027038  0.0  0.142603  0.000575  1.02737  0.0  0.105298  0.140664  0.000748  1.026848  0.0
H  H12  1  0.66449932  0.79666065  0.65319198  1  0.128794  0.001472  0.965635  0.0  0.155049  0.001499  1.018586  0.0  0.156721  0.001118  1.017446  0.0  0.100366  0.153829  0.001763  1.01938  0.0
H  H13  1  0.83550243  0.20334330  0.15318769  1  0.128762  -0.001474  0.965624  0.0  0.155024  -0.001498  1.018567  0.0  0.156695  -0.001118  1.017429  0.0  0.100372  0.153803  -0.001762  1.019362  0.0
H  H14  1  0.33549898  0.20332948  0.34681380  1  0.128775  0.001474  0.965664  0.0  0.155038  0.001499  1.018612  0.0  0.15671  0.001118  1.017471  0.0  0.100363  0.153822  0.001763  1.019409  0.0
H  H15  1  0.16450316  0.79665874  0.84681173  1  0.12878  -0.001472  0.965572  0.0  0.15504  -0.001499  1.018543  0.0  0.156713  -0.001118  1.017402  0.0  0.100349  0.153821  -0.001762  1.019341  0.0
H  H16  1  0.10069525  0.74334192  0.45959705  1  0.116615  0.000366  1.007324  0.0  0.115568  0.000134  1.083178  0.0  0.11928  0.000125  1.081475  0.0  0.095683  0.112832  0.000137  1.084633  0.0
H  H17  1  0.39931126  0.25666615  0.95958508  1  0.116496  -0.000365  1.007396  0.0  0.115513  -0.000134  1.08324  0.0  0.119225  -0.000125  1.081539  0.0  0.095694  0.112779  -0.000137  1.08469  0.0
H  H18  1  0.89930948  0.25665534  0.54041299  1  0.11652  0.000368  1.007398  0.0  0.115533  0.000135  1.083235  0.0  0.119246  0.000125  1.081534  0.0  0.095692  0.112798  0.000137  1.084689  0.0
H  H19  1  0.60069783  0.74334304  0.04039240  1  0.116706  -0.000359  1.007331  0.0  0.115563  -0.000134  1.083281  0.0  0.119276  -0.000125  1.081577  0.0  0.095691  0.112829  -0.000137  1.084732  0.0
H  H20  1  0.37103727  0.87574237  0.64004737  1  0.123112  0.000254  0.969308  0.0  0.134652  0.000297  1.033427  0.0  0.137496  0.00023  1.03182  0.0  0.093303  0.132581  0.000339  1.034543  0.0
H  H21  1  0.12897133  0.12427272  0.14003852  1  0.122829  -0.000257  0.969394  0.0  0.134528  -0.000297  1.033362  0.0  0.137374  -0.00023  1.031752  0.0  0.093282  0.132456  -0.000339  1.034484  0.0
H  H22  1  0.62895566  0.12426095  0.35996620  1  0.122986  0.000255  0.969331  0.0  0.134603  0.000297  1.033378  0.0  0.13745  0.00023  1.031763  0.0  0.093314  0.13252  0.000339  1.034531  0.0
H  H23  1  0.87104476  0.87575077  0.85994603  1  0.123172  -0.00026  0.969521  0.0  0.134697  -0.000297  1.033646  0.0  0.137545  -0.00023  1.032032  0.0  0.093314  0.132618  -0.000339  1.034784  0.0
H  H24  1  0.09654576  0.86033759  0.61663355  1  0.134192  -0.000176  0.955698  0.0  0.147071  -4.8e-05  1.015682  0.0  0.150766  -4.9e-05  1.012542  0.0  0.09391  0.144354  -4.6e-05  1.017932  0.0
H  H25  1  0.40346466  0.13967304  0.11663001  1  0.134073  0.000171  0.955743  0.0  0.147018  4.8e-05  1.015674  0.0  0.150761  4.9e-05  1.012474  0.0  0.093915  0.1443  4.6e-05  1.017923  0.0
H  H26  1  0.90344839  0.13965615  0.38336941  1  0.134097  -0.000175  0.955852  0.0  0.147039  -4.8e-05  1.015759  0.0  0.150731  -4.9e-05  1.012626  0.0  0.093903  0.144325  -4.6e-05  1.018006  0.0
H  H27  1  0.59655764  0.86034205  0.88335949  1  0.134147  0.000166  0.955925  0.0  0.147047  4.8e-05  1.01588  0.0  0.150765  4.9e-05  1.012711  0.0  0.093892  0.144331  4.6e-05  1.018127  0.0
C  C28  1  0.41746630  0.74627318  0.46727496  1  0.32273  0.004472  3.677373  0.005  0.282744  0.001001  3.930425  0.001  0.301106  0.001661  3.942896  0.002  0.255325  0.270974  0.000537  3.922073  0.001
C  C29  1  0.08253588  0.25373480  0.96726660  1  0.322625  -0.00447  3.677291  -0.005  0.282797  -0.001001  3.930271  -0.001  0.301161  -0.001664  3.942744  -0.002  0.2554  0.271019  -0.000538  3.921915  -0.001
C  C30  1  0.58253871  0.25372766  0.53273224  1  0.322567  0.00447  3.677321  0.005  0.282685  0.001001  3.930356  0.001  0.301051  0.001663  3.942831  0.002  0.255259  0.270907  0.000537  3.922  0.001
C  C31  1  0.91746705  0.74627084  0.03272220  1  0.322737  -0.004456  3.677234  -0.005  0.282798  -0.000999  3.930198  -0.001  0.301169  -0.001661  3.942666  -0.002  0.255333  0.271023  -0.000536  3.921837  -0.001
C  C32  1  0.59138987  0.68426112  0.61453986  1  -0.200655  0.002551  3.587491  0.003  -0.315102  0.002007  3.819449  0.002  -0.313456  0.001448  3.825564  0.002  -0.131148  -0.31569  0.002412  3.814962  0.003
C  C33  1  0.90861382  0.31574219  0.11453505  1  -0.200628  -0.002538  3.58742  -0.003  -0.315047  -0.002007  3.819429  -0.002  -0.313406  -0.001449  3.825549  -0.002  -0.131173  -0.31564  -0.002411  3.814941  -0.003
C  C34  1  0.40860695  0.31572902  0.38546310  1  -0.200552  0.002537  3.587426  0.003  -0.315002  0.002007  3.819417  0.002  -0.313359  0.001448  3.825537  0.002  -0.131122  -0.315595  0.002412  3.81493  0.003
C  C35  1  0.09139356  0.68425745  0.88546578  1  -0.200576  -0.002553  3.587535  -0.003  -0.31509  -0.002008  3.81956  -0.002  -0.313445  -0.001449  3.825677  -0.002  -0.131135  -0.315681  -0.002412  3.815069  -0.003
C  C36  1  0.23717423  0.77412759  0.50650450  1  -0.136863  -0.007986  3.784028  -0.007  -0.146898  -0.003164  4.046008  -0.003  -0.156079  -0.002713  4.065594  -0.003  -0.0974  -0.140624  -0.003663  4.032469  -0.004
C  C37  1  0.26283355  0.22587867  0.00650115  1  -0.136519  0.007946  3.784022  0.007  -0.146738  0.003164  4.046114  0.003  -0.155922  0.002712  4.065725  0.003  -0.097345  -0.140469  0.003663  4.032571  0.004
C  C38  1  0.76283283  0.22587443  0.49350341  1  -0.136448  -0.008004  3.783801  -0.007  -0.146672  -0.003164  4.045917  -0.003  -0.155853  -0.002713  4.065505  -0.003  -0.097308  -0.1404  -0.003663  4.032376  -0.004
C  C39  1  0.73717615  0.77412573  0.99349119  1  -0.136876  0.007869  3.783881  0.007  -0.146843  0.003167  4.04587  0.003  -0.156024  0.002715  4.065456  0.003  -0.09739  -0.140573  0.003664  4.032327  0.004
C  C40  1  0.23584615  0.83809852  0.59216657  1  -0.142288  0.003506  3.522958  0.004  -0.194952  0.001168  3.763255  0.002  -0.192246  0.001984  3.774956  0.002  -0.148575  -0.196204  0.000468  3.754978  0.001
C  C41  1  0.26416134  0.16191608  0.09215944  1  -0.14212  -0.00345  3.523227  -0.004  -0.194935  -0.001168  3.763511  -0.002  -0.192269  -0.001982  3.77518  -0.002  -0.148695  -0.196187  -0.000467  3.755228  -0.001
C  C42  1  0.76414709  0.16190240  0.40783992  1  -0.14228  0.003518  3.523049  0.004  -0.195012  0.001168  3.763364  0.002  -0.192303  0.001984  3.77507  0.002  -0.148662  -0.19627  0.000468  3.75508  0.001
C  C43  1  0.73585358  0.83810503  0.90782228  1  -0.142362  -0.003359  3.523197  -0.004  -0.195037  -0.001171  3.763427  -0.002  -0.192349  -0.001984  3.775111  -0.002  -0.148597  -0.196294  -0.000468  3.755143  -0.001
N  N44  1  0.57404065  0.71589293  0.51427683  1  0.044186  -0.003103  3.474397  -0.003  0.165071  -0.000876  3.661405  -0.001  0.155821  -0.00127  3.677881  -0.002  -0.101869  0.17068  -0.00059  3.650518  -0.001
N  N45  1  0.92595931  0.28410946  0.01427304  1  0.044379  0.003099  3.474433  0.003  0.165137  0.000876  3.661511  0.001  0.155906  0.00127  3.67795  0.002  -0.101856  0.170742  0.000591  3.650624  0.001
N  N46  1  0.42596056  0.28410316  0.48572754  1  0.044272  -0.0031  3.474537  -0.003  0.165153  -0.000876  3.661519  -0.001  0.155909  -0.001271  3.677985  -0.002  -0.101807  0.170759  -0.000591  3.650634  -0.001
N  N47  1  0.07404570  0.71589138  0.98572567  1  0.044077  0.003087  3.474745  0.003  0.165044  0.000876  3.66166  0.001  0.155787  0.00127  3.678149  0.002  -0.10193  0.170653  0.000591  3.65077  0.001
N  N48  1  0.71781844  0.70353269  0.45214922  1  -0.038693  -0.008238  2.8128  -0.01  -0.050026  -0.003457  3.074878  -0.004  -0.0438  -0.00352  3.085188  -0.005  -0.044624  -0.053634  -0.003535  3.06869  -0.004
N  N49  1  0.78217718  0.29645978  0.95214495  1  -0.038723  0.008233  2.812881  0.01  -0.049993  0.003457  3.07499  0.004  -0.04377  0.003521  3.085295  0.005  -0.044558  -0.053602  0.003534  3.068808  0.004
N  N50  1  0.28217985  0.29645743  0.54785444  1  -0.038765  -0.008234  2.812957  -0.01  -0.050057  -0.003457  3.075048  -0.004  -0.043831  -0.003521  3.085354  -0.005  -0.044618  -0.053655  -0.003535  3.068859  -0.004
N  N51  1  0.21781581  0.70353157  0.04785588  1  -0.038796  0.008236  2.812854  0.01  -0.050137  0.003457  3.074916  0.004  -0.04391  0.003519  3.085221  0.005  -0.044635  -0.053744  0.003535  3.068742  0.004
N  N52  1  0.64990881  0.72452152  0.36920293  1  -0.035617  0.055234  3.309958  0.068  -0.012108  0.045236  3.635855  0.059  -0.026937  0.040741  3.657032  0.056  -0.1093  -0.005121  0.046411  3.625262  0.059
N  N53  1  0.85008325  0.27547577  0.86919840  1  -0.035634  -0.055233  3.310049  -0.068  -0.012174  -0.045236  3.636004  -0.059  -0.026994  -0.040742  3.657183  -0.056  -0.109385  -0.005204  -0.046411  3.62541  -0.059
N  N54  1  0.35008446  0.27547342  0.63080215  1  -0.035551  0.055232  3.309889  0.068  -0.012084  0.045235  3.635836  0.059  -0.026902  0.040741  3.657013  0.056  -0.109345  -0.00512  0.04641  3.625253  0.059
N  N55  1  0.14990441  0.72452279  0.13080173  1  -0.035355  -0.055236  3.309582  -0.068  -0.011855  -0.045237  3.63551  -0.059  -0.026669  -0.040742  3.656685  -0.056  -0.109169  -0.004889  -0.046412  3.624925  -0.059
N  N56  1  0.46582335  0.74809250  0.37482252  1  -0.271559  -0.058948  3.234163  -0.073  -0.236087  -0.04661  3.539827  -0.061  -0.263984  -0.041272  3.561596  -0.057  -0.238355  -0.220619  -0.048273  3.528643  -0.062
N  N57  1  0.03417459  0.25191327  0.87481680  1  -0.271568  0.058942  3.234276  0.073  -0.236135  0.046607  3.539923  0.061  -0.264049  0.041273  3.561705  0.057  -0.238346  -0.220637  0.048271  3.528717  0.062
N  N58  1  0.53417372  0.25190720  0.62518469  1  -0.271635  -0.058955  3.234191  -0.073  -0.23623  -0.04661  3.539901  -0.061  -0.264144  -0.041273  3.561681  -0.057  -0.238351  -0.22073  -0.048274  3.528701  -0.062
N  N59  1  0.96581831  0.74809602  0.12517979  1  -0.271585  0.058936  3.233828  0.073  -0.236193  0.046608  3.539575  0.061  -0.264112  0.041272  3.561354  0.057  -0.238402  -0.220696  0.048272  3.528376  0.062
Cl  Cl60  1  0.59417625  0.93873663  0.19309693  1  -0.511245  -0.121498  1.0551  -0.138  -0.521255  -0.082887  1.34516  -0.1  -0.556141  -0.065774  1.321341  -0.082  -0.287175  -0.500239  -0.091304  1.361563  -0.107
Cl  Cl61  1  0.90582304  0.06125480  0.69309987  1  -0.511281  0.121507  1.055131  0.138  -0.521268  0.08289  1.345172  0.1  -0.556148  0.065778  1.321339  0.082  -0.287168  -0.500258  0.091307  1.361578  0.107
Cl  Cl62  1  0.40581643  0.06125712  0.80690461  1  -0.511244  -0.121501  1.055109  -0.138  -0.521251  -0.082889  1.345204  -0.1  -0.556132  -0.065777  1.321373  -0.082  -0.287175  -0.50024  -0.091308  1.361606  -0.107
Cl  Cl63  1  0.09417406  0.93873892  0.30690167  1  -0.511226  0.121499  1.055101  0.138  -0.521254  0.082885  1.345198  0.1  -0.556139  0.065772  1.32137  0.082  -0.287166  -0.500242  0.091301  1.361606  0.107
Cl  Cl64  1  0.52674330  0.52924233  0.18625920  1  -0.490911  0.149776  0.97537  0.171  -0.506815  0.095776  1.259548  0.117  -0.545569  0.075086  1.240043  0.095  -0.291576  -0.484242  0.10543  1.273391  0.125
Cl  Cl65  1  0.97325825  0.47075397  0.68625872  1  -0.490946  -0.149774  0.975381  -0.171  -0.506831  -0.09578  1.259526  -0.117  -0.545578  -0.075089  1.240019  -0.095  -0.291583  -0.484261  -0.105433  1.273368  -0.125
Cl  Cl66  1  0.47325849  0.47075495  0.81374092  1  -0.490913  0.149775  0.975393  0.171  -0.50681  0.095777  1.259571  0.117  -0.545561  0.075089  1.240067  0.095  -0.291563  -0.484238  0.105433  1.273411  0.125
Cl  Cl67  1  0.02674149  0.52924213  0.31374424  1  -0.490915  -0.149773  0.975386  -0.171  -0.506806  -0.095779  1.259554  -0.117  -0.545554  -0.075087  1.240049  -0.095  -0.291571  -0.484232  -0.105429  1.273393  -0.125
