# generated using pymatgen
data_AlH27(C15O2)3
_symmetry_space_group_name_H-M   'P 1'
_cell_length_a   3.97307632
_cell_length_b   23.56216827
_cell_length_c   23.57115804
_cell_angle_alpha   60.00854916
_cell_angle_beta   87.18261147
_cell_angle_gamma   87.36830300
_symmetry_Int_Tables_number   1
_chemical_formula_structural   AlH27(C15O2)3
_chemical_formula_sum   'Al1 H27 C45 O6'
_cell_volume   1908.24265514
_cell_formula_units_Z   1
loop_
 _symmetry_equiv_pos_site_id
 _symmetry_equiv_pos_as_xyz
  1  'x, y, z'
loop_
 _atom_site_type_symbol
 _atom_site_label
 _atom_site_symmetry_multiplicity
 _atom_site_fract_x
 _atom_site_fract_y
 _atom_site_fract_z
 _atom_site_occupancy
 _atom_site_pbe_bader_charge
 _atom_site_pbe_bader_spin_density
 _atom_site_pbe_cm5_charge
 _atom_site_pbe_ddec_charge
 _atom_site_pbe_ddec_spin_density
 _atom_site_pbe_ddec_sum_bond_order
 _atom_site_pbe_magmom
Al  Al0  1  0.02784550  0.49969277  0.49986936  1  2.50384  0  0.423975  1.592659  0  2.579482  0
H  H1  1  0.83794570  0.33501711  0.67916483  1  0.107337  0  0.108203  0.111737  0  0.989409  0
H  H2  1  0.83280740  0.27323419  0.79936479  1  0.049529  0  0.098305  0.09577  0  1.021551  0
H  H3  1  0.81858772  0.22410710  0.89405435  1  0.047531  0  0.098605  0.096137  0  1.018596  0
H  H4  1  0.82612102  0.16553777  0.01299626  1  0.054276  0  0.098088  0.097166  0  1.007178  0
H  H5  1  0.21749949  0.68249340  0.33457752  1  0.099059  0  0.108221  0.112047  0  0.989239  0
H  H6  1  0.21826169  0.80301501  0.27364357  1  0.052115  0  0.098436  0.096305  0  1.019377  0
H  H7  1  0.30853013  0.89690713  0.21827790  1  0.051137  0  0.098292  0.094839  0  1.017148  0
H  H8  1  0.29915108  0.01580146  0.15998905  1  0.069688  0  0.097816  0.095918  0  1.011048  0
H  H9  1  0.52648109  0.10623944  0.10527925  1  0.018293  0  0.096675  0.09151  0  1.038349  0
H  H10  1  0.80623344  0.67964257  0.48399066  1  0.086518  0  0.108265  0.112319  0  0.989381  0
H  H11  1  0.80272786  0.80005778  0.42502723  1  0.049434  0  0.098319  0.096348  0  1.020228  0
H  H12  1  0.71654848  0.89465359  0.38582132  1  0.054123  0  0.098317  0.094819  0  1.017329  0
H  H13  1  0.73350388  0.01326303  0.32531015  1  0.040579  0  0.098212  0.09632  0  1.010806  0
H  H14  1  0.24505058  0.33672929  0.48506111  1  0.103757  0  0.108526  0.11258  0  0.989692  0
H  H15  1  0.24496643  0.27511548  0.42649351  1  0.057765  0  0.098514  0.096071  0  1.022395  0
H  H16  1  0.28323287  0.22325564  0.38388807  1  0.041849  0  0.098705  0.095918  0  1.018097  0
H  H17  1  0.25572387  0.16556060  0.32317334  1  0.057173  0  0.098091  0.096346  0  1.008235  0
H  H18  1  0.51564760  0.10665821  0.28756686  1  0.090622  0  0.096733  0.092162  0  1.039869  0
H  H19  1  0.87867280  0.48088808  0.33317524  1  0.098241  0  0.108147  0.111587  0  0.989628  0
H  H20  1  0.87122831  0.42152275  0.27216355  1  0.066453  0  0.098401  0.096208  0  1.019943  0
H  H21  1  0.80674552  0.38039633  0.21913346  1  0.038735  0  0.098399  0.095252  0  1.018245  0
H  H22  1  0.79717067  0.32027683  0.16034960  1  0.028628  0  0.097739  0.096284  0  1.009802  0
H  H23  1  0.18085944  0.48280219  0.68342417  1  0.10742  0  0.107888  0.111366  0  0.989493  0
H  H24  1  0.18788582  0.42389386  0.80370483  1  0.039821  0  0.098443  0.095811  0  1.021323  0
H  H25  1  0.21022312  0.37890772  0.89805342  1  0.055026  0  0.098301  0.095783  0  1.019336  0
H  H26  1  0.20986264  0.31885493  0.01694915  1  0.062569  0  0.097616  0.095892  0  1.008296  0
H  H27  1  0.51517709  0.28849512  0.10502342  1  0.008962  0  0.096778  0.092006  0  1.035765  0
C  C28  1  0.51377862  0.44934776  0.60070039  1  1.590177  0  0.271876  0.645556  0  4.07068  0
C  C29  1  0.55371798  0.44941162  0.44918636  1  1.529023  0  0.272473  0.647172  0  4.069703  0
C  C30  1  0.51626678  0.60054598  0.44943450  1  1.575366  0  0.272449  0.646277  0  4.070884  0
C  C31  1  0.69142116  0.35347400  0.70709575  1  0.056376  0  -0.079555  -0.080543  0  3.983499  0
C  C32  1  0.68695728  0.31899388  0.77508922  1  -0.077926  0  -0.092396  -0.135741  0  3.992081  0
C  C33  1  0.68057066  0.24568540  0.92000316  1  -0.103435  0  -0.09073  -0.122968  0  3.992099  0
C  C34  1  0.68309767  0.21174710  0.98805514  1  -0.012136  0  -0.091764  -0.126509  0  4.001344  0
C  C35  1  0.34941266  0.70886975  0.35341594  1  0.062762  0  -0.079095  -0.079836  0  3.981912  0
C  C36  1  0.35241167  0.77692274  0.31930903  1  -0.150727  0  -0.091794  -0.136838  0  3.988688  0
C  C37  1  0.40005527  0.92156086  0.24297520  1  -0.036924  0  -0.09032  -0.121767  0  3.992788  0
C  C38  1  0.39934042  0.98963315  0.20912916  1  -0.098089  0  -0.091238  -0.125251  0  3.99764  0
C  C39  1  0.50966680  0.41288751  0.67342443  1  -0.018384  0  -0.012457  -0.044326  0  3.969166  0
C  C40  1  0.51079108  0.34324633  0.81225556  1  -0.040249  0  -0.003585  0.070261  0  3.982796  0
C  C41  1  0.51366838  0.30706621  0.88481121  1  0.036519  0  -0.009497  0.059627  0  3.984686  0
C  C42  1  0.51785950  0.23719784  0.02489261  1  -0.085826  0  -0.008276  0.064215  0  4.002212  0
C  C43  1  0.51925493  0.20125169  0.09715929  1  0.012484  0  -0.007528  0.082838  0  4.02461  0
C  C44  1  0.52289102  0.13259655  0.13231774  1  0.096657  0  -0.08906  -0.175073  0  3.930841  0
C  C45  1  0.67370860  0.70734648  0.43822877  1  -0.12047  0  -0.079426  -0.080176  0  3.984561  0
C  C46  1  0.66897589  0.77536978  0.40462956  1  0.06659  0  -0.091656  -0.136888  0  3.99097  0
C  C47  1  0.62643685  0.92031947  0.33594751  1  -0.021874  0  -0.090524  -0.12208  0  3.993089  0
C  C48  1  0.63181505  0.98834497  0.30168785  1  -0.021538  0  -0.091503  -0.125314  0  3.998051  0
C  C49  1  0.38636933  0.35425339  0.43877421  1  0.009248  0  -0.080158  -0.080849  0  3.986576  0
C  C50  1  0.38861970  0.31977363  0.40527302  1  -0.081871  0  -0.092621  -0.136742  0  3.995397  0
C  C51  1  0.39780079  0.24560634  0.33477296  1  -0.046899  0  -0.090811  -0.123388  0  3.993723  0
C  C52  1  0.38533352  0.21204005  0.30046695  1  -0.04115  0  -0.091368  -0.124442  0  3.998853  0
C  C53  1  0.51242269  0.67328769  0.41312079  1  -0.026478  0  -0.013234  -0.046509  0  3.970007  0
C  C54  1  0.51072671  0.81211262  0.34398720  1  0.012473  0  -0.00338  0.072169  0  3.982647  0
C  C55  1  0.51216860  0.88463297  0.30764538  1  -0.048185  0  -0.009188  0.060435  0  3.98856  0
C  C56  1  0.51686905  0.02501551  0.23735651  1  -0.057188  0  -0.007253  0.06738  0  3.994451  0
C  C57  1  0.51899599  0.09744558  0.20102691  1  0.01626  0  -0.006537  0.080336  0  4.018772  0
C  C58  1  0.51678480  0.13297976  0.23422581  1  -0.043979  0  -0.088576  -0.174452  0  3.927866  0
C  C59  1  0.73580037  0.43621119  0.35264211  1  -0.034586  0  -0.079891  -0.079968  0  3.983598  0
C  C60  1  0.72999435  0.40225126  0.31858619  1  -0.043857  0  -0.091438  -0.135374  0  3.986878  0
C  C61  1  0.68495064  0.33315216  0.24305619  1  0.018477  0  -0.090575  -0.121995  0  3.993811  0
C  C62  1  0.67615866  0.29927527  0.20896355  1  -0.110939  0  -0.091925  -0.126495  0  3.998407  0
C  C63  1  0.32741514  0.43723712  0.70943446  1  -0.071484  0  -0.079053  -0.081036  0  3.984099  0
C  C64  1  0.33270522  0.40345878  0.77743429  1  -0.061394  0  -0.092628  -0.135286  0  3.988668  0
C  C65  1  0.34965445  0.33233210  0.92214903  1  -0.071556  0  -0.090615  -0.123327  0  3.994394  0
C  C66  1  0.35102204  0.29838821  0.99017263  1  -0.023674  0  -0.09186  -0.125081  0  3.999096  0
C  C67  1  0.56071256  0.41287615  0.41292684  1  -0.043938  0  -0.012377  -0.047226  0  3.972335  0
C  C68  1  0.55668960  0.34312782  0.34383435  1  0.028086  0  -0.003596  0.071081  0  3.98199  0
C  C69  1  0.54728802  0.30729641  0.30720324  1  -0.060956  0  -0.009237  0.059844  0  3.98568  0
C  C70  1  0.52551195  0.23783004  0.23670094  1  0.051896  0  -0.007884  0.065564  0  3.997797  0
C  C71  1  0.51840004  0.20165038  0.20062120  1  0.019382  0  -0.006942  0.082123  0  4.021883  0
C  C72  1  0.51677215  0.23509479  0.13197679  1  -0.102155  0  -0.089597  -0.178545  0  3.934508  0
O  O73  1  0.29143368  0.57188361  0.43658986  1  -1.259  0  -0.238883  -0.596484  0  2.363134  0
O  O74  1  0.27404813  0.49078904  0.57230350  1  -1.263525  0  -0.238871  -0.594597  0  2.359914  0
O  O75  1  0.31358922  0.43698398  0.49163585  1  -1.259998  0  -0.240838  -0.602631  0  2.382138  0
O  O76  1  0.74522846  0.57110743  0.49150092  1  -1.26158  0  -0.239861  -0.600498  0  2.373656  0
O  O77  1  0.78459349  0.49053641  0.43613557  1  -1.257569  0  -0.23876  -0.593776  0  2.354119  0
O  O78  1  0.75864518  0.43669105  0.57114328  1  -1.262715  0  -0.240448  -0.600026  0  2.374913  0
