# generated using pymatgen
data_CoH16C22N4(ClO2)2
_symmetry_space_group_name_H-M   'P 1'
_cell_length_a   9.05315650
_cell_length_b   9.39411569
_cell_length_c   13.80746742
_cell_angle_alpha   85.82188400
_cell_angle_beta   83.66650977
_cell_angle_gamma   65.19855124
_symmetry_Int_Tables_number   1
_chemical_formula_structural   CoH16C22N4(ClO2)2
_chemical_formula_sum   'Co2 H32 C44 N8 Cl4 O8'
_cell_volume   1059.00235592
_cell_formula_units_Z   2
loop_
 _symmetry_equiv_pos_site_id
 _symmetry_equiv_pos_as_xyz
  1  'x, y, z'
loop_
 _atom_site_type_symbol
 _atom_site_label
 _atom_site_symmetry_multiplicity
 _atom_site_fract_x
 _atom_site_fract_y
 _atom_site_fract_z
 _atom_site_occupancy
 _atom_site_hle17_ddec_charge
 _atom_site_hle17_ddec_spin_density
 _atom_site_hle17_ddec_sum_bond_order
 _atom_site_hle17_magmom
 _atom_site_hse06_10hf_ddec_charge
 _atom_site_hse06_10hf_ddec_spin_density
 _atom_site_hse06_10hf_ddec_sum_bond_order
 _atom_site_hse06_10hf_magmom
 _atom_site_hse06_ddec_charge
 _atom_site_hse06_ddec_spin_density
 _atom_site_hse06_ddec_sum_bond_order
 _atom_site_hse06_magmom
 _atom_site_pbe_cm5_charge
 _atom_site_pbe_ddec_charge
 _atom_site_pbe_ddec_spin_density
 _atom_site_pbe_ddec_sum_bond_order
 _atom_site_pbe_magmom
Co  Co0  1  0.26856203  0.23456642  0.09135220  1  0.949354  2.814194  2.025717  2.527  0.890523  2.820019  2.476638  2.58  0.982244  2.867227  2.389845  2.671  0.680574  0.817965  2.773761  2.5426  2.493
Co  Co1  1  0.73143789  0.76543212  0.90864729  1  0.949427  2.814219  2.02573  2.527  0.890527  2.819998  2.476618  2.58  0.982281  2.867219  2.389818  2.671  0.68059  0.817989  2.773648  2.542637  2.494
H  H2  1  0.96965675  0.31729388  0.81618363  1  0.115282  -0.000194  0.972812  0.0  0.121413  -7.9e-05  1.040464  0.0  0.124047  -8.9e-05  1.040474  0.0  0.104849  0.119432  -6.8e-05  1.040607  0.0
H  H3  1  0.03034104  0.68270700  0.18381662  1  0.115254  -0.000195  0.972877  0.0  0.121426  -7.9e-05  1.040476  0.0  0.124067  -8.9e-05  1.040482  0.0  0.104847  0.119444  -6.8e-05  1.04062  0.0
H  H4  1  0.44287488  0.97428755  0.60041758  1  0.116625  3.4e-05  0.952704  0.0  0.121489  1.3e-05  1.022787  0.0  0.125365  -5e-06  1.019838  0.0  0.102842  0.118609  3.7e-05  1.025203  0.0
H  H5  1  0.55712453  0.02571216  0.39958479  1  0.116619  3.4e-05  0.952729  0.0  0.121493  1.3e-05  1.022789  0.0  0.125369  -5e-06  1.01984  0.0  0.102844  0.118613  3.7e-05  1.025205  0.0
H  H6  1  0.41603259  0.44277884  0.19959690  1  0.100473  -0.000129  0.970846  0.0  0.105775  -1.6e-05  1.041012  0.0  0.108442  -4.1e-05  1.037934  0.0  0.129032  0.10387  -3e-06  1.043048  0.0
H  H7  1  0.58396723  0.55721735  0.80040561  1  0.100514  -0.000128  0.970845  0.0  0.105791  -1.6e-05  1.041042  0.0  0.108459  -4.1e-05  1.037973  0.0  0.129029  0.103886  -2e-06  1.043084  0.0
H  H8  1  0.31127111  0.85439022  0.46449040  1  0.076968  1e-06  0.97239  0.0  0.087462  2e-06  1.035008  0.0  0.090254  2e-06  1.033335  0.0  0.08936  0.08543  3e-06  1.036351  0.0
H  H9  1  0.68872789  0.14561301  0.53551038  1  0.076977  1e-06  0.972375  0.0  0.087481  2e-06  1.034978  0.0  0.090273  2e-06  1.033305  0.0  0.089357  0.085448  3e-06  1.036321  0.0
H  H10  1  0.07103512  0.41017432  0.27527321  1  0.087591  -7.8e-05  0.990904  0.0  0.089898  0.000156  1.070539  0.0  0.092487  0.000109  1.06717  0.0  0.121993  0.088244  0.000206  1.072402  0.001
H  H11  1  0.92896601  0.58982657  0.72472463  1  0.087606  -7.8e-05  0.990874  0.0  0.089902  0.000156  1.070544  0.0  0.092504  0.000109  1.067127  0.0  0.121984  0.088245  0.000206  1.072418  0.001
H  H12  1  0.99844920  0.07665565  0.12045584  1  0.124347  4e-05  0.963219  0.0  0.12795  0.00017  1.02974  0.001  0.131605  0.000106  1.027121  0.0  0.122013  0.125322  0.000261  1.031574  0.001
H  H13  1  0.00155295  0.92334289  0.87954349  1  0.124356  4e-05  0.963209  0.0  0.127955  0.00017  1.029742  0.001  0.13161  0.000106  1.027122  0.0  0.122003  0.125327  0.000262  1.031578  0.001
H  H14  1  0.21767843  0.79203882  0.98029429  1  0.137182  0.000235  0.996305  0.0  0.142579  0.00018  1.061818  0.0  0.146431  0.000114  1.059398  0.0  0.122889  0.139458  0.000196  1.064177  0.0
H  H15  1  0.78232089  0.20795854  0.01970530  1  0.137281  0.000236  0.996329  0.0  0.142672  0.00018  1.061829  0.0  0.146524  0.000114  1.059409  0.0  0.12293  0.13955  0.000196  1.064191  0.0
H  H16  1  0.32172636  0.86787284  0.12004057  1  0.102652  3.3e-05  0.925115  0.0  0.112965  0.000105  0.992584  0.0  0.114493  6e-06  0.990909  0.0  0.118019  0.11135  0.000485  0.994424  0.0
H  H17  1  0.67827195  0.13212688  0.87995753  1  0.102629  3.1e-05  0.925137  0.0  0.112956  0.000105  0.992584  0.0  0.114497  6e-06  0.99092  0.0  0.118019  0.111341  0.000485  0.994425  0.0
H  H18  1  0.52034025  0.72891712  0.08415740  1  0.102626  -2.5e-05  0.940437  0.0  0.113912  0.000234  1.006238  0.0  0.115542  0.0001  1.004851  0.0  0.114573  0.112376  0.000405  1.007556  0.0
H  H19  1  0.47965967  0.27108141  0.91584281  1  0.102668  -2.6e-05  0.940427  0.0  0.113952  0.000234  1.006232  0.0  0.115595  0.0001  1.004852  0.0  0.114577  0.112416  0.000404  1.007548  0.0
H  H20  1  0.13898393  0.53745036  0.95784954  1  0.108451  -3.2e-05  0.958603  0.001  0.117081  0.000187  1.020036  0.001  0.119346  5.6e-05  1.019283  0.0  0.117534  0.11532  0.00031  1.021044  0.001
H  H21  1  0.86101580  0.46254348  0.04215310  1  0.10845  -3.2e-05  0.958543  0.001  0.117052  0.000187  1.020023  0.001  0.119316  5.6e-05  1.019271  0.0  0.11754  0.11533  0.00031  1.020983  0.001
H  H22  1  0.23630390  0.91069149  0.29354583  1  0.096274  -9.3e-05  0.947659  0.0  0.107331  -8.9e-05  1.008728  0.0  0.109693  -8.1e-05  1.008832  0.0  0.098926  0.105838  -8.3e-05  1.008372  0.0
H  H23  1  0.76369885  0.08930822  0.70645413  1  0.096332  -9.3e-05  0.94753  0.0  0.107376  -8.9e-05  1.008624  0.0  0.109736  -8.1e-05  1.00873  0.0  0.098959  0.105885  -8.3e-05  1.008263  0.0
H  H24  1  0.67527257  0.51488360  0.19996097  1  0.097351  -5.6e-05  0.971905  0.0  0.104977  -6e-05  1.041136  0.0  0.10775  -5.3e-05  1.040472  0.0  0.101556  0.102894  -7e-05  1.041899  0.0
H  H25  1  0.32472574  0.48511611  0.80003713  1  0.097375  -5.5e-05  0.971914  0.0  0.104997  -6e-05  1.041142  0.0  0.107768  -5.2e-05  1.04048  0.0  0.101572  0.102915  -7e-05  1.041902  0.0
H  H26  1  0.56338087  0.62344766  0.50454831  1  0.094994  -2e-05  0.945739  0.0  0.108186  -8e-06  1.002815  0.0  0.110984  -8e-06  1.001969  0.0  0.097087  0.106109  -7e-06  1.003583  0.0
H  H27  1  0.43661976  0.37655440  0.49545024  1  0.09501  -1.9e-05  0.94568  0.0  0.108186  -9e-06  1.002776  0.0  0.110984  -8e-06  1.001933  0.0  0.097089  0.106131  -7e-06  1.003521  0.0
H  H28  1  0.75868052  0.17777199  0.27670818  1  0.117844  0.000298  0.971711  0.0  0.127707  0.00029  1.031924  0.0  0.129814  0.000204  1.031988  0.0  0.119377  0.125986  0.000389  1.032232  0.0
H  H29  1  0.24131727  0.82222889  0.72329208  1  0.117901  0.000298  0.971697  0.0  0.127761  0.00029  1.03192  0.0  0.129865  0.000204  1.031983  0.0  0.119387  0.126039  0.000389  1.032228  0.0
H  H30  1  0.86628131  0.45153991  0.41815857  1  0.077295  -5e-05  0.957831  0.0  0.084107  -8e-06  1.038927  0.0  0.085095  -1.1e-05  1.038094  0.0  0.101946  0.083219  -5e-06  1.039738  0.0
H  H31  1  0.13371820  0.54846215  0.58184078  1  0.077243  -4.2e-05  0.957877  0.0  0.084092  -8e-06  1.038941  0.0  0.085079  -1.1e-05  1.03811  0.0  0.101933  0.0832  -5e-06  1.039749  0.0
H  H32  1  0.75610515  0.33461764  0.43558466  1  0.085064  5.1e-05  0.93199  0.0  0.100876  7.6e-05  0.995273  0.0  0.101587  5e-05  0.994669  0.0  0.110894  0.100292  0.000105  0.995806  0.0
H  H33  1  0.24389437  0.66538442  0.56441324  1  0.085053  5.6e-05  0.931954  0.0  0.100868  7.6e-05  0.995261  0.0  0.101579  5e-05  0.994657  0.0  0.110871  0.100279  0.000105  0.995795  0.0
C  C34  1  0.06642356  0.25682726  0.66829595  1  0.07781  -0.00303  3.808581  -0.002  0.080528  -0.000499  4.083178  0.0  0.083658  -0.000622  4.104356  0.0  0.00508  0.078247  -0.000591  4.0679  0.0
C  C35  1  0.93357474  0.74317245  0.33170505  1  0.077813  -0.003042  3.808583  -0.002  0.080511  -0.000497  4.083188  0.0  0.083643  -0.000621  4.104365  0.0  0.005068  0.078231  -0.000592  4.067912  0.0
C  C36  1  0.21345775  0.12503932  0.91948062  1  0.664833  -0.004637  3.913507  -0.005  0.615586  0.002369  4.220873  0.001  0.652651  0.001277  4.212605  0.0  0.212583  0.589024  0.00335  4.225443  0.001
C  C37  1  0.78653964  0.87496509  0.08051804  1  0.664907  -0.004636  3.913318  -0.005  0.615668  0.00237  4.22067  0.001  0.652731  0.001277  4.212402  0.0  0.212608  0.589107  0.003351  4.225258  0.001
C  C38  1  0.20035378  0.16171777  0.60634401  1  0.054868  0.002257  3.827907  0.003  0.058983  0.001344  4.102035  0.002  0.059839  0.000977  4.123918  0.001  -0.002046  0.058347  0.001845  4.087208  0.002
C  C39  1  0.79964290  0.83828311  0.39365633  1  0.054876  0.002262  3.827934  0.003  0.059028  0.001344  4.102021  0.002  0.059884  0.000976  4.123902  0.001  -0.002008  0.058392  0.001845  4.087194  0.002
C  C40  1  0.34634492  0.03478786  0.74804874  1  -0.060274  0.004314  3.719525  0.006  -0.046878  0.002326  3.950816  0.003  -0.052302  0.001539  3.969168  0.002  -0.012248  -0.043553  0.003202  3.939438  0.004
C  C41  1  0.65365681  0.96521420  0.25195191  1  -0.060163  0.004316  3.71947  0.006  -0.046762  0.002326  3.950748  0.003  -0.052185  0.001539  3.969101  0.002  -0.012205  -0.043436  0.003201  3.939364  0.004
C  C42  1  0.07387172  0.24193911  0.76909505  1  -0.141638  0.001797  3.719992  0.002  -0.174238  0.001019  3.976022  0.001  -0.177177  0.000771  3.995118  0.001  -0.094076  -0.17135  0.001353  3.961364  0.002
C  C43  1  0.92612497  0.75806177  0.23090601  1  -0.141667  0.001803  3.720101  0.002  -0.174315  0.001018  3.976167  0.001  -0.177263  0.00077  3.995269  0.001  -0.0941  -0.171426  0.001353  3.961509  0.002
C  C44  1  0.21370939  0.13300529  0.80978039  1  -0.012349  0.000496  3.674995  0.002  0.001814  0.000591  3.905629  0.002  0.002158  -0.000199  3.920507  0.001  0.003376  0.00111  0.001483  3.895975  0.002
C  C45  1  0.78628840  0.86699560  0.19021914  1  -0.012367  0.000496  3.674992  0.002  0.001784  0.00059  3.905648  0.002  0.002129  -0.000198  3.920526  0.001  0.003345  0.001082  0.001483  3.895995  0.002
C  C46  1  0.33784995  0.04995507  0.64699774  1  -0.122841  -0.002275  3.746414  -0.001  -0.155827  8e-06  4.004326  0.0  -0.155896  -0.000239  4.023134  0.0  -0.089501  -0.156038  0.000136  3.992244  0.0
C  C47  1  0.66215197  0.95005168  0.35300338  1  -0.122894  -0.002284  3.74642  -0.001  -0.15589  7e-06  4.004338  0.0  -0.15596  -0.000238  4.023146  0.0  -0.089536  -0.156101  0.000136  3.992258  0.0
C  C48  1  0.49951525  0.91217202  0.78580155  1  0.621587  -0.007362  3.928405  -0.007  0.579654  0.001061  4.225224  0.0  0.615431  0.000648  4.221654  0.0  0.198081  0.554073  0.001459  4.22617  0.0
C  C49  1  0.50048467  0.08782651  0.21419939  1  0.621495  -0.007359  3.928545  -0.007  0.579558  0.001062  4.225377  0.0  0.615332  0.000648  4.22181  0.0  0.198036  0.553977  0.001457  4.226308  0.0
C  C50  1  0.35298641  0.50167544  0.13627483  1  0.145143  -0.006944  3.666307  -0.004  0.08632  0.001713  3.937815  0.003  0.101635  0.001342  3.951588  0.002  0.132345  0.075773  0.001771  3.928375  0.003
C  C51  1  0.64701351  0.49832309  0.86372683  1  0.145075  -0.006969  3.666343  -0.004  0.08627  0.001713  3.937829  0.003  0.101579  0.001342  3.951603  0.002  0.132355  0.075724  0.001773  3.928402  0.003
C  C52  1  0.38944682  0.77701478  0.40699981  1  -0.071203  -0.000314  3.821575  0.0  -0.084603  -9.8e-05  4.079415  0.0  -0.086355  -0.00012  4.101451  0.0  -0.099804  -0.083431  -1.9e-05  4.064637  0.0
C  C53  1  0.61055380  0.22298728  0.59300019  1  -0.071211  -0.00031  3.821466  0.0  -0.084612  -9.8e-05  4.079299  0.0  -0.086363  -0.000119  4.101334  0.0  -0.099803  -0.083442  -1.9e-05  4.064529  0.0
C  C54  1  0.01861661  0.33487464  0.25247162  1  0.167176  -0.004825  3.65537  -0.003  0.10869  0.002763  3.926625  0.004  0.124099  0.00232  3.939522  0.003  0.139623  0.098218  0.003007  3.917114  0.004
C  C55  1  0.98138452  0.66512624  0.74752768  1  0.167204  -0.004849  3.655401  -0.003  0.10869  0.002762  3.926676  0.004  0.124105  0.002319  3.939585  0.003  0.139654  0.098219  0.003009  3.917178  0.004
C  C56  1  0.97805152  0.16014843  0.17619407  1  0.006359  -0.002932  3.714962  -0.001  -0.02225  0.001292  3.986707  0.002  -0.018645  0.000879  4.005221  0.002  0.003444  -0.025165  0.001689  3.974063  0.003
C  C57  1  0.02194688  0.83985362  0.82380681  1  0.006381  -0.002915  3.714957  -0.001  -0.022231  0.001292  3.9867  0.002  -0.018625  0.000877  4.005215  0.002  0.003454  -0.025143  0.001691  3.974063  0.003
C  C58  1  0.44986126  0.71414841  0.23626521  1  0.085229  -0.000327  3.754004  0.0  0.105868  -0.00011  3.994977  0.0  0.105468  -0.000159  4.019098  0.0  -0.00936  0.105849  -8.6e-05  3.978709  0.0
C  C59  1  0.55013825  0.28585365  0.76373486  1  0.085387  -0.000317  3.753951  0.0  0.105918  -0.000109  3.995083  0.0  0.105538  -0.000156  4.019212  0.0  -0.009327  0.105898  -8.6e-05  3.978816  0.0
C  C60  1  0.24681060  0.68090044  0.02000740  1  -0.06715  0.002778  3.647599  0.004  -0.106636  0.00107  3.900839  0.002  -0.105398  0.000566  3.918511  0.001  -0.000907  -0.107376  0.001641  3.889957  0.002
C  C61  1  0.75318650  0.31909692  0.97999453  1  -0.06725  0.00277  3.647702  0.004  -0.106732  0.00107  3.900923  0.002  -0.105493  0.000567  3.918586  0.001  -0.000968  -0.107471  0.001641  3.890051  0.002
C  C62  1  0.40925742  0.74643569  0.13197006  1  -0.048275  0.000805  3.612183  0.001  -0.112109  0.000899  3.853986  0.001  -0.107328  0.00064  3.862705  0.001  -0.047784  -0.114841  0.0009  3.848127  0.001
C  C63  1  0.59074029  0.25356284  0.86802886  1  -0.048357  0.00081  3.612149  0.001  -0.112182  0.000899  3.854014  0.001  -0.107469  0.00064  3.862823  0.001  -0.047803  -0.114912  0.0009  3.848153  0.001
C  C64  1  0.63493739  0.55121413  0.35505555  1  0.074411  -0.000301  3.750949  0.0  0.099359  -4e-06  3.985784  0.0  0.098179  -5.4e-05  4.011331  0.0  -0.0151  0.100183  8.1e-05  3.968131  0.0
C  C65  1  0.36506597  0.44878675  0.64494359  1  0.074398  -0.00027  3.75097  0.0  0.099369  -6e-06  3.985789  0.0  0.09819  -5.4e-05  4.011334  0.0  -0.015126  0.100186  8.1e-05  3.968139  0.0
C  C66  1  0.20910150  0.55583215  0.01044668  1  -0.007626  -0.003247  3.748708  -0.002  -0.037047  0.001098  4.020366  0.002  -0.034295  0.000699  4.041174  0.001  -0.009178  -0.039759  0.001476  4.007066  0.002
C  C67  1  0.79089883  0.44416287  0.98955441  1  -0.007678  -0.00323  3.74876  -0.002  -0.037086  0.001098  4.02043  0.002  -0.034334  0.000699  4.041243  0.001  -0.009215  -0.039827  0.001477  4.007116  0.002
C  C68  1  0.34766465  0.80969590  0.31088389  1  -0.113766  0.000154  3.740259  0.0  -0.138725  6.9e-05  3.992707  0.0  -0.141621  5e-05  4.014681  0.0  -0.093654  -0.136696  4.3e-05  3.977825  0.0
C  C69  1  0.65233476  0.19030381  0.68911776  1  -0.113883  0.000153  3.740073  0.0  -0.138798  6.9e-05  3.992554  0.0  -0.141692  4.8e-05  4.014519  0.0  -0.093712  -0.136769  4.4e-05  3.977675  0.0
C  C70  1  0.59431442  0.58654397  0.25905263  1  -0.163242  0.00025  3.706216  0.0  -0.190278  0.000179  3.948983  0.0  -0.193635  0.000136  3.970575  0.0  -0.092454  -0.18772  0.000124  3.934075  0.0
C  C71  1  0.40568611  0.41345575  0.74094677  1  -0.163282  0.000236  3.706201  0.0  -0.190277  0.00018  3.948991  0.0  -0.193632  0.000136  3.970576  0.0  -0.092448  -0.187719  0.000124  3.934083  0.0
C  C72  1  0.53128231  0.64803090  0.42935567  1  -0.128401  0.000269  3.758427  0.0  -0.150775  0.00019  4.008464  0.0  -0.154291  0.000147  4.031548  0.0  -0.099351  -0.148312  0.000142  3.992839  0.0
C  C73  1  0.46871831  0.35197116  0.57064433  1  -0.128421  0.000262  3.758454  0.0  -0.150789  0.000191  4.008498  0.0  -0.154305  0.000146  4.031582  0.0  -0.099348  -0.148343  0.000142  3.99287  0.0
C  C74  1  0.85922684  0.20940120  0.25270082  1  -0.065153  0.003832  3.65426  0.005  -0.103153  0.001888  3.904731  0.003  -0.102392  0.001263  3.923773  0.002  7.7e-05  -0.103764  0.00253  3.892115  0.003
C  C75  1  0.14077328  0.79060203  0.74730061  1  -0.065211  0.003827  3.654272  0.005  -0.103217  0.001888  3.904745  0.003  -0.102452  0.001263  3.923783  0.002  7.6e-05  -0.103826  0.002531  3.892129  0.003
C  C76  1  0.78800584  0.41229377  0.38231663  1  -0.043325  0.000485  3.671004  0.001  -0.11051  0.000399  3.918615  0.001  -0.105789  0.00029  3.928814  0.0  -0.048178  -0.113505  0.000504  3.911687  0.001
C  C77  1  0.21199691  0.58770595  0.61768188  1  -0.043258  0.000469  3.670981  0.001  -0.110493  0.000399  3.918589  0.001  -0.105772  0.000291  3.928791  0.0  -0.048153  -0.11347  0.000504  3.911638  0.001
N  N78  1  0.07652980  0.24001045  0.17703412  1  -0.387135  0.038967  3.369384  0.058  -0.341805  0.029616  3.694089  0.034  -0.371554  0.023351  3.705579  0.026  -0.370118  -0.319775  0.03492  3.686657  0.041
N  N79  1  0.92347073  0.75998926  0.82296600  1  -0.387176  0.038968  3.369432  0.058  -0.341818  0.029617  3.694114  0.034  -0.371579  0.023352  3.705617  0.026  -0.370139  -0.319797  0.034924  3.686723  0.041
N  N80  1  0.88713591  0.31940157  0.30027166  1  -0.060787  0.000957  3.599734  0.002  0.03509  0.001568  3.811337  0.002  0.02092  0.001151  3.835909  0.002  -0.246163  0.044233  0.001911  3.794971  0.003
N  N81  1  0.11286471  0.68060049  0.69972834  1  -0.060837  0.000965  3.599747  0.002  0.035071  0.001568  3.81137  0.002  0.020899  0.001152  3.835944  0.002  -0.24616  0.044211  0.001911  3.795003  0.003
N  N82  1  0.27602274  0.44445563  0.08328971  1  -0.395842  0.041546  3.361801  0.065  -0.348825  0.030622  3.682093  0.039  -0.379257  0.024108  3.695801  0.03  -0.373813  -0.325967  0.036367  3.672496  0.047
N  N83  1  0.72397829  0.55554290  0.91671261  1  -0.39581  0.041548  3.361754  0.065  -0.348781  0.030622  3.682014  0.039  -0.379219  0.024108  3.695729  0.03  -0.373799  -0.325933  0.03637  3.672468  0.047
N  N84  1  0.33735828  0.64483296  0.09977227  1  -0.04868  0.001391  3.537079  0.003  0.048421  0.002001  3.747752  0.003  0.033835  0.001565  3.77299  0.003  -0.236372  0.057888  0.00245  3.730977  0.004
N  N85  1  0.66263942  0.35516558  0.90022884  1  -0.048614  0.001396  3.537077  0.003  0.048505  0.002002  3.747724  0.003  0.03394  0.001565  3.772975  0.003  -0.236331  0.057973  0.00245  3.730947  0.004
Cl  Cl86  1  0.89263330  0.39659078  0.62173084  1  -0.064444  -0.000276  1.460183  0.0  -0.045972  4.6e-05  1.713523  0.0  -0.049263  -1.5e-05  1.708916  0.0  0.036149  -0.04393  9.8e-05  1.716751  0.0
Cl  Cl87  1  0.10736501  0.60340893  0.37827016  1  -0.064428  -0.000278  1.460172  0.0  -0.045954  4.6e-05  1.713513  0.0  -0.049242  -1.5e-05  1.708909  0.0  0.036163  -0.043913  9.8e-05  1.716741  0.0
Cl  Cl88  1  0.20077431  0.18543055  0.48104303  1  -0.059525  0.000259  1.409878  0.0  -0.042692  0.000284  1.64808  0.0  -0.045194  0.000146  1.642976  0.0  0.021004  -0.040923  0.000475  1.651727  0.001
Cl  Cl89  1  0.79922451  0.81456798  0.51895726  1  -0.059523  0.000258  1.409869  0.0  -0.042701  0.000284  1.648059  0.0  -0.045203  0.000146  1.642955  0.0  0.020994  -0.040931  0.000475  1.651705  0.001
O  O90  1  0.52954475  0.93466197  0.87174465  1  -0.591357  0.055446  2.060294  0.092  -0.550892  0.039831  2.337785  0.059  -0.594269  0.02923  2.326875  0.043  -0.312814  -0.516592  0.050813  2.34383  0.076
O  O91  1  0.47045740  0.06533657  0.12825613  1  -0.591327  0.055446  2.060281  0.092  -0.55088  0.039828  2.337793  0.059  -0.594244  0.029228  2.32688  0.043  -0.312819  -0.516581  0.050803  2.343814  0.076
O  O92  1  0.58955962  0.79699214  0.73480585  1  -0.619576  0.008002  1.903633  0.014  -0.58594  0.010141  2.13281  0.017  -0.612424  0.007212  2.125691  0.012  -0.329553  -0.565495  0.0139  2.136091  0.023
O  O93  1  0.41044151  0.20300875  0.26519272  1  -0.619506  0.008002  1.90369  0.014  -0.585883  0.010141  2.132876  0.017  -0.612365  0.007211  2.125754  0.012  -0.329507  -0.565441  0.013897  2.136152  0.023
O  O94  1  0.18113357  0.02373819  0.96869795  1  -0.591113  0.003648  1.932775  0.006  -0.548754  0.005174  2.159581  0.008  -0.575325  0.003634  2.152277  0.006  -0.298983  -0.529053  0.007348  2.164323  0.012
O  O95  1  0.81886877  0.97626504  0.03130259  1  -0.591171  0.003646  1.932795  0.006  -0.548824  0.005174  2.159623  0.008  -0.575392  0.003635  2.152312  0.006  -0.298998  -0.529123  0.007349  2.164374  0.012
O  O96  1  0.23988730  0.23635210  0.95349742  1  -0.624118  0.054591  2.089991  0.092  -0.586619  0.03999  2.380428  0.06  -0.630646  0.029784  2.368139  0.045  -0.323767  -0.551412  0.049808  2.38697  0.075
O  O97  1  0.76010958  0.76365348  0.04650050  1  -0.624168  0.05459  2.08989  0.092  -0.58665  0.039992  2.380315  0.06  -0.630685  0.029786  2.368029  0.045  -0.323778  -0.551439  0.049818  2.386874  0.074
