# generated using pymatgen
data_Ag2H4C4O5
_symmetry_space_group_name_H-M   'P 1'
_cell_length_a   5.44711232
_cell_length_b   6.53109841
_cell_length_c   19.05199264
_cell_angle_alpha   90.00019020
_cell_angle_beta   89.99979018
_cell_angle_gamma   110.92024665
_symmetry_Int_Tables_number   1
_chemical_formula_structural   Ag2H4C4O5
_chemical_formula_sum   'Ag8 H16 C16 O20'
_cell_volume   633.10577075
_cell_formula_units_Z   4
loop_
 _symmetry_equiv_pos_site_id
 _symmetry_equiv_pos_as_xyz
  1  'x, y, z'
loop_
 _atom_site_type_symbol
 _atom_site_label
 _atom_site_symmetry_multiplicity
 _atom_site_fract_x
 _atom_site_fract_y
 _atom_site_fract_z
 _atom_site_occupancy
 _atom_site_hle17_bader_spin_density
 _atom_site_hle17_ddec_charge
 _atom_site_hle17_ddec_spin_density
 _atom_site_hle17_ddec_sum_bond_order
 _atom_site_hle17_magmom
 _atom_site_hse06_10hf_bader_spin_density
 _atom_site_hse06_10hf_ddec_charge
 _atom_site_hse06_10hf_ddec_spin_density
 _atom_site_hse06_10hf_ddec_sum_bond_order
 _atom_site_hse06_10hf_magmom
 _atom_site_hse06_bader_spin_density
 _atom_site_hse06_ddec_charge
 _atom_site_hse06_ddec_spin_density
 _atom_site_hse06_ddec_sum_bond_order
 _atom_site_hse06_magmom
 _atom_site_pbe_bader_spin_density
 _atom_site_pbe_cm5_charge
 _atom_site_pbe_ddec_charge
 _atom_site_pbe_ddec_spin_density
 _atom_site_pbe_ddec_sum_bond_order
 _atom_site_pbe_magmom
Ag  Ag0  1  0.40324288  0.95092492  0.60111631  1  0  0.619974  0  1.319818  0  0  0.49152  0  1.766593  0  0  0.531823  0  1.702958  0  0  0.4182  0.462831  0  1.811  0
Ag  Ag1  1  0.59676027  0.54907443  0.10112164  1  0  0.619973  0  1.319748  0  0  0.491493  0  1.766473  0  0  0.531797  0  1.702844  0  0  0.418159  0.462802  0  1.810886  0
Ag  Ag2  1  0.59673815  0.04907462  0.39887717  1  0  0.619924  0  1.319876  0  0  0.491519  0  1.766544  0  0  0.531813  0  1.702911  0  0  0.418182  0.462832  0  1.810945  0
Ag  Ag3  1  0.40325733  0.45093345  0.89887552  1  0  0.619895  0  1.319794  0  0  0.491493  0  1.766467  0  0  0.531789  0  1.702834  0  0  0.418161  0.462804  0  1.81088  0
Ag  Ag4  1  0.27118157  0.71803933  0.17661580  1  0  0.613751  0  1.397985  0  0  0.50623  0  1.853942  0  0  0.540126  0  1.792911  0  0  0.430829  0.482566  0  1.896209  0
Ag  Ag5  1  0.72882567  0.78195914  0.67661370  1  0  0.613743  0  1.398037  0  0  0.506213  0  1.854055  0  0  0.540109  0  1.79302  0  0  0.430826  0.482546  0  1.896326  0
Ag  Ag6  1  0.72884242  0.28194894  0.82338660  1  0  0.613753  0  1.397787  0  0  0.506188  0  1.853862  0  0  0.540087  0  1.792812  0  0  0.430811  0.482518  0  1.896139  0
Ag  Ag7  1  0.27115654  0.21805187  0.32338818  1  0  0.613761  0  1.39781  0  0  0.506189  0  1.853886  0  0  0.540089  0  1.792839  0  0  0.430822  0.482519  0  1.896164  0
H  H8  1  0.10443808  0.98702675  0.83389842  1  0  0.098373  0  0.941382  0  0  0.108475  0  1.008907  0  0  0.110783  0  1.006735  0  0  0.108859  0.106787  0  1.010591  0
H  H9  1  0.89554210  0.51296495  0.33390081  1  0  0.098407  0  0.94135  0  0  0.108502  0  1.008919  0  0  0.110804  0  1.006761  0  0  0.108881  0.10682  0  1.010601  0
H  H10  1  0.89557678  0.01298766  0.16610241  1  0  0.098324  0  0.941228  0  0  0.108415  0  1.008838  0  0  0.110726  0  1.006666  0  0  0.108838  0.106732  0  1.01052  0
H  H11  1  0.10441427  0.48700668  0.66610317  1  0  0.098369  0  0.94121  0  0  0.108467  0  1.008825  0  0  0.110782  0  1.006643  0  0  0.10888  0.106781  0  1.010509  0
H  H12  1  0.93933389  0.70133942  0.82064417  1  0  0.058924  0  0.976893  0  0  0.060064  0  1.074391  0  0  0.064218  0  1.066553  0  0  0.088855  0.056957  0  1.080139  0
H  H13  1  0.06065998  0.79865385  0.32064549  1  0  0.058938  0  0.976867  0  0  0.060099  0  1.074382  0  0  0.064254  0  1.066535  0  0  0.088866  0.056998  0  1.080128  0
H  H14  1  0.06066188  0.29867328  0.17936138  1  0  0.058907  0  0.97692  0  0  0.060038  0  1.074492  0  0  0.064189  0  1.066667  0  0  0.088856  0.056929  0  1.080237  0
H  H15  1  0.93933661  0.20131304  0.67936059  1  0  0.058856  0  0.976933  0  0  0.06001  0  1.074495  0  0  0.064164  0  1.066665  0  0  0.088832  0.056904  0  1.08024  0
H  H16  1  0.90933976  0.72676443  0.94851953  1  0  0.083025  0  0.94055  0  0  0.091863  0  1.014331  0  0  0.094211  0  1.011214  0  0  0.102598  0.090059  0  1.016795  0
H  H17  1  0.09066282  0.77325793  0.44852080  1  0  0.082911  0  0.940564  0  0  0.091773  0  1.01435  0  0  0.094132  0  1.01122  0  0  0.102573  0.089929  0  1.016847  0
H  H18  1  0.09069924  0.27325499  0.05148654  1  0  0.08299  0  0.940458  0  0  0.091859  0  1.014274  0  0  0.094211  0  1.011147  0  0  0.102589  0.090029  0  1.01676  0
H  H19  1  0.90929777  0.22674972  0.55148370  1  0  0.082984  0  0.940526  0  0  0.091902  0  1.014277  0  0  0.094253  0  1.011152  0  0  0.102593  0.090064  0  1.016768  0
H  H20  1  0.15120517  0.99443937  0.95662519  1  0  0.094212  0  0.949908  0  0  0.10316  0  1.020377  0  0  0.105259  0  1.018637  0  0  0.107305  0.101548  0  1.021855  0
H  H21  1  0.84882673  0.50557010  0.45662710  1  0  0.09412  0  0.949776  0  0  0.103067  0  1.020298  0  0  0.105168  0  1.018555  0  0  0.107266  0.101447  0  1.021778  0
H  H22  1  0.84884647  0.00557520  0.04338193  1  0  0.094092  0  0.949819  0  0  0.103043  0  1.020416  0  0  0.105139  0  1.018678  0  0  0.107246  0.101431  0  1.021887  0
H  H23  1  0.15114580  0.49443105  0.54338161  1  0  0.094131  0  0.949843  0  0  0.10306  0  1.020453  0  0  0.105156  0  1.018715  0  0  0.107271  0.101447  0  1.021922  0
C  C24  1  0.22902121  0.74868999  0.01720836  1  0  0.673596  0  3.857543  0  0  0.621288  0  4.142663  0  0  0.655524  0  4.14098  0  0  0.206682  0.59785  0  4.142929  0
C  C25  1  0.77098900  0.75132330  0.51721249  1  0  0.673102  0  3.857621  0  0  0.620849  0  4.142765  0  0  0.655081  0  4.141094  0  0  0.206516  0.597416  0  4.143012  0
C  C26  1  0.77101801  0.25132125  0.98278722  1  0  0.673017  0  3.857985  0  0  0.620852  0  4.143001  0  0  0.655089  0  4.141339  0  0  0.206476  0.597416  0  4.143249  0
C  C27  1  0.22897205  0.24868108  0.48278414  1  0  0.673043  0  3.857805  0  0  0.620856  0  4.142857  0  0  0.655092  0  4.141189  0  0  0.2065  0.597418  0  4.143106  0
C  C28  1  0.30272994  0.84245240  0.76451130  1  0  0.662129  0  3.877587  0  0  0.610121  0  4.163287  0  0  0.644641  0  4.160901  0  0  0.199175  0.586503  0  4.164098  0
C  C29  1  0.69727069  0.65754198  0.26451347  1  0  0.661976  0  3.877811  0  0  0.609892  0  4.163704  0  0  0.6444  0  4.161334  0  0  0.19895  0.586283  0  4.164505  0
C  C30  1  0.69727500  0.15754725  0.23548796  1  0  0.661831  0  3.877975  0  0  0.609788  0  4.163794  0  0  0.644304  0  4.161414  0  0  0.199004  0.586173  0  4.1646  0
C  C31  1  0.30271975  0.34244942  0.73548211  1  0  0.661916  0  3.877828  0  0  0.609851  0  4.163704  0  0  0.644371  0  4.161335  0  0  0.199029  0.586239  0  4.1645  0
C  C32  1  0.13563860  0.82958555  0.82910147  1  0  -0.078613  0  3.6609  0  0  -0.128977  0  3.912922  0  0  -0.128499  0  3.916354  0  0  -0.077976  -0.129274  0  3.910701  0
C  C33  1  0.86436210  0.67041110  0.32910348  1  0  -0.078565  0  3.660824  0  0  -0.129137  0  3.913166  0  0  -0.128655  0  3.916588  0  0  -0.078016  -0.129457  0  3.910977  0
C  C34  1  0.86437740  0.17042723  0.17089831  1  0  -0.078282  0  3.660517  0  0  -0.128843  0  3.912896  0  0  -0.12837  0  3.916319  0  0  -0.077928  -0.129144  0  3.910689  0
C  C35  1  0.13561613  0.32956880  0.67089629  1  0  -0.078408  0  3.660579  0  0  -0.128951  0  3.912949  0  0  -0.12848  0  3.916371  0  0  -0.078007  -0.129252  0  3.910737  0
C  C36  1  0.12328673  0.81934754  0.95164613  1  0  -0.075312  0  3.631069  0  0  -0.122659  0  3.874873  0  0  -0.122555  0  3.879473  0  0  -0.07392  -0.122673  0  3.87168  0
C  C37  1  0.87671372  0.68065684  0.45164447  1  0  -0.07496  0  3.630757  0  0  -0.122396  0  3.874544  0  0  -0.122322  0  3.87917  0  0  -0.073927  -0.122375  0  3.871358  0
C  C38  1  0.87674860  0.18067186  0.04835680  1  0  -0.074952  0  3.63067  0  0  -0.122513  0  3.874681  0  0  -0.122427  0  3.879318  0  0  -0.073906  -0.122497  0  3.871473  0
C  C39  1  0.12325052  0.31933773  0.54835531  1  0  -0.075113  0  3.630773  0  0  -0.122604  0  3.874684  0  0  -0.122522  0  3.879329  0  0  -0.073942  -0.12258  0  3.871478  0
O  O40  1  0.11727602  0.76954651  0.07414630  1  0  -0.61962  0  2.111025  0  0  -0.537916  0  2.390925  0  0  -0.572466  0  2.379792  0  0  -0.324637  -0.513846  0  2.397838  0
O  O41  1  0.88274186  0.73044772  0.57414821  1  0  -0.619356  0  2.11099  0  0  -0.537694  0  2.390914  0  0  -0.572243  0  2.379789  0  0  -0.324507  -0.513626  0  2.397819  0
O  O42  1  0.88276241  0.23042382  0.92585505  1  0  -0.619301  0  2.110909  0  0  -0.537738  0  2.390944  0  0  -0.572247  0  2.379711  0  0  -0.324557  -0.513676  0  2.397872  0
O  O43  1  0.11723302  0.26957634  0.42585367  1  0  -0.619268  0  2.110874  0  0  -0.537719  0  2.390943  0  0  -0.572222  0  2.379706  0  0  -0.324544  -0.513668  0  2.397894  0
O  O44  1  0.19081908  0.85194670  0.70652739  1  0  -0.638025  0  2.184329  0  0  -0.549372  0  2.466321  0  0  -0.585567  0  2.455502  0  0  -0.325935  -0.524061  0  2.472936  0
O  O45  1  0.80918395  0.64804713  0.20653260  1  0  -0.637962  0  2.184323  0  0  -0.549229  0  2.466287  0  0  -0.585421  0  2.455476  0  0  -0.325839  -0.52392  0  2.472896  0
O  O46  1  0.80916605  0.14803650  0.29346609  1  0  -0.637869  0  2.184677  0  0  -0.549123  0  2.466601  0  0  -0.585317  0  2.455785  0  0  -0.325787  -0.523812  0  2.473211  0
O  O47  1  0.19082307  0.35195743  0.79346246  1  0  -0.637928  0  2.184594  0  0  -0.549174  0  2.466527  0  0  -0.585373  0  2.455713  0  0  -0.325805  -0.523862  0  2.473136  0
O  O48  1  0.41408407  0.67530695  0.01097110  1  0  -0.619606  0  2.152387  0  0  -0.534751  0  2.427558  0  0  -0.569226  0  2.41642  0  0  -0.315848  -0.510678  0  2.434495  0
O  O49  1  0.58592549  0.82470464  0.51097285  1  0  -0.619373  0  2.15245  0  0  -0.534596  0  2.427661  0  0  -0.56907  0  2.416527  0  0  -0.315795  -0.510524  0  2.434589  0
O  O50  1  0.58594568  0.32468626  0.98902185  1  0  -0.619269  0  2.152404  0  0  -0.53451  0  2.427569  0  0  -0.568987  0  2.416441  0  0  -0.315674  -0.51044  0  2.4345  0
O  O51  1  0.41402934  0.17529807  0.48902168  1  0  -0.619356  0  2.152576  0  0  -0.534558  0  2.427699  0  0  -0.569034  0  2.416566  0  0  -0.315729  -0.510486  0  2.434626  0
O  O52  1  0.53697205  0.84775648  0.77146847  1  0  -0.610222  0  2.109307  0  0  -0.533476  0  2.388239  0  0  -0.566305  0  2.376714  0  0  -0.318371  -0.510735  0  2.395546  0
O  O53  1  0.46304319  0.65222494  0.27146823  1  0  -0.610155  0  2.109646  0  0  -0.533361  0  2.388566  0  0  -0.566179  0  2.377038  0  0  -0.318254  -0.510619  0  2.395861  0
O  O54  1  0.46303726  0.15224482  0.22853131  1  0  -0.610217  0  2.109265  0  0  -0.533469  0  2.388237  0  0  -0.566295  0  2.376708  0  0  -0.318391  -0.510729  0  2.395541  0
O  O55  1  0.53696470  0.34775999  0.72852893  1  0  -0.610207  0  2.109263  0  0  -0.533468  0  2.388293  0  0  -0.566278  0  2.376719  0  0  -0.31838  -0.510726  0  2.395593  0
O  O56  1  0.25541476  0.78551544  0.89062409  1  0  -0.262678  0  2.385056  0  0  -0.185561  0  2.636899  0  0  -0.201976  0  2.637856  0  0  -0.225768  -0.173815  0  2.635892  0
O  O57  1  0.74458028  0.71447851  0.39062468  1  0  -0.26281  0  2.385111  0  0  -0.185449  0  2.63688  0  0  -0.201844  0  2.63782  0  0  -0.22571  -0.173698  0  2.635863  0
O  O58  1  0.74460999  0.21450065  0.10937674  1  0  -0.262836  0  2.385066  0  0  -0.185482  0  2.636911  0  0  -0.201885  0  2.637859  0  0  -0.225753  -0.173736  0  2.635895  0
O  O59  1  0.25538692  0.28550135  0.60937352  1  0  -0.262684  0  2.385024  0  0  -0.18541  0  2.63693  0  0  -0.201819  0  2.637884  0  0  -0.225725  -0.173668  0  2.635911  0
