# generated using pymatgen
data_CdH24C22(N3O2)2
_symmetry_space_group_name_H-M   'P 1'
_cell_length_a   10.96302790
_cell_length_b   10.93710102
_cell_length_c   21.27030431
_cell_angle_alpha   96.24900399
_cell_angle_beta   96.26950936
_cell_angle_gamma   104.30868816
_symmetry_Int_Tables_number   1
_chemical_formula_structural   CdH24C22(N3O2)2
_chemical_formula_sum   'Cd4 H96 C88 N24 O16'
_cell_volume   2431.93906453
_cell_formula_units_Z   4
loop_
 _symmetry_equiv_pos_site_id
 _symmetry_equiv_pos_as_xyz
  1  'x, y, z'
loop_
 _atom_site_type_symbol
 _atom_site_label
 _atom_site_symmetry_multiplicity
 _atom_site_fract_x
 _atom_site_fract_y
 _atom_site_fract_z
 _atom_site_occupancy
 _atom_site_pbe_bader_charge
 _atom_site_pbe_bader_spin_density
 _atom_site_pbe_cm5_charge
 _atom_site_pbe_ddec_charge
 _atom_site_pbe_ddec_spin_density
 _atom_site_pbe_ddec_sum_bond_order
 _atom_site_pbe_magmom
Cd  Cd0  1  0.32803175  0.18359827  0.64758503  1  1.24299  0  0.756404  0.826924  0  2.274514  0
Cd  Cd1  1  0.81657463  0.67235843  0.85262906  1  1.242751  0  0.756276  0.826788  0  2.274934  0
Cd  Cd2  1  0.67196260  0.81639411  0.35240483  1  1.242809  0  0.756415  0.82692  0  2.274454  0
Cd  Cd3  1  0.18342583  0.32764556  0.14738482  1  1.242682  0  0.756259  0.826747  0  2.274983  0
H  H4  1  0.23116212  0.73907486  0.49668356  1  0.07593  0  0.106438  0.112162  0  1.01184  0
H  H5  1  0.26124285  0.76852227  0.00334806  1  0.073788  0  0.106297  0.112068  0  1.011859  0
H  H6  1  0.76884098  0.26092602  0.50330914  1  0.076138  0  0.10645  0.112188  0  1.011996  0
H  H7  1  0.73875851  0.23148191  0.99665601  1  0.073641  0  0.106359  0.11212  0  1.011824  0
H  H8  1  0.13882631  0.36158885  0.39193722  1  0.047562  0  0.100372  0.101722  0  1.004579  0
H  H9  1  0.63788841  0.86094202  0.10789714  1  0.051946  0  0.10016  0.101491  0  1.005173  0
H  H10  1  0.86115377  0.63839838  0.60806238  1  0.047768  0  0.10036  0.101704  0  1.004569  0
H  H11  1  0.36211767  0.13906235  0.89210673  1  0.052337  0  0.100209  0.10155  0  1.005142  0
H  H12  1  0.85219055  0.56732804  0.39920992  1  0.095234  0  0.100682  0.104536  0  1.051173  0
H  H13  1  0.43271259  0.14836773  0.10093188  1  0.093044  0  0.10073  0.104992  0  1.051787  0
H  H14  1  0.14780129  0.43267300  0.60079580  1  0.095286  0  0.100694  0.104624  0  1.051077  0
H  H15  1  0.56729048  0.85163042  0.89907195  1  0.093078  0  0.100688  0.104918  0  1.051833  0
H  H16  1  0.93791230  0.80259579  0.42537610  1  0.14609  0  0.114399  0.109929  0  1.024538  0
H  H17  1  0.19762952  0.06229634  0.07462363  1  0.14559  0  0.11452  0.110061  0  1.024453  0
H  H18  1  0.06208404  0.19740073  0.57461081  1  0.146571  0  0.114475  0.110009  0  1.024588  0
H  H19  1  0.80238357  0.93772072  0.92538415  1  0.146062  0  0.114598  0.110214  0  1.024355  0
H  H20  1  0.93362245  0.77473060  0.50611321  1  0.063915  0  0.110349  0.08884  0  0.997544  0
H  H21  1  0.22547235  0.06667079  0.99392326  1  0.062945  0  0.110414  0.088411  0  0.997988  0
H  H22  1  0.06637049  0.22527711  0.49388118  1  0.063924  0  0.11029  0.088756  0  0.997599  0
H  H23  1  0.77453179  0.93333218  0.00607525  1  0.06292  0  0.110414  0.08843  0  0.998155  0
H  H24  1  0.07391274  0.94519849  0.58796281  1  0.159063  0  0.135343  0.110597  0  1.006449  0
H  H25  1  0.05507012  0.92631165  0.91203147  1  0.158823  0  0.135456  0.11071  0  1.006403  0
H  H26  1  0.92607921  0.05480897  0.41202587  1  0.159362  0  0.135304  0.110616  0  1.006463  0
H  H27  1  0.94493185  0.07368073  0.08797574  1  0.158211  0  0.135387  0.110656  0  1.006445  0
H  H28  1  0.36711119  0.10799099  0.48635939  1  0.131352  0  0.119962  0.121782  0  0.999296  0
H  H29  1  0.89187894  0.63283593  0.01369254  1  0.130151  0  0.119894  0.121672  0  0.999572  0
H  H30  1  0.63288883  0.89200181  0.51363175  1  0.131505  0  0.120031  0.121868  0  0.999176  0
H  H31  1  0.10812760  0.36718147  0.98632712  1  0.129186  0  0.119881  0.121679  0  0.999558  0
H  H32  1  0.18668611  0.91436128  0.40365852  1  0.155297  0  0.130208  0.140147  0  1.009572  0
H  H33  1  0.08561399  0.81311405  0.09635437  1  0.153864  0  0.130283  0.140263  0  1.009354  0
H  H34  1  0.81330546  0.08563322  0.59633130  1  0.155059  0  0.1302  0.140068  0  1.009574  0
H  H35  1  0.91438535  0.18691545  0.90366180  1  0.154016  0  0.130248  0.140347  0  1.009413  0
H  H36  1  0.35954670  0.48146333  0.42641597  1  0.07422  0  0.11384  0.100872  0  0.981547  0
H  H37  1  0.51835329  0.63996553  0.07355207  1  0.074122  0  0.114074  0.101139  0  0.982279  0
H  H38  1  0.64043724  0.51852936  0.57356675  1  0.074385  0  0.11387  0.100835  0  0.981813  0
H  H39  1  0.48163965  0.36004037  0.92645539  1  0.074051  0  0.114022  0.101167  0  0.982347  0
H  H40  1  0.39706783  0.64223168  0.46258412  1  0.148885  0  0.116493  0.122495  0  1.004188  0
H  H41  1  0.35802697  0.60227844  0.03726914  1  0.1508  0  0.116524  0.121479  0  1.00457  0
H  H42  1  0.60292535  0.35775398  0.53740155  1  0.148696  0  0.116493  0.122508  0  1.004203  0
H  H43  1  0.64197356  0.39772833  0.96274208  1  0.150793  0  0.116524  0.121589  0  1.004605  0
H  H44  1  0.29779697  0.30147285  0.49844280  1  0.107833  0  0.130214  0.088314  0  1.02604  0
H  H45  1  0.69811817  0.70205498  0.00157698  1  0.106237  0  0.130282  0.088458  0  1.025628  0
H  H46  1  0.70219922  0.69851812  0.50154803  1  0.108059  0  0.130129  0.088237  0  1.026096  0
H  H47  1  0.30187458  0.29794444  0.99843293  1  0.106264  0  0.130307  0.088487  0  1.025646  0
H  H48  1  0.43313947  0.51947417  0.67943614  1  0.096783  0  0.127455  0.127744  0  0.981126  0
H  H49  1  0.48059551  0.56688465  0.82050601  1  0.095327  0  0.127215  0.127627  0  0.981109  0
H  H50  1  0.56686707  0.48051645  0.32054913  1  0.096465  0  0.127352  0.127723  0  0.981268  0
H  H51  1  0.51941127  0.43311070  0.17950257  1  0.095036  0  0.127231  0.127632  0  0.981163  0
H  H52  1  0.43367110  0.68379435  0.58718096  1  0.14456  0  0.12472  0.126065  0  1.005487  0
H  H53  1  0.31667377  0.56635747  0.91276051  1  0.149956  0  0.124509  0.125844  0  1.005897  0
H  H54  1  0.56632685  0.31619334  0.41280179  1  0.14444  0  0.124617  0.125929  0  1.005517  0
H  H55  1  0.68332836  0.43364047  0.08724654  1  0.1501  0  0.124445  0.12573  0  1.005915  0
H  H56  1  0.89448367  0.24820977  0.36377317  1  0.057643  0  0.112974  0.096634  0  0.988473  0
H  H57  1  0.75114561  0.10530805  0.13613733  1  0.060874  0  0.113074  0.09666  0  0.988903  0
H  H58  1  0.10548927  0.75179052  0.63623193  1  0.057296  0  0.112976  0.096541  0  0.988427  0
H  H59  1  0.24886425  0.89469719  0.86386163  1  0.060655  0  0.113057  0.096619  0  0.98891  0
H  H60  1  0.78990262  0.34741635  0.35626124  1  0.076289  0  0.107597  0.083986  0  1.02384  0
H  H61  1  0.65273033  0.21064679  0.14375468  1  0.070968  0  0.107499  0.083643  0  1.024871  0
H  H62  1  0.21008092  0.65259193  0.64373972  1  0.076406  0  0.107624  0.083997  0  1.023857  0
H  H63  1  0.34727672  0.78935872  0.85624695  1  0.070705  0  0.107499  0.083633  0  1.024747  0
H  H64  1  0.01647101  0.20746497  0.27273546  1  0.1354  0  0.136012  0.10542  0  0.992096  0
H  H65  1  0.79232041  0.98356754  0.22732468  1  0.136208  0  0.136065  0.105519  0  0.991935  0
H  H66  1  0.98351696  0.79253149  0.72727731  1  0.135361  0  0.135972  0.105457  0  0.992005  0
H  H67  1  0.20767964  0.01642528  0.77267210  1  0.136178  0  0.136087  0.105511  0  0.992015  0
H  H68  1  0.91859157  0.45183321  0.14772870  1  0.10526  0  0.116914  0.109813  0  0.997306  0
H  H69  1  0.54831926  0.08131162  0.35223445  1  0.070164  0  0.116928  0.1097  0  0.997253  0
H  H70  1  0.08140530  0.54814692  0.85227473  1  0.105321  0  0.116879  0.109743  0  0.997324  0
H  H71  1  0.45168659  0.91868532  0.64776570  1  0.070207  0  0.117001  0.109789  0  0.997201  0
H  H72  1  0.81524709  0.49101795  0.26021013  1  0.1353  0  0.122063  0.129926  0  1.019702  0
H  H73  1  0.50900490  0.18477390  0.23970265  1  0.135109  0  0.122217  0.130099  0  1.019245  0
H  H74  1  0.18474356  0.50897543  0.73979086  1  0.135297  0  0.12207  0.129935  0  1.019688  0
H  H75  1  0.49100788  0.81523388  0.76029990  1  0.135016  0  0.122235  0.130172  0  1.019219  0
H  H76  1  0.76457378  0.19311383  0.69561361  1  0.028123  0  0.091212  0.135797  0  1.046673  0
H  H77  1  0.80662325  0.23506292  0.80436317  1  0.025562  0  0.091354  0.135982  0  1.046064  0
H  H78  1  0.23542713  0.80687643  0.30438260  1  0.02817  0  0.091194  0.135744  0  1.046779  0
H  H79  1  0.19339056  0.76494785  0.19563724  1  0.02563  0  0.091363  0.136034  0  1.045929  0
H  H80  1  0.76385866  0.35526395  0.70812592  1  0.11555  0  0.095407  0.166813  0  1.019991  0
H  H81  1  0.64490370  0.23593136  0.79186491  1  0.114736  0  0.095272  0.166651  0  1.019859  0
H  H82  1  0.23614131  0.64472609  0.29187212  1  0.115804  0  0.09537  0.166753  0  1.020024  0
H  H83  1  0.35511047  0.76406017  0.20813446  1  0.114558  0  0.095285  0.166575  0  1.019802  0
H  H84  1  0.79238216  0.28489907  0.63220899  1  0.014969  0  0.077775  0.122863  0  1.086141  0
H  H85  1  0.71507013  0.20712664  0.86776965  1  0.013256  0  0.077974  0.123241  0  1.085547  0
H  H86  1  0.20763622  0.71510633  0.36779233  1  0.015138  0  0.077791  0.122899  0  1.086114  0
H  H87  1  0.28494123  0.79286515  0.13223052  1  0.013455  0  0.077956  0.123245  0  1.085559  0
H  H88  1  0.97086214  0.29134875  0.74790210  1  0.071353  0  0.098198  0.154735  0  1.016904  0
H  H89  1  0.70884079  0.02946712  0.75207484  1  0.070946  0  0.098397  0.154746  0  1.017538  0
H  H90  1  0.02912923  0.70864015  0.25207847  1  0.070933  0  0.09814  0.154582  0  1.016773  0
H  H91  1  0.29117605  0.97054717  0.24794616  1  0.070317  0  0.098347  0.154746  0  1.01758  0
H  H92  1  0.10204721  0.31126390  0.80873741  1  0.034761  0  0.083949  0.133717  0  1.01117  0
H  H93  1  0.68888140  0.89792330  0.69124562  1  0.037193  0  0.084046  0.133879  0  1.010642  0
H  H94  1  0.89794778  0.68875071  0.19124902  1  0.034651  0  0.083983  0.133742  0  1.011306  0
H  H95  1  0.31111169  0.10208633  0.30877099  1  0.037469  0  0.084157  0.13422  0  1.010578  0
H  H96  1  0.99061559  0.15807632  0.78481109  1  0.078422  0  0.090938  0.145146  0  1.032398  0
H  H97  1  0.84172123  0.00962074  0.71516243  1  0.08045  0  0.09102  0.145308  0  1.032405  0
H  H98  1  0.00938378  0.84192735  0.21517310  1  0.077639  0  0.090891  0.145182  0  1.03253  0
H  H99  1  0.15828126  0.99038742  0.28485508  1  0.08042  0  0.091076  0.145467  0  1.032492  0
C  C100  1  0.03620523  0.66523638  0.45183073  1  -0.030127  0  -0.006148  0.111884  0  3.970814  0
C  C101  1  0.33482902  0.96394105  0.04823711  1  -0.014945  0  -0.005837  0.111368  0  3.968892  0
C  C102  1  0.96378656  0.33476462  0.54816511  1  -0.029953  0  -0.006012  0.111989  0  3.970323  0
C  C103  1  0.66517042  0.03606176  0.95176631  1  -0.014786  0  -0.005884  0.111386  0  3.968785  0
C  C104  1  0.15990435  0.65710209  0.46954527  1  -0.106034  0  -0.087142  -0.186986  0  3.943159  0
C  C105  1  0.34299492  0.83999409  0.03047754  1  -0.101712  0  -0.087267  -0.187012  0  3.943331  0
C  C106  1  0.84009023  0.34289771  0.53044643  1  -0.106304  0  -0.087244  -0.187091  0  3.943133  0
C  C107  1  0.65700563  0.16001450  0.96952578  1  -0.101809  0  -0.08728  -0.187038  0  3.943159  0
C  C108  1  0.19746935  0.54828105  0.44794053  1  0.056822  0  -0.008736  0.111672  0  3.983142  0
C  C109  1  0.45159763  0.80234894  0.05202334  1  0.05223  0  -0.008296  0.113191  0  3.984037  0
C  C110  1  0.80251733  0.45170678  0.55205289  1  0.056648  0  -0.008646  0.111661  0  3.983165  0
C  C111  1  0.54840757  0.19765706  0.94798104  1  0.052251  0  -0.008281  0.113416  0  3.984048  0
C  C112  1  0.10873922  0.44498554  0.41054668  1  -0.065907  0  -0.091094  -0.192753  0  3.946891  0
C  C113  1  0.55468979  0.89122737  0.08938456  1  -0.063701  0  -0.091044  -0.193029  0  3.949417  0
C  C114  1  0.89124469  0.55500351  0.58945417  1  -0.066056  0  -0.090986  -0.192558  0  3.946877  0
C  C115  1  0.44531733  0.10877999  0.91061812  1  -0.064477  0  -0.091168  -0.193271  0  3.949821  0
C  C116  1  0.98296136  0.44999062  0.39439551  1  -0.019187  0  -0.011344  0.104719  0  3.995057  0
C  C117  1  0.54972335  0.01725876  0.10560715  1  -0.019555  0  -0.011547  0.104559  0  3.994165  0
C  C118  1  0.01702458  0.55000259  0.60560898  1  -0.018543  0  -0.011405  0.104655  0  3.995088  0
C  C119  1  0.45028189  0.98274908  0.89439451  1  -0.019102  0  -0.011432  0.104705  0  3.994308  0
C  C120  1  0.94830507  0.56067949  0.41445826  1  -0.026602  0  -0.087991  -0.177401  0  3.915909  0
C  C121  1  0.43922350  0.05202272  0.08562628  1  -0.033055  0  -0.088309  -0.177752  0  3.912247  0
C  C122  1  0.05168773  0.43932268  0.58554334  1  -0.026434  0  -0.088083  -0.177642  0  3.915967  0
C  C123  1  0.56077787  0.94798147  0.91437826  1  -0.033052  0  -0.088234  -0.177716  0  3.912214  0
C  C124  1  0.99404358  0.78506596  0.46797376  1  0.286512  0  -0.046675  -0.116775  0  3.890557  0
C  C125  1  0.21515538  0.00605033  0.03204779  1  0.279548  0  -0.046731  -0.116116  0  3.889669  0
C  C126  1  0.00594638  0.21493736  0.53201881  1  0.286064  0  -0.046659  -0.11657  0  3.890484  0
C  C127  1  0.78485004  0.99396309  0.96795796  1  0.279208  0  -0.04677  -0.116252  0  3.890109  0
C  C128  1  0.13087327  0.96254129  0.54959130  1  0.949789  0  0.13592  0.07575  0  3.939765  0
C  C129  1  0.03771874  0.86927561  0.95042804  1  0.970995  0  0.135864  0.075109  0  3.939123  0
C  C130  1  0.86912513  0.03746033  0.45039883  1  0.949507  0  0.136053  0.075884  0  3.939709  0
C  C131  1  0.96228906  0.13072182  0.04958165  1  0.971542  0  0.136071  0.075288  0  3.939213  0
C  C132  1  0.27720751  0.04760584  0.49427813  1  0.378685  0  -0.006198  -0.046848  0  4.018763  0
C  C133  1  0.95240513  0.72280828  0.00577311  1  0.379726  0  -0.00623  -0.046993  0  4.01887  0
C  C134  1  0.72279259  0.95238972  0.50571082  1  0.378599  0  -0.006319  -0.047046  0  4.019039  0
C  C135  1  0.04759468  0.27720478  0.99424594  1  0.38125  0  -0.006324  -0.047088  0  4.019401  0
C  C136  1  0.19097857  0.95109719  0.45342694  1  0.319167  0  0.005849  -0.095088  0  3.899348  0
C  C137  1  0.04908981  0.80884818  0.04656851  1  0.318871  0  0.006317  -0.094273  0  3.898528  0
C  C138  1  0.80901514  0.04890516  0.54656438  1  0.319559  0  0.005987  -0.094666  0  3.899055  0
C  C139  1  0.95091305  0.19117294  0.95344598  1  0.319183  0  0.006433  -0.094248  0  3.898437  0
C  C140  1  0.33472697  0.54668725  0.46289416  1  0.254495  0  -0.048491  -0.122926  0  3.871474  0
C  C141  1  0.45332411  0.66486488  0.03704465  1  0.25044  0  -0.049694  -0.124033  0  3.872501  0
C  C142  1  0.66525596  0.45330246  0.53709351  1  0.254192  0  -0.048698  -0.123045  0  3.871532  0
C  C143  1  0.54667464  0.33514606  0.96296247  1  0.250608  0  -0.049579  -0.124292  0  3.872548  0
C  C144  1  0.33391855  0.38173061  0.53613756  1  0.97778  0  0.136953  0.080347  0  3.950274  0
C  C145  1  0.61806205  0.66594145  0.96385126  1  0.97963  0  0.136473  0.079209  0  3.950721  0
C  C146  1  0.66608315  0.61825612  0.46384816  1  0.978011  0  0.136921  0.080162  0  3.950397  0
C  C147  1  0.38193549  0.33406001  0.03615856  1  0.979805  0  0.136396  0.07896  0  3.95071  0
C  C148  1  0.40329523  0.49844647  0.62823915  1  0.432058  0  0.004974  -0.028646  0  4.007441  0
C  C149  1  0.50164424  0.59668588  0.87171351  1  0.43077  0  0.005395  -0.028633  0  4.006084  0
C  C150  1  0.59670586  0.50155116  0.37174714  1  0.433768  0  0.004968  -0.029048  0  4.008033  0
C  C151  1  0.49835494  0.40330768  0.12829502  1  0.430887  0  0.005395  -0.028693  0  4.006185  0
C  C152  1  0.40530071  0.58076729  0.58330180  1  0.261731  0  -0.003534  -0.133178  0  3.956746  0
C  C153  1  0.41948415  0.59462166  0.91663233  1  0.261199  0  -0.003585  -0.133081  0  3.956217  0
C  C154  1  0.59469460  0.41922623  0.41668488  1  0.259825  0  -0.003487  -0.132845  0  3.956626  0
C  C155  1  0.58051682  0.40536864  0.08337518  1  0.261614  0  -0.003457  -0.132834  0  3.956049  0
C  C156  1  0.88698180  0.34136287  0.35161068  1  0.313064  0  -0.045854  -0.110357  0  3.902856  0
C  C157  1  0.65838055  0.11320482  0.14835794  1  0.313553  0  -0.045788  -0.110358  0  3.903752  0
C  C158  1  0.11299758  0.65863156  0.64839399  1  0.312713  0  -0.045826  -0.110124  0  3.902404  0
C  C159  1  0.34163218  0.88680110  0.85164403  1  0.313779  0  -0.045821  -0.110261  0  3.903765  0
C  C160  1  0.97578602  0.27808711  0.25267798  1  0.959673  0  0.135453  0.080555  0  3.952474  0
C  C161  1  0.72175853  0.02425246  0.24731574  1  0.960383  0  0.13584  0.080658  0  3.951794  0
C  C162  1  0.02420662  0.72190860  0.74733125  1  0.960123  0  0.135558  0.080678  0  3.952373  0
C  C163  1  0.27824350  0.97574359  0.75268134  1  0.96017  0  0.135831  0.080797  0  3.951888  0
C  C164  1  0.92114592  0.40457935  0.18999313  1  0.405421  0  -0.006737  -0.035779  0  4.034301  0
C  C165  1  0.59548181  0.07885760  0.30998005  1  0.442725  0  -0.006244  -0.034971  0  4.033202  0
C  C166  1  0.07885501  0.59541001  0.81001245  1  0.405246  0  -0.006623  -0.035571  0  4.033854  0
C  C167  1  0.40452401  0.92113841  0.69001911  1  0.442816  0  -0.006352  -0.035073  0  4.033268  0
C  C168  1  0.86959335  0.42513858  0.24513271  1  0.275125  0  -0.003263  -0.113898  0  3.906175  0
C  C169  1  0.57483876  0.13042829  0.25481361  1  0.273425  0  -0.003273  -0.114152  0  3.905456  0
C  C170  1  0.13040119  0.57485848  0.75486917  1  0.275667  0  -0.003366  -0.113883  0  3.906218  0
C  C171  1  0.42517296  0.86957555  0.74518725  1  0.273931  0  -0.003247  -0.114181  0  3.905454  0
C  C172  1  0.59683765  0.23043006  0.65057709  1  1.553394  0  0.183683  0.67019  0  4.164827  0
C  C173  1  0.76953403  0.40317903  0.84940551  1  1.553575  0  0.1836  0.669788  0  4.164778  0
C  C174  1  0.40316617  0.76956453  0.34940637  1  1.552835  0  0.18365  0.670146  0  4.164865  0
C  C175  1  0.23045953  0.59681688  0.15059672  1  1.55342  0  0.183653  0.669824  0  4.165016  0
C  C176  1  0.73890498  0.26967365  0.67222559  1  -0.104617  0  -0.263841  -0.53242  0  3.896708  0
C  C177  1  0.73029510  0.26080836  0.82777083  1  -0.100393  0  -0.264127  -0.533035  0  3.897163  0
C  C178  1  0.26110077  0.73032050  0.32777017  1  -0.104681  0  -0.263865  -0.532413  0  3.896865  0
C  C179  1  0.26971361  0.73918926  0.17223093  1  -0.100567  0  -0.264127  -0.532938  0  3.896796  0
C  C180  1  0.11948828  0.21373182  0.71685282  1  1.559154  0  0.180617  0.663434  0  4.193942  0
C  C181  1  0.78614293  0.88045119  0.78312414  1  1.559061  0  0.180463  0.663847  0  4.192837  0
C  C182  1  0.88051783  0.78627528  0.28313710  1  1.559541  0  0.180709  0.663387  0  4.193529  0
C  C183  1  0.21386053  0.11955812  0.21689255  1  1.559087  0  0.180522  0.663877  0  4.19303  0
C  C184  1  0.04178688  0.24564235  0.76823146  1  -0.130517  0  -0.254682  -0.528333  0  3.906455  0
C  C185  1  0.75437723  0.95834821  0.73173775  1  -0.135174  0  -0.254644  -0.528445  0  3.906974  0
C  C186  1  0.95820970  0.75436250  0.23175170  1  -0.129724  0  -0.254623  -0.52822  0  3.90634  0
C  C187  1  0.24562714  0.04165948  0.26828173  1  -0.13515  0  -0.254741  -0.528913  0  3.907074  0
N  N188  1  0.09928117  0.89759964  0.48943162  1  -1.229922  0  -0.245903  0.042595  0  3.790697  0
N  N189  1  0.10278976  0.90061688  0.01054878  1  -1.248188  0  -0.245756  0.042984  0  3.789069  0
N  N190  1  0.90071449  0.10240502  0.51055993  1  -1.229823  0  -0.246091  0.042086  0  3.790971  0
N  N191  1  0.89720984  0.09939058  0.98946054  1  -1.248156  0  -0.246051  0.042614  0  3.789554  0
N  N192  1  0.23767018  0.05438538  0.55373944  1  -1.22321  0  -0.359907  -0.290662  0  3.574343  0
N  N193  1  0.94569370  0.76254945  0.94632942  1  -1.222189  0  -0.360072  -0.29011  0  3.575503  0
N  N194  1  0.76232811  0.94561253  0.44625095  1  -1.223569  0  -0.359935  -0.2907  0  3.574665  0
N  N195  1  0.05431319  0.23744868  0.05368308  1  -1.223361  0  -0.359953  -0.289933  0  3.575904  0
N  N196  1  0.36126506  0.50485538  0.52499044  1  -1.216888  0  -0.245337  0.040231  0  3.797093  0
N  N197  1  0.49519654  0.63853159  0.97496714  1  -1.220973  0  -0.244653  0.04122  0  3.795136  0
N  N198  1  0.63873478  0.49513184  0.47499615  1  -1.216611  0  -0.245105  0.040387  0  3.796644  0
N  N199  1  0.50480264  0.36146198  0.02504186  1  -1.220845  0  -0.244793  0.041278  0  3.795034  0
N  N200  1  0.35801941  0.37469956  0.59804429  1  -1.205937  0  -0.345486  -0.285  0  3.494675  0
N  N201  1  0.62512155  0.64194620  0.90194357  1  -1.204544  0  -0.344677  -0.284192  0  3.491185  0
N  N202  1  0.64198238  0.62528996  0.40194254  1  -1.205828  0  -0.345355  -0.284596  0  3.494964  0
N  N203  1  0.37488348  0.35805334  0.09806703  1  -1.205135  0  -0.344663  -0.284101  0  3.491395  0
N  N204  1  0.90498063  0.34332608  0.28450534  1  -1.213076  0  -0.243366  0.043614  0  3.772108  0
N  N205  1  0.65651201  0.09508123  0.21545883  1  -1.213384  0  -0.243387  0.043993  0  3.772115  0
N  N206  1  0.09501125  0.65667589  0.71550184  1  -1.213219  0  -0.243393  0.043346  0  3.772405  0
N  N207  1  0.34349592  0.90492263  0.78453947  1  -1.213404  0  -0.243443  0.043867  0  3.772087  0
N  N208  1  0.98675332  0.31246524  0.19513168  1  -1.197103  0  -0.353597  -0.308518  0  3.484134  0
N  N209  1  0.68750837  0.01326643  0.30486756  1  -1.196854  0  -0.354222  -0.308707  0  3.486316  0
N  N210  1  0.01324116  0.68752907  0.80487663  1  -1.197958  0  -0.353647  -0.30867  0  3.483651  0
N  N211  1  0.31248884  0.98672664  0.69512767  1  -1.197176  0  -0.354167  -0.308779  0  3.48624  0
O  O212  1  0.52782662  0.23656500  0.69560804  1  -1.165213  0  -0.351507  -0.562617  0  2.203236  0
O  O213  1  0.76345329  0.47235350  0.80437138  1  -1.165699  0  -0.351372  -0.561709  0  2.203877  0
O  O214  1  0.47216792  0.76340348  0.30437440  1  -1.165274  0  -0.351548  -0.562555  0  2.202919  0
O  O215  1  0.23652436  0.52764606  0.19563488  1  -1.165497  0  -0.351381  -0.561757  0  2.204102  0
O  O216  1  0.55177148  0.19345349  0.59232823  1  -1.201817  0  -0.366197  -0.621523  0  2.079845  0
O  O217  1  0.80649191  0.44837151  0.90765514  1  -1.201694  0  -0.366204  -0.621562  0  2.079942  0
O  O218  1  0.44825949  0.80656586  0.40765575  1  -1.201627  0  -0.366109  -0.62154  0  2.079979  0
O  O219  1  0.19351099  0.55162108  0.09234884  1  -1.201581  0  -0.366228  -0.621578  0  2.080234  0
O  O220  1  0.23570226  0.28081450  0.72274482  1  -1.177531  0  -0.363019  -0.59197  0  2.161417  0
O  O221  1  0.71902126  0.76406649  0.77728930  1  -1.177369  0  -0.362715  -0.591625  0  2.160662  0
O  O222  1  0.76430198  0.71919309  0.27724737  1  -1.177395  0  -0.36297  -0.591878  0  2.161246  0
O  O223  1  0.28098474  0.23593328  0.22272513  1  -1.177402  0  -0.362844  -0.591671  0  2.160781  0
O  O224  1  0.06814622  0.12455239  0.67156795  1  -1.212229  0  -0.358004  -0.611372  0  2.085883  0
O  O225  1  0.87526889  0.93173623  0.82837525  1  -1.211185  0  -0.358057  -0.611517  0  2.085708  0
O  O226  1  0.93186733  0.87545184  0.32841704  1  -1.212099  0  -0.358131  -0.611391  0  2.08568  0
O  O227  1  0.12474537  0.06825627  0.17163641  1  -1.210789  0  -0.358025  -0.611531  0  2.08594  0
