# generated using pymatgen
data_CuH14C14(NO3)2
_symmetry_space_group_name_H-M   'P 1'
_cell_length_a   8.54946330
_cell_length_b   9.04637653
_cell_length_c   9.93192446
_cell_angle_alpha   99.41567935
_cell_angle_beta   95.66750386
_cell_angle_gamma   94.13416633
_symmetry_Int_Tables_number   1
_chemical_formula_structural   CuH14C14(NO3)2
_chemical_formula_sum   'Cu2 H28 C28 N4 O12'
_cell_volume   751.04524852
_cell_formula_units_Z   2
loop_
 _symmetry_equiv_pos_site_id
 _symmetry_equiv_pos_as_xyz
  1  'x, y, z'
loop_
 _atom_site_type_symbol
 _atom_site_label
 _atom_site_symmetry_multiplicity
 _atom_site_fract_x
 _atom_site_fract_y
 _atom_site_fract_z
 _atom_site_occupancy
 _atom_site_hle17_ddec_charge
 _atom_site_hle17_ddec_spin_density
 _atom_site_hle17_ddec_sum_bond_order
 _atom_site_hle17_magmom
 _atom_site_hse06_10hf_ddec_charge
 _atom_site_hse06_10hf_ddec_spin_density
 _atom_site_hse06_10hf_ddec_sum_bond_order
 _atom_site_hse06_10hf_magmom
 _atom_site_hse06_ddec_charge
 _atom_site_hse06_ddec_spin_density
 _atom_site_hse06_ddec_sum_bond_order
 _atom_site_hse06_magmom
 _atom_site_pbe_cm5_charge
 _atom_site_pbe_ddec_charge
 _atom_site_pbe_ddec_spin_density
 _atom_site_pbe_ddec_sum_bond_order
 _atom_site_pbe_magmom
Cu  Cu0  1  0.78624763  0.15825716  0.14501868  1  0.829653  0.733441  1.886093  0.514  0.809988  0.816272  2.270315  0.634  0.898846  0.895875  2.206511  0.722  0.741275  0.754713  0.743405  2.313658  0.563
Cu  Cu1  1  0.21374836  0.84174292  0.85498567  1  0.829703  -0.733442  1.886043  -0.514  0.809941  -0.816258  2.270275  -0.634  0.898856  -0.895881  2.206517  -0.722  0.741275  0.754703  -0.743405  2.313604  -0.563
H  H2  1  0.57306082  0.01260924  0.69660513  1  0.369266  -0.000118  0.920162  0.0  0.346595  -4.7e-05  0.98837  0.0  0.358094  -4.4e-05  0.975012  0.0  0.292367  0.33865  -1.3e-05  0.997443  0.0
H  H3  1  0.42694206  0.98737738  0.30339161  1  0.369237  0.000118  0.920237  0.0  0.346599  4.8e-05  0.988397  0.0  0.35809  4.4e-05  0.975054  0.0  0.292403  0.338653  1.3e-05  0.997467  0.0
H  H4  1  0.46323367  0.80116481  0.43844922  1  0.358168  -5e-06  0.932137  0.0  0.331484  5e-06  1.012413  0.0  0.341861  0.0  1.000225  0.0  0.287435  0.324171  3e-06  1.020879  0.0
H  H5  1  0.53676819  0.19883527  0.56155360  1  0.358144  4e-06  0.932123  0.0  0.331449  -3e-06  1.012423  0.0  0.341829  -0.0  1.000226  0.0  0.287424  0.324136  -3e-06  1.02089  0.0
H  H6  1  0.70441708  0.06578768  0.39583792  1  0.107965  0.001241  0.936374  0.002  0.113179  0.001022  1.001931  0.002  0.11553  0.000738  0.999245  0.001  0.126895  0.111253  0.001264  1.003782  0.002
H  H7  1  0.29558137  0.93421354  0.60416380  1  0.10798  -0.001239  0.936424  -0.002  0.113173  -0.001022  1.001996  -0.002  0.115523  -0.000738  0.999311  -0.001  0.126898  0.111246  -0.001264  1.003848  -0.002
H  H8  1  0.07809509  0.25104117  0.71511866  1  0.107142  0.000291  0.954646  0.001  0.117286  -1e-06  1.01599  0.0  0.119995  -3.2e-05  1.014697  0.0  0.107538  0.114803  1.1e-05  1.017566  0.0
H  H9  1  0.92190307  0.74896909  0.28488245  1  0.107146  -0.000292  0.954572  -0.001  0.117285  1e-06  1.015946  0.0  0.119994  3.2e-05  1.014653  0.0  0.107527  0.114799  -1.1e-05  1.017521  0.0
H  H10  1  0.21242516  0.36669682  0.53880060  1  0.10618  0.000516  0.971352  0.001  0.112369  0.000472  1.036069  0.001  0.115201  0.000341  1.035769  0.0  0.104953  0.110089  0.000611  1.036613  0.001
H  H11  1  0.78756859  0.63330447  0.46119771  1  0.106191  -0.000517  0.9714  -0.001  0.112404  -0.000472  1.036083  -0.001  0.115236  -0.000342  1.035786  0.0  0.104982  0.110124  -0.000611  1.036626  -0.001
H  H12  1  0.07825987  0.32915617  0.29679093  1  0.087575  0.0011  0.928216  0.002  0.096156  0.000892  0.990449  0.001  0.098087  0.000644  0.988518  0.001  0.120099  0.094183  0.001091  0.992313  0.001
H  H13  1  0.92173824  0.67084172  0.70320721  1  0.087593  -0.001101  0.928157  -0.002  0.09617  -0.000893  0.990402  -0.001  0.098104  -0.000644  0.988465  -0.001  0.120107  0.094197  -0.001091  0.992266  -0.001
H  H14  1  0.84316553  0.97402089  0.68485901  1  0.055929  0.000298  0.931576  0.0  0.072982  0.000123  0.992561  0.0  0.071776  0.000137  0.994242  0.0  0.098816  0.073292  0.000106  0.992052  0.0
H  H15  1  0.15683940  0.02597480  0.31513230  1  0.055926  -0.000301  0.931642  0.0  0.073029  -0.000124  0.992573  0.0  0.071826  -0.000137  0.994252  0.0  0.098823  0.073332  -0.000106  0.99206  0.0
H  H16  1  0.81211084  0.15381929  0.77287416  1  0.059788  0.000506  0.947514  0.001  0.071865  0.000251  1.016794  0.0  0.072728  0.000151  1.015071  0.0  0.097863  0.070825  0.00037  1.018275  0.0
H  H17  1  0.18788767  0.84617069  0.22712578  1  0.059797  -0.000506  0.947447  -0.001  0.071825  -0.000253  1.016784  0.0  0.072687  -0.000151  1.015064  0.0  0.097852  0.070781  -0.00037  1.018259  0.0
H  H18  1  0.56611084  0.32565706  0.31133036  1  0.100278  0.001104  0.961921  0.002  0.101861  0.000857  1.036021  0.001  0.104744  0.000614  1.03307  0.001  0.117439  0.099567  0.001045  1.038487  0.002
H  H19  1  0.43388643  0.67434418  0.68867025  1  0.100279  -0.001103  0.961929  -0.002  0.101865  -0.000858  1.036026  -0.001  0.104747  -0.000614  1.033076  -0.001  0.117427  0.09957  -0.001045  1.038492  -0.002
H  H20  1  0.55190094  0.75276965  0.17318848  1  0.109222  0.000422  0.948623  0.001  0.119399  6.2e-05  1.00941  0.0  0.122311  2e-05  1.007145  0.0  0.11028  0.116925  9.4e-05  1.011634  0.0
H  H21  1  0.44810830  0.24723377  0.82681549  1  0.109296  -0.000419  0.948497  -0.001  0.1195  -6.2e-05  1.009238  0.0  0.122415  -2e-05  1.006973  0.0  0.11032  0.117031  -9.4e-05  1.011461  0.0
H  H22  1  0.75395000  0.67150209  0.01526830  1  0.120881  0.000679  0.960616  0.0  0.128997  0.000678  1.019584  0.0  0.133375  0.000496  1.016944  0.0  0.107536  0.125633  0.000744  1.021994  0.001
H  H23  1  0.24605421  0.32849805  0.98472869  1  0.120897  -0.000679  0.960622  0.0  0.128983  -0.000678  1.019619  0.0  0.133365  -0.000496  1.016982  0.0  0.107512  0.125621  -0.000744  1.022031  -0.001
H  H24  1  0.84766222  0.41380127  0.01153381  1  0.09288  0.001316  0.928926  0.002  0.101804  0.001138  0.990514  0.002  0.104198  0.00084  0.987579  0.001  0.12139  0.100159  0.00129  0.992025  0.002
H  H25  1  0.15233182  0.58619102  0.98846209  1  0.092869  -0.001316  0.928932  -0.002  0.101783  -0.00114  0.990541  -0.002  0.104178  -0.00084  0.987602  -0.001  0.121393  0.100129  -0.00129  0.992053  -0.002
H  H26  1  0.31732474  0.62410163  0.29877991  1  0.045216  0.00038  0.934897  0.0  0.06068  0.0002  1.000045  0.0  0.060544  0.000137  0.999937  0.0  0.097248  0.06076  0.000243  1.000097  0.0
H  H27  1  0.68267702  0.37589728  0.70122674  1  0.045191  -0.000381  0.934859  0.0  0.060653  -0.0002  1.000049  0.0  0.060543  -0.000137  0.999917  0.0  0.097226  0.060732  -0.000243  1.000102  0.0
H  H28  1  0.38553063  0.48870111  0.39741151  1  0.061042  -4.4e-05  0.932335  0.0  0.077247  8e-06  0.993904  0.0  0.077655  7e-06  0.993293  0.0  0.101795  0.076944  1.2e-05  0.994278  0.0
H  H29  1  0.61447476  0.51129896  0.60259161  1  0.061044  4.4e-05  0.93228  0.0  0.077282  -9e-06  0.99383  0.0  0.077692  -8e-06  0.993218  0.0  0.101806  0.07698  -1.2e-05  0.994204  0.0
C  C30  1  0.53801620  0.01801773  0.93590544  1  0.537198  -0.004541  3.88436  -0.007  0.500466  -0.000388  4.180833  -0.002  0.532382  -0.000465  4.17436  -0.002  0.208859  0.478386  -0.000139  4.186185  -0.002
C  C31  1  0.46198198  0.98196888  0.06409293  1  0.537182  0.004542  3.884599  0.007  0.500449  0.000395  4.181084  0.002  0.532367  0.000468  4.174607  0.002  0.208848  0.478369  0.000139  4.186428  0.002
C  C32  1  0.04184470  0.07116339  0.97855812  1  0.523058  0.004544  3.910845  0.007  0.488712  0.000113  4.21321  0.002  0.52106  0.00026  4.207385  0.002  0.194873  0.466192  0.000335  4.215937  0.003
C  C33  1  0.95815966  0.92885023  0.02144303  1  0.523171  -0.004545  3.911072  -0.007  0.488893  -0.000109  4.213332  -0.002  0.521242  -0.000262  4.207508  -0.002  0.194987  0.466368  -0.000336  4.21606  -0.003
C  C34  1  0.81570067  0.13283653  0.43261793  1  0.087782  -0.006904  3.634149  -0.007  0.05076  -0.000702  3.892171  -0.002  0.05932  -0.001864  3.909248  -0.003  0.049094  0.045657  0.000197  3.88113  -0.001
C  C35  1  0.18429726  0.86717147  0.56738381  1  0.087733  0.006888  3.634096  0.007  0.050694  0.000703  3.891995  0.002  0.059261  0.001867  3.909065  0.003  0.049069  0.045607  -0.000197  3.88097  0.001
C  C36  1  0.87850293  0.15147121  0.57006678  1  0.024909  0.010417  3.728475  0.011  0.048605  0.004293  3.967503  0.005  0.042946  0.003871  3.991759  0.005  -0.002389  0.051355  0.004407  3.951115  0.005
C  C37  1  0.12149244  0.84853454  0.42993439  1  0.024902  -0.010401  3.728443  -0.011  0.048689  -0.004295  3.967339  -0.005  0.043032  -0.003874  3.991592  -0.005  -0.002399  0.051388  -0.004407  3.951007  -0.005
C  C38  1  0.02358516  0.23697990  0.60922321  1  -0.059236  -0.009443  3.686023  -0.009  -0.08346  -0.003043  3.926548  -0.003  -0.080909  -0.003275  3.94541  -0.003  -0.065266  -0.084803  -0.002857  3.913396  -0.003
C  C39  1  0.97640948  0.76303032  0.39078163  1  -0.059122  0.00943  3.685976  0.009  -0.083408  0.003042  3.926507  0.003  -0.080859  0.003278  3.945374  0.003  -0.065243  -0.084737  0.002856  3.913367  0.003
C  C40  1  0.09810482  0.30216181  0.51176192  1  -0.103522  0.009838  3.747383  0.01  -0.114797  0.003822  3.998609  0.004  -0.121127  0.003544  4.019644  0.004  -0.08165  -0.110929  0.00397  3.983536  0.004
C  C41  1  0.90188937  0.69784394  0.48823916  1  -0.103554  -0.009819  3.747567  -0.01  -0.114832  -0.003823  3.998806  -0.004  -0.121166  -0.003546  4.019845  -0.004  -0.081613  -0.11096  -0.00397  3.983728  -0.004
C  C42  1  0.02583962  0.28088773  0.37735035  1  0.104323  -0.007497  3.714671  -0.008  0.072244  -0.001284  3.977814  -0.002  0.080485  -0.002342  3.99657  -0.003  0.041415  0.067364  -0.000422  3.965662  -0.001
C  C43  1  0.97415563  0.71911693  0.62264862  1  0.104361  0.00748  3.71459  0.008  0.07223  0.001285  3.977715  0.002  0.080474  0.002345  3.99647  0.003  0.041404  0.067351  0.000422  3.965567  0.001
C  C44  1  0.79282725  0.08047322  0.67156063  1  0.101016  0.001195  3.68256  0.001  0.035595  0.000843  3.951269  0.001  0.044005  0.000534  3.956565  0.001  -0.073465  0.030104  0.000985  3.948145  0.001
C  C45  1  0.20717545  0.91952351  0.32843872  1  0.101037  -0.001191  3.682676  -0.001  0.035604  -0.000835  3.951383  -0.001  0.04401  -0.000534  3.956684  -0.001  -0.073413  0.03015  -0.000985  3.948234  -0.001
C  C46  1  0.60171545  0.40449636  0.24528357  1  0.065974  -0.007768  3.664658  -0.008  0.030704  -0.001397  3.920435  -0.002  0.038577  -0.002476  3.938941  -0.004  0.042964  0.025842  -0.000534  3.908261  -0.001
C  C47  1  0.39828546  0.59550600  0.75471752  1  0.06589  0.007776  3.664687  0.008  0.030604  0.001398  3.9205  0.002  0.038482  0.002479  3.939009  0.004  0.042969  0.025739  0.000534  3.908331  0.001
C  C48  1  0.53989314  0.54380523  0.25242854  1  0.008655  0.010201  3.735528  0.011  0.035307  0.004049  3.972258  0.005  0.029173  0.003664  3.996334  0.004  -0.00836  0.039291  0.004241  3.955857  0.005
C  C49  1  0.46011012  0.45619710  0.74757476  1  0.008682  -0.010218  3.735496  -0.011  0.035317  -0.004052  3.972299  -0.005  0.029173  -0.003673  3.996397  -0.004  -0.008416  0.039303  -0.004242  3.955897  -0.005
C  C50  1  0.59479308  0.64167513  0.16827071  1  -0.033797  -0.009854  3.658062  -0.009  -0.060703  -0.003222  3.90412  -0.003  -0.056475  -0.003483  3.921045  -0.003  -0.060767  -0.063314  -0.003012  3.89324  -0.003
C  C51  1  0.40521488  0.35832719  0.83173197  1  -0.033877  0.009869  3.658081  0.009  -0.060803  0.003221  3.904175  0.003  -0.056583  0.003489  3.921121  0.003  -0.060756  -0.063418  0.003012  3.893301  0.003
C  C52  1  0.70581008  0.59707054  0.07976594  1  -0.114507  0.010405  3.739083  0.011  -0.125052  0.004303  3.989872  0.005  -0.132121  0.003974  4.009809  0.005  -0.083005  -0.120893  0.004737  3.977636  0.005
C  C53  1  0.29419295  0.40292957  0.92023396  1  -0.11462  -0.010418  3.739174  -0.011  -0.125134  -0.004303  3.989957  -0.005  -0.132211  -0.003977  4.009897  -0.005  -0.083026  -0.120978  -0.004738  3.977723  -0.005
C  C54  1  0.76039632  0.45545755  0.07794472  1  0.115216  -0.007076  3.685229  -0.008  0.08623  -0.00066  3.941898  -0.002  0.094598  -0.001837  3.960871  -0.003  0.04609  0.080553  0.000329  3.929784  0.0
C  C55  1  0.23959815  0.54453926  0.92204992  1  0.115324  0.007088  3.68528  0.008  0.086331  0.00066  3.941921  0.002  0.094703  0.001841  3.960897  0.003  0.046113  0.080667  -0.000329  3.929798  0.0
C  C56  1  0.42282656  0.58763428  0.35320267  1  0.096669  0.0008  3.698638  0.001  0.032169  0.000619  3.970953  0.001  0.040386  0.000417  3.976898  0.0  -0.074204  0.026514  0.000777  3.966716  0.001
C  C57  1  0.57717894  0.41236690  0.64680164  1  0.096714  -0.0008  3.698513  -0.001  0.032146  -0.000611  3.970958  -0.001  0.040343  -0.000417  3.976907  0.0  -0.074187  0.026492  -0.000777  3.966722  -0.001
N  N58  1  0.88767423  0.19631331  0.33908456  1  -0.295887  0.082665  3.38946  0.102  -0.25123  0.057098  3.695966  0.076  -0.28114  0.047851  3.718764  0.067  -0.350606  -0.234779  0.061176  3.683578  0.078
N  N59  1  0.11232018  0.80369470  0.66091689  1  -0.296056  -0.082653  3.38931  -0.102  -0.251265  -0.057101  3.695674  -0.076  -0.281196  -0.047853  3.718503  -0.067  -0.35066  -0.234826  -0.061177  3.683299  -0.078
N  N60  1  0.70932601  0.36202150  0.15985631  1  -0.290252  0.085084  3.394252  0.104  -0.244734  0.058646  3.694834  0.077  -0.275534  0.049153  3.71968  0.068  -0.352266  -0.226077  0.063131  3.679851  0.08
N  N61  1  0.29066740  0.63797646  0.84013742  1  -0.290178  -0.085101  3.394216  -0.104  -0.244609  -0.058652  3.694751  -0.077  -0.275427  -0.049157  3.719628  -0.068  -0.352232  -0.225963  -0.063135  3.679773  -0.08
O  O62  1  0.66405439  0.10571000  0.95530966  1  -0.553195  0.071489  2.135795  0.093  -0.526993  0.046248  2.404058  0.066  -0.566073  0.035743  2.401287  0.053  -0.311121  -0.501548  0.051476  2.406676  0.071
O  O63  1  0.33594816  0.89427317  0.04469255  1  -0.553066  -0.071489  2.13588  -0.093  -0.526852  -0.046252  2.404133  -0.066  -0.565931  -0.035745  2.401354  -0.053  -0.311058  -0.501412  -0.051476  2.406748  -0.071
O  O64  1  0.46924217  0.95961237  0.81867971  1  -0.578986  0.011544  2.04884  0.014  -0.541479  0.00685  2.285653  0.009  -0.568161  0.00431  2.274483  0.005  -0.298829  -0.522784  0.009586  2.293649  0.012
O  O65  1  0.53075719  0.04037421  0.18132076  1  -0.578973  -0.011546  2.048989  -0.014  -0.54152  -0.006855  2.285843  -0.009  -0.568197  -0.00431  2.274663  -0.005  -0.298832  -0.522824  -0.009587  2.29383  -0.012
O  O66  1  0.00901937  0.19911137  0.03267244  1  -0.581966  -0.016364  2.001149  -0.02  -0.556559  -0.008143  2.246417  -0.011  -0.583013  -0.004738  2.234628  -0.006  -0.319207  -0.53631  -0.011408  2.25285  -0.015
O  O67  1  0.99097922  0.80090342  0.96732641  1  -0.581937  0.016366  2.001476  0.02  -0.556546  0.008141  2.24671  0.011  -0.583018  0.004738  2.234946  0.006  -0.319205  -0.5363  0.011411  2.253143  0.015
O  O68  1  0.13938184  0.04848959  0.88900877  1  -0.553336  -0.081673  2.082123  -0.105  -0.534224  -0.050467  2.352666  -0.072  -0.574978  -0.038655  2.349922  -0.057  -0.321516  -0.503603  -0.059401  2.35308  -0.082
O  O69  1  0.86062595  0.95152283  0.11099752  1  -0.553371  0.081683  2.08214  0.105  -0.534288  0.050467  2.352639  0.072  -0.575029  0.038664  2.349878  0.057  -0.32155  -0.503657  0.059408  2.353045  0.082
O  O70  1  0.62880600  0.05222395  0.62377735  1  -0.553041  4e-05  2.123994  0.0  -0.492521  -3.6e-05  2.345023  0.0  -0.510083  -4.9e-05  2.332153  0.0  -0.397732  -0.480005  0.00016  2.352981  0.0
O  O71  1  0.37119453  0.94776268  0.37621920  1  -0.553038  -4.2e-05  2.12416  0.0  -0.492573  2.9e-05  2.345226  0.0  -0.510131  5e-05  2.332363  0.0  -0.397808  -0.480073  -0.00016  2.353185  0.0
O  O72  1  0.49071843  0.70327241  0.46343228  1  -0.558388  0.000936  2.046662  0.001  -0.511024  0.000181  2.278168  0.0  -0.528369  0.000126  2.267628  0.0  -0.415913  -0.498278  0.000366  2.28471  0.001
O  O73  1  0.50928589  0.29672878  0.53657093  1  -0.558367  -0.000936  2.046662  -0.001  -0.510971  -0.000183  2.278194  0.0  -0.528317  -0.000125  2.267661  0.0  -0.415895  -0.498224  -0.000366  2.284735  -0.001
