# generated using pymatgen
data_CuH13C20NO5
_symmetry_space_group_name_H-M   'P 1'
_cell_length_a   8.01719905
_cell_length_b   11.67818658
_cell_length_c   23.49618218
_cell_angle_alpha   90.92202377
_cell_angle_beta   90.03117114
_cell_angle_gamma   110.04971742
_symmetry_Int_Tables_number   1
_chemical_formula_structural   CuH13C20NO5
_chemical_formula_sum   'Cu4 H52 C80 N4 O20'
_cell_volume   2066.22954894
_cell_formula_units_Z   4
loop_
 _symmetry_equiv_pos_site_id
 _symmetry_equiv_pos_as_xyz
  1  'x, y, z'
loop_
 _atom_site_type_symbol
 _atom_site_label
 _atom_site_symmetry_multiplicity
 _atom_site_fract_x
 _atom_site_fract_y
 _atom_site_fract_z
 _atom_site_occupancy
 _atom_site_pbe_bader_charge
 _atom_site_pbe_bader_spin_density
 _atom_site_pbe_cm5_charge
 _atom_site_pbe_ddec_charge
 _atom_site_pbe_ddec_spin_density
 _atom_site_pbe_ddec_sum_bond_order
 _atom_site_pbe_magmom
Cu  Cu0  1  0.42974577  0.08388729  0.00538964  1  1.07993  0.589192  0.687637  0.769033  0.754666  2.393939  0.59
Cu  Cu1  1  0.34469333  0.91533944  0.49460186  1  1.074601  -0.558295  0.68549  0.76559  -0.745851  2.392319  -0.556
Cu  Cu2  1  0.57025406  0.91611252  0.99461020  1  1.080809  0.589231  0.687643  0.769034  0.754669  2.393965  0.59
Cu  Cu3  1  0.65530400  0.08466037  0.50539755  1  1.074187  0.558297  0.685473  0.765507  0.710917  2.392448  0.556
H  H4  1  0.11954805  0.13287090  0.94955196  1  0.099993  -4e-05  0.115737  0.093051  -6e-06  1.011278  0.0
H  H5  1  0.98671291  0.86709115  0.55041059  1  0.146715  7.3e-05  0.115612  0.092768  3.5e-05  1.011876  0.0
H  H6  1  0.88045099  0.86712981  0.05044788  1  0.099989  -4e-05  0.115738  0.093039  -6e-06  1.011276  0.0
H  H7  1  0.01328647  0.13290774  0.44958967  1  0.146716  -7.3e-05  0.115612  0.092757  -3.8e-05  1.011884  0.0
H  H8  1  0.88128679  0.94568135  0.64670524  1  0.099621  0.000256  0.104342  0.105282  0.000242  1.036936  0.0
H  H9  1  0.93550432  0.05434333  0.85331264  1  0.09748  0.00033  0.10413  0.104825  0.000241  1.037522  0.0
H  H10  1  0.11871520  0.05432028  0.35329504  1  0.099661  -0.000257  0.104354  0.105305  -0.000253  1.036922  0.0
H  H11  1  0.06449381  0.94565557  0.14668719  1  0.097491  0.000329  0.104137  0.104828  0.00024  1.037532  0.0
H  H12  1  0.37410032  0.50393079  0.06697413  1  0.079859  -1.3e-05  0.109479  0.11895  -3e-06  0.988214  0.0
H  H13  1  0.87018926  0.49602848  0.43300848  1  0.079222  3.4e-05  0.109624  0.118658  1.5e-05  0.987631  0.0
H  H14  1  0.62589781  0.49606811  0.93302697  1  0.079949  -1.3e-05  0.109471  0.118956  -3e-06  0.988197  0.0
H  H15  1  0.12980978  0.50397224  0.56699179  1  0.079213  -3.3e-05  0.10961  0.118628  -1.6e-05  0.987651  0.0
H  H16  1  0.50536463  0.33772267  0.06260834  1  0.10469  -2.5e-05  0.115706  0.088774  4e-06  0.995432  0.0
H  H17  1  0.16760084  0.66220941  0.43739767  1  0.108096  6.7e-05  0.115863  0.089088  3e-05  0.995999  0.0
H  H18  1  0.49463350  0.66227623  0.93739191  1  0.10469  -2.5e-05  0.115708  0.088776  4e-06  0.995421  0.0
H  H19  1  0.83239819  0.33779131  0.56260174  1  0.108151  -6.7e-05  0.11587  0.089105  -3.3e-05  0.995964  0.0
H  H20  1  0.94663772  0.91904144  0.91314118  1  0.131002  0.000321  0.109055  0.115685  0.000292  1.022781  0.0
H  H21  1  0.02765231  0.08100354  0.58692300  1  0.149607  -0.00018  0.108666  0.115288  -0.000193  1.022739  0.0
H  H22  1  0.05336041  0.08095746  0.08685907  1  0.130987  0.000322  0.109056  0.115714  0.000292  1.022746  0.0
H  H23  1  0.97235126  0.91899627  0.41307684  1  0.14952  0.000178  0.108703  0.115326  0.000179  1.022723  0.0
H  H24  1  0.33798720  0.70499133  0.64403182  1  0.12282  -0.000272  0.106332  0.112624  -0.000238  0.993764  0.0
H  H25  1  0.63290667  0.29502682  0.85599396  1  0.083817  0.000328  0.106496  0.112538  0.000238  0.993021  0.0
H  H26  1  0.66201230  0.29501030  0.35596761  1  0.122727  0.000273  0.106334  0.112622  0.000228  0.993809  0.0
H  H27  1  0.36709316  0.70497299  0.14400630  1  0.083852  0.000329  0.106499  0.112539  0.000239  0.993015  0.0
H  H28  1  0.16212205  0.59088904  0.03144766  1  0.070467  -3.2e-05  0.106365  0.110583  -5e-06  1.005258  0.0
H  H29  1  0.57120443  0.40914197  0.46852389  1  0.069622  7e-06  0.106224  0.110246  1.1e-05  1.005511  0.0
H  H30  1  0.83787654  0.40911077  0.96855346  1  0.070574  -3.2e-05  0.106368  0.110621  -5e-06  1.00525  0.0
H  H31  1  0.42879540  0.59085783  0.53147680  1  0.069602  -7e-06  0.106222  0.110268  -1.2e-05  1.00551  0.0
H  H32  1  0.71131728  0.81768513  0.84201525  1  0.108829  0.000212  0.113437  0.134296  0.000112  0.980381  0.0
H  H33  1  0.89378508  0.18245420  0.65801158  1  0.144965  0.000197  0.113567  0.133572  0.000112  0.980244  0.0
H  H34  1  0.28868084  0.18231377  0.15798543  1  0.10877  0.000213  0.113437  0.134294  0.000113  0.980373  0.0
H  H35  1  0.10621508  0.81754378  0.34198739  1  0.14496  -0.0002  0.113567  0.133587  -0.00012  0.98021  0.0
H  H36  1  0.97350200  0.28890479  0.94760988  1  0.082242  -4.6e-05  0.103534  0.108904  -3.6e-05  1.041887  0.0
H  H37  1  0.68471537  0.71102828  0.55239256  1  0.090239  3.6e-05  0.103285  0.108826  1.4e-05  1.041727  0.0
H  H38  1  0.02649659  0.71109502  0.05239081  1  0.082238  -4.6e-05  0.103566  0.108952  -3.6e-05  1.041852  0.0
H  H39  1  0.31528525  0.28897062  0.44760812  1  0.090251  -3.6e-05  0.103291  0.108809  -1.4e-05  1.04176  0.0
H  H40  1  0.94695476  0.83209261  0.72699592  1  0.098946  -0.000176  0.108415  0.125873  -9.9e-05  0.994613  0.0
H  H41  1  0.11482857  0.16797771  0.77301743  1  0.089707  0.000236  0.108551  0.125844  0.000117  0.995748  0.0
H  H42  1  0.05304723  0.16790902  0.27300394  1  0.098735  0.000169  0.108398  0.12581  8.8e-05  0.994607  0.0
H  H43  1  0.88516910  0.83202028  0.22698240  1  0.089577  0.000234  0.108537  0.125847  0.000116  0.995771  0.0
H  H44  1  0.23787169  0.68695463  0.86155950  1  0.079051  0.000343  0.10718  0.111259  0.000249  0.993579  0.0
H  H45  1  0.55081936  0.31296469  0.63842646  1  0.043059  0.000301  0.106899  0.1114  0.000236  0.99306  0.0
H  H46  1  0.76212643  0.31304426  0.13844076  1  0.07904  0.000341  0.10717  0.111262  0.000248  0.99357  0.0
H  H47  1  0.44918184  0.68703785  0.36157383  1  0.043054  -0.000298  0.106897  0.111432  -0.000245  0.993053  0.0
H  H48  1  0.40017551  0.59381277  0.72703163  1  0.093691  0.000166  0.106185  0.121405  8.7e-05  1.010305  0.0
H  H49  1  0.80621905  0.40631671  0.77296027  1  0.092645  0.000242  0.106362  0.121912  0.000122  1.011548  0.0
H  H50  1  0.59982648  0.40618886  0.27296780  1  0.093663  -0.000169  0.106165  0.121397  -9.5e-05  1.010297  0.0
H  H51  1  0.19378203  0.59368309  0.22703999  1  0.092631  0.000242  0.106368  0.121904  0.000123  1.011541  0.0
H  H52  1  0.00159997  0.58457245  0.78935916  1  0.088238  0.000246  0.105981  0.121152  0.000123  1.016716  0.0
H  H53  1  0.41715377  0.41540908  0.71062236  1  0.09417  -0.000189  0.105754  0.120908  -0.000105  1.015728  0.0
H  H54  1  0.99839986  0.41542736  0.21064068  1  0.088245  0.000246  0.105992  0.121182  0.000123  1.016697  0.0
H  H55  1  0.58284448  0.58459256  0.28937707  1  0.094165  0.000189  0.105727  0.120898  0.0001  1.015681  0.0
C  C56  1  0.10793691  0.81025767  0.89126889  1  -0.051329  0.015588  -0.022427  -0.048893  0.010884  3.982687  0.012
C  C57  1  0.29761391  0.18972868  0.60874464  1  -0.089167  3.8e-05  -0.02137  -0.045791  -3.8e-05  3.980362  0.0
C  C58  1  0.89206122  0.18974122  0.10873137  1  -0.051259  0.01555  -0.02244  -0.048882  0.010859  3.98268  0.012
C  C59  1  0.70238728  0.81027386  0.39125480  1  -0.089161  -3.2e-05  -0.021351  -0.045697  -9.1e-05  3.9804  0.0
C  C60  1  0.17110025  0.21661059  0.97500819  1  0.491035  -0.000424  0.043873  0.098018  -0.000291  3.949439  0.0
C  C61  1  0.95445041  0.78332380  0.52497891  1  0.450224  0.00051  0.04394  0.097994  0.000328  3.951694  0.0
C  C62  1  0.82889958  0.78338921  0.02499207  1  0.491017  -0.000424  0.043891  0.098084  -0.000291  3.949402  0.0
C  C63  1  0.04555067  0.21667601  0.47502136  1  0.450236  -0.00051  0.043966  0.098089  -0.000345  3.951649  0.0
C  C64  1  0.25014105  0.87502893  0.93305972  1  1.533602  -0.001055  0.213957  0.57494  0.001289  4.170003  -0.004
C  C65  1  0.37510109  0.12487980  0.56694078  1  1.539388  -0.00044  0.213172  0.574661  -0.000573  4.175072  -0.001
C  C66  1  0.74985832  0.12496996  0.06694053  1  1.533592  -0.001058  0.213958  0.574949  0.001288  4.170044  -0.004
C  C67  1  0.62490090  0.87512183  0.43305907  1  1.539398  0.000437  0.213152  0.574679  0.000293  4.175089  0.001
C  C68  1  0.77634820  0.86793457  0.66383965  1  -0.066102  -0.001026  -0.080543  -0.061696  -0.000658  3.977785  -0.001
C  C69  1  0.90849511  0.13215473  0.83609288  1  -0.077407  0.000549  -0.080523  -0.061192  0.000398  3.979437  0.0
C  C70  1  0.22365504  0.13206706  0.33615978  1  -0.065918  0.001016  -0.080548  -0.061782  0.000601  3.977782  0.001
C  C71  1  0.09150472  0.86784508  0.16390738  1  -0.077666  0.000544  -0.080504  -0.061149  0.000395  3.979426  0.0
C  C72  1  0.56971725  0.89520009  0.58874754  1  1.527749  -0.000223  0.207339  0.567395  -0.000317  4.191777  0.0
C  C73  1  0.67494297  0.10510288  0.91100244  1  1.547873  -0.002112  0.206415  0.567996  0.00037  4.191309  -0.005
C  C74  1  0.43028382  0.10479972  0.41125144  1  1.527789  0.000223  0.207331  0.56736  5.9e-05  4.191892  0.0
C  C75  1  0.32505640  0.89489602  0.08899739  1  1.54824  -0.00211  0.206396  0.568012  0.00037  4.191324  -0.005
C  C76  1  0.60600050  0.83152641  0.63948641  1  -0.018333  0.000277  -0.028092  -0.060749  0.000117  3.990687  0.0
C  C77  1  0.77465968  0.16868121  0.86036608  1  -0.041317  0.01675  -0.028621  -0.061398  0.011553  3.994505  0.013
C  C78  1  0.39400307  0.16847339  0.36051172  1  -0.018416  -0.000248  -0.028121  -0.060649  -0.000225  3.990541  0.0
C  C79  1  0.22533969  0.83131768  0.13963375  1  -0.041071  0.016777  -0.028688  -0.061473  0.01157  3.994513  0.013
C  C80  1  0.31332240  0.42301769  0.04025514  1  -0.013054  0.0003  -0.082592  -0.181506  0.000194  3.949492  0.0
C  C81  1  0.89027544  0.57692066  0.45973119  1  -0.021332  -0.000326  -0.082358  -0.179796  -0.000223  3.947541  0.0
C  C82  1  0.68667697  0.57698120  0.95974554  1  -0.013147  0.0003  -0.082556  -0.181448  0.000193  3.949436  0.0
C  C83  1  0.10972485  0.42308006  0.54026908  1  -0.021266  0.000327  -0.082338  -0.179752  0.000213  3.947477  0.0
C  C84  1  0.38642715  0.33095821  0.03819299  1  0.453745  -0.000553  0.044755  0.096395  -0.000381  3.977799  0.0
C  C85  1  0.05540478  0.66891562  0.46178900  1  0.448856  0.000609  0.044202  0.094872  0.000402  3.978061  0.0
C  C86  1  0.61357143  0.66904160  0.96180727  1  0.453756  -0.000553  0.044728  0.096358  -0.00038  3.977743  0.0
C  C87  1  0.94459426  0.33108510  0.53821084  1  0.44888  -0.000609  0.044214  0.094871  -0.000423  3.977919  0.0
C  C88  1  0.95982586  0.84700135  0.88551970  1  -0.006645  0.000873  -0.079813  -0.069845  0.000683  3.975842  0.001
C  C89  1  0.11286854  0.15301802  0.61454021  1  0.024973  0.001148  -0.079778  -0.070218  0.000738  3.975289  0.001
C  C90  1  0.04017181  0.15299663  0.11448097  1  -0.006727  0.000883  -0.079811  -0.069917  0.000689  3.975785  0.001
C  C91  1  0.88713299  0.84698270  0.38545921  1  0.025063  -0.001162  -0.079833  -0.070288  -0.000803  3.975369  -0.001
C  C92  1  0.47094709  0.73197709  0.66241990  1  -0.043707  0.000899  -0.081866  -0.069151  0.000544  3.987075  0.001
C  C93  1  0.73896308  0.26824117  0.83752409  1  0.004881  0.000551  -0.082834  -0.06958  0.000418  3.987156  0.0
C  C94  1  0.52905693  0.26802363  0.33757867  1  -0.043545  -0.000905  -0.081781  -0.069079  -0.000597  3.987  -0.001
C  C95  1  0.26103675  0.73175864  0.16247617  1  0.004856  0.000544  -0.082821  -0.069567  0.000414  3.987102  0.0
C  C96  1  0.15954154  0.41036026  0.00828320  1  -0.02242  -0.000606  0.006419  0.14483  -0.000401  4.034582  0.0
C  C97  1  0.74924127  0.58960288  0.49171897  1  -0.030256  0.000569  0.006091  0.143626  0.000362  4.033211  0.0
C  C98  1  0.84045705  0.58963955  0.99171749  1  -0.02247  -0.000606  0.006384  0.144784  -0.000401  4.034654  0.0
C  C99  1  0.25075947  0.41039875  0.50828173  1  -0.030222  -0.000569  0.006121  0.143697  -0.000379  4.033108  0.0
C  C100  1  0.08075992  0.50547144  0.01065093  1  0.020144  -0.000247  -0.077593  -0.113256  -0.000169  3.944473  0.0
C  C101  1  0.57527780  0.49455722  0.48933514  1  -0.080194  -0.000589  -0.077619  -0.113041  -0.000395  3.942775  0.0
C  C102  1  0.91923696  0.49452746  0.98935018  1  -0.084634  -0.000249  -0.077606  -0.113369  -0.000169  3.944529  0.0
C  C103  1  0.42472249  0.50544349  0.51066555  1  0.02712  0.000589  -0.077606  -0.113071  0.000376  3.942771  0.0
C  C104  1  0.82720587  0.78968190  0.84611130  1  -0.061443  0.001005  -0.09545  -0.20069  0.000606  3.997272  0.001
C  C105  1  0.03765120  0.21041412  0.65392058  1  -0.064974  0.000667  -0.09562  -0.199403  0.000476  3.995293  0.001
C  C106  1  0.17279350  0.21031700  0.15388853  1  -0.061363  0.00098  -0.095455  -0.200647  0.000589  3.997202  0.001
C  C107  1  0.96234897  0.78958386  0.34607967  1  -0.064986  -0.000661  -0.095607  -0.199395  -0.000495  3.995341  -0.001
C  C108  1  0.08953554  0.30369529  0.97462691  1  0.010236  0.000315  -0.084216  -0.171289  0.000194  3.921602  0.0
C  C109  1  0.78594601  0.69623311  0.52540079  1  -0.025923  -0.000335  -0.083954  -0.1708  -0.000235  3.923722  0.0
C  C110  1  0.91046305  0.69630452  0.02537377  1  0.01029  0.000315  -0.084285  -0.171402  0.000195  3.921665  0.0
C  C111  1  0.21405428  0.30376761  0.47459991  1  -0.025962  0.000336  -0.08401  -0.170886  0.000226  3.923704  0.0
C  C112  1  0.81350606  0.80475964  0.70892932  1  0.013094  -0.000628  -0.104753  -0.211985  -0.000477  3.997615  0.0
C  C113  1  0.00872894  0.19529660  0.79104594  1  0.058796  0.000977  -0.105603  -0.212804  0.000585  3.999782  0.001
C  C114  1  0.18649763  0.19524290  0.29107011  1  0.01304  0.000645  -0.104772  -0.211925  0.000466  3.997524  0.001
C  C115  1  0.99126998  0.80470138  0.20895388  1  0.058961  0.000989  -0.105595  -0.212819  0.000594  3.999798  0.001
C  C116  1  0.84399896  0.69510188  0.81212331  1  0.41737  -0.000797  0.082399  0.254372  -0.000581  4.057176  -0.001
C  C117  1  0.14896539  0.30501945  0.68792023  1  0.387395  0.000166  0.081635  0.252533  0.000103  4.056698  0.0
C  C118  1  0.15600211  0.30489792  0.18787652  1  0.417901  -0.000765  0.082398  0.254353  -0.000557  4.057184  -0.001
C  C119  1  0.85103478  0.69497853  0.31208045  1  0.387397  -0.000165  0.08163  0.252461  -0.000116  4.056745  0.0
C  C120  1  0.12185794  0.71454568  0.85712732  1  -0.039919  0.000859  -0.080438  -0.064961  0.000638  3.977391  0.001
C  C121  1  0.40727869  0.28539377  0.64287558  1  0.039991  -0.000927  -0.080712  -0.066823  -0.000599  3.9777  -0.001
C  C122  1  0.87814018  0.28545322  0.14287336  1  -0.040036  0.000871  -0.08044  -0.064991  0.000645  3.977374  0.001
C  C123  1  0.59272126  0.71460878  0.35712385  1  0.040008  0.000931  -0.080721  -0.066949  0.000549  3.977732  0.001
C  C124  1  0.50538916  0.66934439  0.70825377  1  0.015379  0.000596  -0.104223  -0.208973  0.00043  4.002288  0.0
C  C125  1  0.83604355  0.33084942  0.79173712  1  0.005261  0.000894  -0.104908  -0.210262  0.000528  4.0045  0.001
C  C126  1  0.49461453  0.33065815  0.29174524  1  0.015321  -0.000573  -0.104262  -0.209073  -0.000433  4.00231  0.0
C  C127  1  0.16395628  0.66915039  0.20826357  1  0.005254  0.000917  -0.104926  -0.210263  0.000544  4.004554  0.001
C  C128  1  0.67768842  0.70463387  0.73067837  1  0.333237  -8.3e-05  0.088004  0.268963  -6.5e-05  4.050931  0.0
C  C129  1  0.97292306  0.29545448  0.76932290  1  0.298054  -0.000853  0.088132  0.269484  -0.00061  4.049718  -0.001
C  C130  1  0.32231436  0.29536685  0.26932062  1  0.333199  2.8e-05  0.088029  0.26903  8e-06  4.050818  0.0
C  C131  1  0.02707586  0.70454350  0.23067692  1  0.298031  -0.000883  0.088126  0.269442  -0.000632  4.049844  -0.001
C  C132  1  0.99031582  0.65709495  0.81707868  1  0.007095  0.000941  -0.100585  -0.204127  0.000559  4.000147  0.001
C  C133  1  0.33324769  0.34286646  0.68293126  1  -0.049897  -0.000685  -0.100877  -0.20337  -0.000507  3.998403  -0.001
C  C134  1  0.00968355  0.34290394  0.18292157  1  0.006714  0.000911  -0.100594  -0.204152  0.00054  4.000129  0.001
C  C135  1  0.66675134  0.65713426  0.31706859  1  -0.049888  0.000699  -0.10086  -0.2033  0.000499  3.998282  0.001
N  N136  1  0.31703957  0.22882681  0.00643074  1  -1.237857  0.000716  -0.338628  -0.247023  0.001082  3.50816  0.002
N  N137  1  0.08801415  0.77102002  0.49354933  1  -1.204015  0.001011  -0.340235  -0.24769  0.0003  3.513891  0.0
N  N138  1  0.68295947  0.77117391  0.99356953  1  -1.237849  0.000717  -0.338614  -0.247024  0.001082  3.508141  0.002
N  N139  1  0.91198488  0.22898070  0.50645094  1  -1.204155  -0.001011  -0.340267  -0.247763  -0.000341  3.513833  0.0
O  O140  1  0.24388163  0.97469388  0.95448339  1  -1.110545  0.09462  -0.310866  -0.518779  0.060755  2.395236  0.086
O  O141  1  0.26899317  0.02534664  0.54562862  1  -1.115353  -0.084058  -0.311574  -0.520611  -0.057071  2.397127  -0.076
O  O142  1  0.75611820  0.02530593  0.04551687  1  -1.110558  0.094615  -0.310874  -0.518789  0.060752  2.395243  0.086
O  O143  1  0.73100961  0.97465408  0.45437123  1  -1.115396  0.084063  -0.311557  -0.520611  0.054354  2.397227  0.076
O  O144  1  0.42140555  0.84402787  0.56338945  1  -1.115272  -0.081019  -0.317858  -0.531283  -0.054781  2.361337  -0.073
O  O145  1  0.57779932  0.15617904  0.93644979  1  -1.10332  0.088296  -0.319438  -0.534996  0.056369  2.355283  0.081
O  O146  1  0.57859519  0.15597376  0.43660955  1  -1.115278  0.08102  -0.31783  -0.531278  0.052168  2.36143  0.073
O  O147  1  0.42220005  0.84381986  0.06355046  1  -1.103336  0.088299  -0.319409  -0.534958  0.056371  2.355265  0.081
O  O148  1  0.36747973  0.82698450  0.94389412  1  -1.098834  0.099261  -0.312037  -0.515426  0.063462  2.370681  0.09
O  O149  1  0.54035464  0.17312302  0.55635847  1  -1.116271  0.08844  -0.312517  -0.517535  0.056964  2.370123  0.08
O  O150  1  0.63251965  0.17301439  0.05610613  1  -1.098812  0.099256  -0.312028  -0.515418  0.063459  2.370688  0.09
O  O151  1  0.45964610  0.82687862  0.44364180  1  -1.116244  -0.088441  -0.312494  -0.517574  -0.059814  2.370128  -0.08
O  O152  1  0.69069298  0.99382410  0.57414800  1  -1.108567  0.084605  -0.311599  -0.517273  0.054474  2.349965  0.077
O  O153  1  0.69704221  0.00629668  0.92564743  1  -1.115339  0.09298  -0.313585  -0.520867  0.059393  2.345107  0.085
O  O154  1  0.30930810  0.00617570  0.42585142  1  -1.108554  -0.084598  -0.311618  -0.517294  -0.057204  2.350022  -0.077
O  O155  1  0.30295716  0.99370222  0.07435283  1  -1.115656  0.092982  -0.313567  -0.520872  0.059395  2.345129  0.085
O  O156  1  0.70936490  0.63448700  0.77344472  1  -1.106912  8e-06  -0.165264  -0.235389  2.9e-05  2.525444  0.0
O  O157  1  0.07485409  0.36562361  0.72659597  1  -1.097552  -9.1e-05  -0.165241  -0.235828  -4.8e-05  2.524648  0.0
O  O158  1  0.29063867  0.36551281  0.22655384  1  -1.106795  2.1e-05  -0.165238  -0.235384  3.2e-05  2.525391  0.0
O  O159  1  0.92514404  0.63437529  0.27340386  1  -1.097585  -0.000209  -0.16524  -0.235786  -0.000118  2.524683  0.0
