# generated using pymatgen
data_GdH9C9N4O7
_symmetry_space_group_name_H-M   'P 1'
_cell_length_a   7.84334440
_cell_length_b   7.59521791
_cell_length_c   11.34409754
_cell_angle_alpha   106.16168527
_cell_angle_beta   94.49979962
_cell_angle_gamma   90.35066982
_symmetry_Int_Tables_number   1
_chemical_formula_structural   GdH9C9N4O7
_chemical_formula_sum   'Gd2 H18 C18 N8 O14'
_cell_volume   646.80575339
_cell_formula_units_Z   2
loop_
 _symmetry_equiv_pos_site_id
 _symmetry_equiv_pos_as_xyz
  1  'x, y, z'
loop_
 _atom_site_type_symbol
 _atom_site_label
 _atom_site_symmetry_multiplicity
 _atom_site_fract_x
 _atom_site_fract_y
 _atom_site_fract_z
 _atom_site_occupancy
 _atom_site_hle17_bader_spin_density
 _atom_site_hle17_ddec_charge
 _atom_site_hle17_ddec_spin_density
 _atom_site_hle17_ddec_sum_bond_order
 _atom_site_hle17_magmom
 _atom_site_hse06_10hf_bader_spin_density
 _atom_site_hse06_10hf_ddec_charge
 _atom_site_hse06_10hf_ddec_spin_density
 _atom_site_hse06_10hf_ddec_sum_bond_order
 _atom_site_hse06_10hf_magmom
 _atom_site_hse06_bader_spin_density
 _atom_site_hse06_ddec_charge
 _atom_site_hse06_ddec_spin_density
 _atom_site_hse06_ddec_sum_bond_order
 _atom_site_hse06_magmom
 _atom_site_pbe_bader_spin_density
 _atom_site_pbe_cm5_charge
 _atom_site_pbe_ddec_charge
 _atom_site_pbe_ddec_spin_density
 _atom_site_pbe_ddec_sum_bond_order
 _atom_site_pbe_magmom
Gd  Gd0  1  0.70952749  0.24828187  0.68023383  1  0  2.173436  0  1.786682  0  0  2.064774  0  2.181094  0  0  2.124901  0  2.112747  0  0  1.511775  2.019231  0  2.233787  0
Gd  Gd1  1  0.30971492  0.76027186  0.31958713  1  0  2.17026  0  1.813274  0  0  2.050843  0  2.225055  0  0  2.114194  0  2.151263  0  0  1.514553  2.001966  0  2.283123  0
H  H2  1  0.40735664  0.45077307  0.63204250  1  0  0.435451  0  0.808546  0  0  0.417126  0  0.861446  0  0  0.424972  0  0.853408  0  0  0.331861  0.411595  0  0.867128  0
H  H3  1  0.49084690  0.52899287  0.47157914  1  0  0.452917  0  0.832455  0  0  0.430272  0  0.8789  0  0  0.440913  0  0.863576  0  0  0.305485  0.422565  0  0.890015  0
H  H4  1  0.56680259  0.59876169  0.66767629  1  0  0.375615  0  0.95764  0  0  0.326982  0  1.049818  0  0  0.338413  0  1.033946  0  0  0.294615  0.318993  0  1.060883  0
H  H5  1  0.42296731  0.40845626  0.33717450  1  0  0.379357  0  0.953101  0  0  0.334028  0  1.040744  0  0  0.345207  0  1.024956  0  0  0.290138  0.326166  0  1.051812  0
H  H6  1  0.99428806  0.04583991  0.53586904  1  0  0.451567  0  0.834619  0  0  0.427562  0  0.884293  0  0  0.437602  0  0.869854  0  0  0.309941  0.420389  0  0.894621  0
H  H7  1  0.98666850  0.79373858  0.38527476  1  0  0.432361  0  0.850176  0  0  0.407635  0  0.912982  0  0  0.417599  0  0.898528  0  0  0.315216  0.400623  0  0.920642  0
H  H8  1  0.01024545  0.00780656  0.66559564  1  0  0.415617  0  0.866574  0  0  0.390391  0  0.936705  0  0  0.397646  0  0.9265  0  0  0.308834  0.385258  0  0.9434  0
H  H9  1  0.96331880  0.95615163  0.32084204  1  0  0.418093  0  0.855173  0  0  0.392295  0  0.92524  0  0  0.399499  0  0.91845  0  0  0.313851  0.387181  0  0.930082  0
H  H10  1  0.07663381  0.70252272  0.96931034  1  0  0.132957  0  0.923858  0  0  0.141626  0  0.984881  0  0  0.146173  0  0.980602  0  0  0.11914  0.138105  0  0.988427  0
H  H11  1  0.93345271  0.30043122  0.02385664  1  0  0.136286  0  0.919811  0  0  0.144588  0  0.981023  0  0  0.149064  0  0.976617  0  0  0.12147  0.141108  0  0.984611  0
H  H12  1  0.13150448  0.68183772  0.59118277  1  0  0.133003  0  0.948238  0  0  0.138651  0  1.015666  0  0  0.143342  0  1.011054  0  0  0.117149  0.135059  0  1.0194  0
H  H13  1  0.86648015  0.33781411  0.40342163  1  0  0.139892  0  0.931105  0  0  0.14642  0  0.99461  0  0  0.151134  0  0.990081  0  0  0.122034  0.142802  0  0.998243  0
H  H14  1  0.46789602  0.44682028  0.88060752  1  0  0.436847  0  0.811257  0  0  0.420781  0  0.863555  0  0  0.429056  0  0.85415  0  0  0.326454  0.414761  0  0.870574  0
H  H15  1  0.55728334  0.54395949  0.15218896  1  0  0.433906  0  0.809096  0  0  0.41802  0  0.860444  0  0  0.425875  0  0.852237  0  0  0.328356  0.412371  0  0.866468  0
H  H16  1  0.62701784  0.58071431  0.89398947  1  0  0.415285  0  0.888866  0  0  0.37546  0  0.967804  0  0  0.387373  0  0.950387  0  0  0.297196  0.367023  0  0.980133  0
H  H17  1  0.38789062  0.42316162  0.11231282  1  0  0.413182  0  0.891438  0  0  0.372882  0  0.971111  0  0  0.384794  0  0.953787  0  0  0.297887  0.364429  0  0.983402  0
H  H18  1  0.37542594  0.12320771  0.88304828  1  0  0.109503  0  0.941989  0  0  0.118048  0  1.007131  0  0  0.122007  0  1.00364  0  0  0.11287  0.115124  0  1.009704  0
H  H19  1  0.63653214  0.88263383  0.11517917  1  0  0.113568  0  0.941212  0  0  0.121512  0  1.006965  0  0  0.125623  0  1.003237  0  0  0.114036  0.11845  0  1.009777  0
C  C20  1  0.34689479  0.98958861  0.63741699  1  0  0.737183  0  3.856169  0  0  0.68643  0  4.153633  0  0  0.723047  0  4.141964  0  0  0.239808  0.661458  0  4.160925  0
C  C21  1  0.66136508  0.02600437  0.36079141  1  0  0.721841  0  3.888114  0  0  0.669832  0  4.188711  0  0  0.706122  0  4.177833  0  0  0.234889  0.645154  0  4.195383  0
C  C22  1  0.29639356  0.99800102  0.85390431  1  0  -0.054638  0  3.659481  0  0  -0.097551  0  3.911778  0  0  -0.09403  0  3.928133  0  0  -0.067902  -0.099355  0  3.900498  0
C  C23  1  0.71412838  0.00901917  0.14301967  1  0  -0.061542  0  3.667079  0  0  -0.105157  0  3.922355  0  0  -0.100868  0  3.938233  0  0  -0.069349  -0.107388  0  3.911334  0
C  C24  1  0.26592771  0.90979916  0.72818916  1  0  -0.100322  0  3.768992  0  0  -0.073419  0  4.00522  0  0  -0.083077  0  4.026896  0  0  -0.020541  -0.06747  0  3.990887  0
C  C25  1  0.74215150  0.10183782  0.26838112  1  0  -0.1184  0  3.788906  0  0  -0.089882  0  4.026842  0  0  -0.100479  0  4.048485  0  0  -0.024112  -0.083372  0  4.012562  0
C  C26  1  0.23011325  0.92454348  0.94152792  1  0  0.002808  0  3.791643  0  0  0.024898  0  4.030862  0  0  0.020958  0  4.052679  0  0  -0.000529  0.027226  0  4.015933  0
C  C27  1  0.78035565  0.07981133  0.05397922  1  0  -0.001878  0  3.787572  0  0  0.01882  0  4.031017  0  0  0.013864  0  4.053264  0  0  -0.001426  0.021787  0  4.01574  0
C  C28  1  0.12954800  0.76234108  0.90265261  1  0  -0.063158  0  3.624319  0  0  -0.102757  0  3.871881  0  0  -0.099412  0  3.887694  0  0  -0.06427  -0.104602  0  3.861335  0
C  C29  1  0.87989026  0.24298542  0.09144857  1  0  -0.054924  0  3.610776  0  0  -0.094409  0  3.860511  0  0  -0.089808  0  3.875786  0  0  -0.059945  -0.097036  0  3.850332  0
C  C30  1  0.16105275  0.74991582  0.68906687  1  0  -0.089737  0  3.67006  0  0  -0.125634  0  3.918085  0  0  -0.12124  0  3.932807  0  0  -0.074434  -0.1282  0  3.908479  0
C  C31  1  0.84206194  0.26453222  0.30601314  1  0  -0.034291  0  3.616739  0  0  -0.073752  0  3.864172  0  0  -0.067893  0  3.878547  0  0  -0.059162  -0.077281  0  3.854817  0
C  C32  1  0.09165068  0.67800674  0.77678147  1  0  -0.051966  0  3.741248  0  0  -0.02629  0  3.979905  0  0  -0.035401  0  4.002401  0  0  -0.014703  -0.020765  0  3.96498  0
C  C33  1  0.91274743  0.33245844  0.21722896  1  0  -0.058909  0  3.741353  0  0  -0.033805  0  3.981533  0  0  -0.044468  0  4.00495  0  0  -0.015902  -0.027276  0  3.966042  0
C  C34  1  0.96657813  0.51808329  0.73908032  1  0  0.627756  0  3.94622  0  0  0.579684  0  4.246565  0  0  0.613594  0  4.24132  0  0  0.182665  0.556882  0  4.248878  0
C  C35  1  0.02928304  0.49811096  0.25769630  1  0  0.623136  0  3.95983  0  0  0.575704  0  4.256781  0  0  0.609091  0  4.251726  0  0  0.19169  0.553209  0  4.258989  0
C  C36  1  0.26618468  0.01669317  0.07224296  1  0  0.305544  0  3.781791  0  0  0.281185  0  4.052985  0  0  0.290981  0  4.071052  0  0  0.228053  0.274711  0  4.040581  0
C  C37  1  0.74182088  0.98437947  0.92379681  1  0  0.305515  0  3.776612  0  0  0.280264  0  4.049939  0  0  0.290299  0  4.068353  0  0  0.227872  0.273653  0  4.037309  0
N  N38  1  0.32776220  0.19066125  0.12001603  1  0  -0.315299  0  2.970453  0  0  -0.281709  0  3.233687  0  0  -0.294205  0  3.248058  0  0  -0.200848  -0.273153  0  3.224081  0
N  N39  1  0.67511955  0.81194791  0.87964055  1  0  -0.315717  0  2.971294  0  0  -0.281962  0  3.233546  0  0  -0.294761  0  3.248257  0  0  -0.20144  -0.27325  0  3.223704  0
N  N40  1  0.34371069  0.21716715  0.24209753  1  0  -0.051245  0  3.120192  0  0  -0.010424  0  3.388798  0  0  -0.01338  0  3.403335  0  0  -0.071213  -0.008406  0  3.37899  0
N  N41  1  0.65385376  0.78203142  0.75728640  1  0  -0.058076  0  3.149691  0  0  -0.013861  0  3.417134  0  0  -0.017376  0  3.431897  0  0  -0.073258  -0.011445  0  3.407206  0
N  N42  1  0.29328620  0.06854628  0.26845952  1  0  -0.177853  0  3.155568  0  0  -0.164299  0  3.451511  0  0  -0.168551  0  3.467862  0  0  -0.169099  -0.160467  0  3.439412  0
N  N43  1  0.70639622  0.92670114  0.72699088  1  0  -0.165349  0  3.127199  0  0  -0.155307  0  3.422387  0  0  -0.158093  0  3.437449  0  0  -0.149215  -0.152691  0  3.411353  0
N  N44  1  0.24385077  0.93930700  0.16377441  1  0  -0.410983  0  3.109416  0  0  -0.378856  0  3.395849  0  0  -0.39414  0  3.41411  0  0  -0.297155  -0.368049  0  3.383117  0
N  N45  1  0.76237840  0.05684726  0.82959462  1  0  -0.407318  0  3.106077  0  0  -0.373671  0  3.392192  0  0  -0.389199  0  3.410408  0  0  -0.295189  -0.362831  0  3.379638  0
O  O46  1  0.42356729  0.14555846  0.67856895  1  0  -0.747037  0  2.03319  0  0  -0.701612  0  2.283139  0  0  -0.728531  0  2.270291  0  0  -0.400034  -0.682406  0  2.291634  0
O  O47  1  0.58640759  0.86889420  0.32025548  1  0  -0.742257  0  2.051934  0  0  -0.693748  0  2.303233  0  0  -0.721474  0  2.29074  0  0  -0.411933  -0.673758  0  2.311464  0
O  O48  1  0.52297111  0.47183799  0.61190445  1  0  -0.859221  0  1.952471  0  0  -0.806029  0  2.14799  0  0  -0.827117  0  2.120902  0  0  -0.594637  -0.790783  0  2.167057  0
O  O49  1  0.46182693  0.53711792  0.38668722  1  0  -0.921293  0  1.903017  0  0  -0.87444  0  2.101946  0  0  -0.896059  0  2.068377  0  0  -0.670332  -0.858446  0  2.12589  0
O  O50  1  0.33476743  0.89509685  0.52575645  1  0  -0.726338  0  2.084098  0  0  -0.681265  0  2.353478  0  0  -0.709169  0  2.339671  0  0  -0.410885  -0.661073  0  2.362261  0
O  O51  1  0.67383933  0.12096642  0.47200724  1  0  -0.719636  0  2.088228  0  0  -0.677004  0  2.357607  0  0  -0.703858  0  2.343818  0  0  -0.401787  -0.657763  0  2.366338  0
O  O52  1  0.97273752  0.09848105  0.62355484  1  0  -0.882294  0  1.921868  0  0  -0.841922  0  2.110999  0  0  -0.861469  0  2.083026  0  0  -0.631078  -0.82763  0  2.129942  0
O  O53  1  0.03165116  0.91616433  0.38414845  1  0  -0.855742  0  1.964288  0  0  -0.805271  0  2.152348  0  0  -0.826139  0  2.128096  0  0  -0.58095  -0.790068  0  2.16683  0
O  O54  1  0.89414929  0.46944124  0.62954291  1  0  -0.663276  0  1.938688  0  0  -0.621655  0  2.172164  0  0  -0.647743  0  2.163352  0  0  -0.379634  -0.603185  0  2.177988  0
O  O55  1  0.06502043  0.57383765  0.37351028  1  0  -0.691235  0  1.975761  0  0  -0.643018  0  2.20453  0  0  -0.668214  0  2.193254  0  0  -0.357773  -0.62511  0  2.211766  0
O  O56  1  0.92871614  0.43932540  0.81992409  1  0  -0.678213  0  1.956865  0  0  -0.636524  0  2.192375  0  0  -0.662631  0  2.18347  0  0  -0.386394  -0.618004  0  2.198244  0
O  O57  1  0.09452506  0.56070628  0.17758534  1  0  -0.681987  0  1.989159  0  0  -0.639102  0  2.225988  0  0  -0.665126  0  2.217205  0  0  -0.377452  -0.620572  0  2.231864  0
O  O58  1  0.58925663  0.44865336  0.86844416  1  0  -0.879339  0  1.889987  0  0  -0.841488  0  2.083018  0  0  -0.859553  0  2.052944  0  0  -0.615057  -0.828367  0  2.104674  0
O  O59  1  0.43420774  0.55242839  0.13607438  1  0  -0.853415  0  1.867131  0  0  -0.810889  0  2.055099  0  0  -0.82988  0  2.026046  0  0  -0.610201  -0.797078  0  2.076132  0
