# generated using pymatgen
data_Zn2H14C24N8OF4
_symmetry_space_group_name_H-M   'P 1'
_cell_length_a   14.80304696
_cell_length_b   14.84895268
_cell_length_c   14.83783280
_cell_angle_alpha   113.80159639
_cell_angle_beta   114.19826572
_cell_angle_gamma   100.22638996
_symmetry_Int_Tables_number   1
_chemical_formula_structural   Zn2H14C24N8OF4
_chemical_formula_sum   'Zn4 H28 C48 N16 O2 F8'
_cell_volume   2481.44076013
_cell_formula_units_Z   2
loop_
 _symmetry_equiv_pos_site_id
 _symmetry_equiv_pos_as_xyz
  1  'x, y, z'
loop_
 _atom_site_type_symbol
 _atom_site_label
 _atom_site_symmetry_multiplicity
 _atom_site_fract_x
 _atom_site_fract_y
 _atom_site_fract_z
 _atom_site_occupancy
 _atom_site_pbe_bader_charge
 _atom_site_pbe_bader_spin_density
 _atom_site_pbe_cm5_charge
 _atom_site_pbe_ddec_charge
 _atom_site_pbe_ddec_spin_density
 _atom_site_pbe_ddec_sum_bond_order
 _atom_site_pbe_magmom
C  C0  1  0.80259888  0.97357875  0.09250080  1  0.474752  0  0.009702  -0.045239  0  3.951648  0
C  C1  1  0.79538616  0.19955960  0.89109486  1  0.389957  0  0.009233  -0.048006  0  3.986264  0
C  C2  1  0.88652426  0.69905484  0.99466383  1  0.029479  0  -0.034957  -0.021602  0  4.059898  0
C  C3  1  0.29815357  0.83889184  0.98658688  1  0.014046  0  -0.037053  -0.024929  0  4.083473  0
C  C4  1  0.66653530  0.67943957  0.53364441  1  0.04538  0  -0.043507  -0.156735  0  4.114425  0
C  C5  1  0.28197675  0.28959912  0.18472870  1  0.03647  0  -0.04137  -0.154828  0  4.087924  0
C  C6  1  0.16836133  0.16897137  0.46171865  1  0.021568  0  -0.04759  -0.201972  0  4.141856  0
C  C7  1  0.08619624  0.08334587  0.78366961  1  0.069025  0  -0.048378  -0.207841  0  4.12623  0
C  C8  1  0.12059090  0.19826073  0.70556606  1  0.055587  0  -0.11516  -0.198803  0  4.033983  0
C  C9  1  0.12682674  0.20834143  0.61488878  1  0.032063  0  -0.118144  -0.208665  0  4.055827  0
C  C10  1  0.12306817  0.11296450  0.71819943  1  0.437383  0  0.07439  0.226073  0  4.065591  0
C  C11  1  0.19452422  0.18989188  0.57654046  1  0.471128  0  0.070432  0.21422  0  4.088328  0
C  C12  1  0.88997550  0.59587764  0.09499172  1  0.357198  0  0.088073  0.227036  0  4.056105  0
C  C13  1  0.40139192  0.77854537  0.89130760  1  0.433561  0  0.088707  0.228648  0  4.055736  0
C  C14  1  0.87887061  0.50087189  0.09378530  1  0.076714  0  -0.10559  -0.250738  0  4.013446  0
C  C15  1  0.49716754  0.79116734  0.89327809  1  0.060349  0  -0.104148  -0.248005  0  4.009328  0
C  C16  1  0.82404739  0.40012757  0.98832061  1  0.098337  0  -0.016935  0.00169  0  4.072965  0
C  C17  1  0.59890070  0.86072212  0.99814411  1  0.08181  0  -0.014806  0.003491  0  4.066525  0
C  C18  1  0.77342248  0.40412715  0.88748973  1  0.394394  0  0.089463  0.228358  0  4.055252  0
C  C19  1  0.59433769  0.90582031  0.09879428  1  0.348029  0  0.08768  0.225076  0  4.058196  0
C  C20  1  0.78621445  0.49918510  0.88864010  1  -0.021747  0  -0.104012  -0.249292  0  4.007659  0
C  C21  1  0.49859642  0.89465243  0.09659959  1  0.03159  0  -0.101372  -0.242564  0  4.006283  0
C  C22  1  0.86788608  0.70527157  0.89665357  1  0.376133  0  0.00949  -0.04685  0  3.953687  0
C  C23  1  0.28981866  0.89818520  0.08225199  1  0.451767  0  0.010766  -0.044048  0  3.994164  0
C  C24  1  0.85075727  0.60052543  0.99392344  1  0.09591  0  -0.01499  0.003136  0  4.065513  0
C  C25  1  0.39697981  0.83347188  0.99066463  1  0.040761  0  -0.017945  -0.00286  0  4.075289  0
C  C26  1  0.48306036  0.39073723  0.28522493  1  -0.013403  0  -0.095682  -0.132232  0  3.987153  0
C  C27  1  0.57658823  0.48548263  0.37142026  1  -0.011876  0  -0.099391  -0.137923  0  3.994762  0
C  C28  1  0.57059750  0.58350718  0.43082771  1  -0.030323  0  -0.017128  0.097578  0  4.06778  0
C  C29  1  0.37934664  0.38977014  0.25494464  1  0.078993  0  -0.012901  0.103934  0  4.047027  0
C  C30  1  0.46669838  0.58419581  0.39301420  1  -0.011592  0  -0.099007  -0.135942  0  4.011627  0
C  C31  1  0.37350281  0.48974513  0.30721583  1  -0.101934  0  -0.096913  -0.134668  0  4.005052  0
C  C32  1  0.67485269  0.78409823  0.59891265  1  0.447451  0  0.009019  -0.040434  0  4.014314  0
C  C33  1  0.17348559  0.27585049  0.14672958  1  0.404679  0  0.010176  -0.030724  0  3.972262  0
C  C34  1  0.19387274  0.09768468  0.38888026  1  0.441076  0  0.010386  -0.032119  0  4.012916  0
C  C35  1  0.10438231  0.00755097  0.81522491  1  0.420136  0  0.015693  -0.012077  0  3.964839  0
C  C36  1  0.77168011  0.68993289  0.60195530  1  1.024066  0  0.198776  0.322397  0  4.10019  0
C  C37  1  0.27461382  0.18590472  0.16039952  1  1.007796  0  0.202362  0.33196  0  4.06041  0
C  C38  1  0.10088676  0.19592807  0.38780860  1  1.024915  0  0.199834  0.334294  0  4.102791  0
C  C39  1  0.00666268  0.10166300  0.80786151  1  1.009578  0  0.203553  0.343819  0  4.068108  0
C  C40  1  0.96405996  0.80369252  0.08966111  1  0.445566  0  0.008122  -0.047538  0  3.950842  0
C  C41  1  0.19410921  0.80212969  0.88985382  1  0.414562  0  0.009108  -0.051283  0  3.982561  0
C  C42  1  0.70296875  0.87579776  0.89952084  1  0.416642  0  0.009181  -0.04356  0  3.952752  0
C  C43  1  0.89585080  0.29701388  0.08342680  1  0.362591  0  0.0093  -0.05362  0  3.991362  0
C  C44  1  0.69740852  0.89570244  0.99805795  1  -0.004728  0  -0.035329  -0.023885  0  4.062414  0
C  C45  1  0.83244789  0.30326224  0.98668084  1  0.062391  0  -0.037547  -0.026751  0  4.084954  0
C  C46  1  0.05767958  0.94288591  0.55240653  1  0.4113  0  -0.141397  -0.167613  0  3.935293  0
C  C47  1  0.38462470  0.24726420  0.66457558  1  0.406047  0  -0.141241  -0.175486  0  3.93484  0
F  F48  1  0.94885263  0.69035829  0.20201025  1  -0.64245  0  -0.110204  -0.156327  0  1.332985  0
F  F49  1  0.30599843  0.71301487  0.78464932  1  -0.637706  0  -0.112719  -0.157968  0  1.325473  0
F  F50  1  0.71273226  0.30940418  0.78053019  1  -0.643274  0  -0.110337  -0.157135  0  1.330593  0
F  F51  1  0.68930616  0.97103631  0.20573019  1  -0.634596  0  -0.109509  -0.153958  0  1.333344  0
F  F52  1  0.81232296  0.61424214  0.58438610  1  -0.640496  0  -0.094252  -0.149588  0  1.338734  0
F  F53  1  0.35528057  0.15175300  0.18142778  1  -0.641433  0  -0.085197  -0.140666  0  1.363033  0
F  F54  1  0.05078127  0.26192010  0.41031678  1  -0.648922  0  -0.096567  -0.149028  0  1.329923  0
F  F55  1  0.95685701  0.16620086  0.79173774  1  -0.642368  0  -0.087866  -0.140387  0  1.351518  0
H  H56  1  0.83597921  0.01271084  0.18534408  1  0.090597  0  0.11562  0.111  0  1.015318  0
H  H57  1  0.74511129  0.16792707  0.79872357  1  0.139089  0  0.115116  0.109589  0  1.011109  0
H  H58  1  0.91807052  0.50623178  0.17703020  1  0.054869  0  0.110885  0.134275  0  0.989413  0
H  H59  1  0.49184333  0.74983064  0.81056531  1  0.073818  0  0.110602  0.134647  0  0.989498  0
H  H60  1  0.74983016  0.49375424  0.80526286  1  0.102105  0  0.112704  0.138056  0  0.985352  0
H  H61  1  0.50406050  0.93938817  0.17893155  1  0.077019  0  0.110979  0.135643  0  0.986637  0
H  H62  1  0.49105536  0.31579875  0.24364994  1  0.069761  0  0.098224  0.103935  0  1.012258  0
H  H63  1  0.65563414  0.48256803  0.39529576  1  0.073249  0  0.096687  0.102093  0  1.014518  0
H  H64  1  0.45856232  0.65907865  0.43513926  1  0.020126  0  0.096796  0.093875  0  1.008787  0
H  H65  1  0.29458257  0.49277339  0.28450004  1  0.0363  0  0.098304  0.097949  0  1.00638  0
H  H66  1  0.81477404  0.64392776  0.80441490  1  0.094218  0  0.117479  0.106113  0  1.006103  0
H  H67  1  0.35063036  0.94277371  0.17491159  1  0.069894  0  0.117995  0.104955  0  0.996428  0
H  H68  1  0.61328577  0.81583092  0.58042449  1  0.068189  0  0.119493  0.107682  0  0.99292  0
H  H69  1  0.13803283  0.33392984  0.14684620  1  0.09117  0  0.119148  0.107289  0  1.002548  0
H  H70  1  0.24333692  0.05440405  0.40873473  1  0.101941  0  0.123747  0.115885  0  0.982852  0
H  H71  1  0.15991336  0.96938028  0.81121922  1  0.114259  0  0.124008  0.11669  0  0.987891  0
H  H72  1  0.00197991  0.83649615  0.18237814  1  0.100717  0  0.115073  0.107772  0  1.020859  0
H  H73  1  0.16308295  0.75313841  0.79767741  1  0.129442  0  0.116753  0.110073  0  1.012028  0
H  H74  1  0.64105066  0.82173662  0.80741584  1  0.071719  0  0.115184  0.101591  0  1.008855  0
H  H75  1  0.94120609  0.35799449  0.17585368  1  0.101269  0  0.119503  0.107274  0  0.997531  0
H  H76  1  0.09546666  0.25336010  0.75498122  1  0.074495  0  0.09719  0.112763  0  1.003222  0
H  H77  1  0.06166340  0.22455513  0.56348505  1  0.051481  0  0.095216  0.108952  0  1.012296  0
H  H78  1  0.00757759  0.96451490  0.49264183  1  0.040959  0  0.092032  0.09033  0  0.997677  0
H  H79  1  0.00736774  0.90146342  0.57360747  1  0.03167  0  0.086853  0.080946  0  1.015857  0
H  H80  1  0.08887622  0.88921670  0.51054545  1  0.046406  0  0.103636  0.110619  0  0.977833  0
H  H81  1  0.40473654  0.33120272  0.72732325  1  0.018879  0  0.095806  0.095671  0  0.985983  0
H  H82  1  0.38059174  0.24250674  0.58688648  1  0.038949  0  0.087402  0.079773  0  1.028355  0
H  H83  1  0.44757060  0.22239369  0.70430833  1  0.065675  0  0.105187  0.114001  0  0.978738  0
N  N84  1  0.86325545  0.99849537  0.05195388  1  -0.772995  0  -0.283711  -0.180809  0  3.645945  0
N  N85  1  0.83419857  0.13800882  0.92837121  1  -0.762108  0  -0.274133  -0.178902  0  3.557381  0
N  N86  1  0.93090602  0.80432693  0.93149778  1  -0.742866  0  -0.281937  -0.179084  0  3.641722  0
N  N87  1  0.19026787  0.89736221  0.04567034  1  -0.783633  0  -0.276777  -0.183241  0  3.567  0
N  N88  1  0.77496782  0.84820602  0.69522853  1  -0.844788  0  -0.273362  -0.170751  0  3.549614  0
N  N89  1  0.11074038  0.17421854  0.10661094  1  -0.79388  0  -0.287812  -0.184168  0  3.619161  0
N  N90  1  0.14505395  0.08452043  0.28275316  1  -0.75956  0  -0.274783  -0.168301  0  3.556027  0
N  N91  1  0.04005173  0.98412607  0.85286523  1  -0.774845  0  -0.285696  -0.181037  0  3.624364  0
N  N92  1  0.83633989  0.78835044  0.69716021  1  -0.767046  0  -0.277854  -0.287015  0  3.520796  0
N  N93  1  0.17415513  0.11772804  0.11517752  1  -0.786762  0  -0.287166  -0.292517  0  3.587627  0
N  N94  1  0.08629937  0.14692300  0.28213219  1  -0.83654  0  -0.279922  -0.285472  0  3.524398  0
N  N95  1  0.97850847  0.04278724  0.84798020  1  -0.811661  0  -0.288594  -0.293862  0  3.591668  0
N  N96  1  0.99007376  0.86481131  0.04993603  1  -0.828828  0  -0.281406  -0.183163  0  3.627392  0
N  N97  1  0.13048175  0.83765406  0.92575395  1  -0.821613  0  -0.270105  -0.174719  0  3.540116  0
N  N98  1  0.80222383  0.93858859  0.93351055  1  -0.793612  0  -0.281716  -0.187581  0  3.632402  0
N  N99  1  0.89671028  0.19865405  0.04818241  1  -0.816366  0  -0.271002  -0.172066  0  3.556452  0
O  O100  1  0.15081325  0.03760734  0.65547097  1  -1.05955  0  -0.208697  -0.189766  0  2.52972  0
O  O101  1  0.28470070  0.17510271  0.63595905  1  -1.053059  0  -0.201263  -0.175276  0  2.537733  0
Zn  Zn102  1  0.98830336  0.13677749  0.12989800  1  1.193799  0  0.749284  0.629949  0  2.45487  0
Zn  Zn103  1  0.84073246  0.99429625  0.84514805  1  1.198084  0  0.748193  0.639647  0  2.417755  0
Zn  Zn104  1  0.98541698  0.84649369  0.84531108  1  1.198058  0  0.747335  0.634794  0  2.426733  0
Zn  Zn105  1  0.13108719  0.98926561  0.12950711  1  1.197175  0  0.749199  0.636078  0  2.431414  0
