# generated using pymatgen
data_CuSiH12C24N4(Cl2F3)2
_symmetry_space_group_name_H-M   'P 1'
_cell_length_a   7.98156765
_cell_length_b   13.75404226
_cell_length_c   13.75441542
_cell_angle_alpha   89.97591707
_cell_angle_beta   90.33986247
_cell_angle_gamma   90.34084096
_symmetry_Int_Tables_number   1
_chemical_formula_structural   CuSiH12C24N4(Cl2F3)2
_chemical_formula_sum   'Cu1 Si1 H12 C24 N4 Cl4 F6'
_cell_volume   1509.89008466
_cell_formula_units_Z   1
loop_
 _symmetry_equiv_pos_site_id
 _symmetry_equiv_pos_as_xyz
  1  'x, y, z'
loop_
 _atom_site_type_symbol
 _atom_site_label
 _atom_site_symmetry_multiplicity
 _atom_site_fract_x
 _atom_site_fract_y
 _atom_site_fract_z
 _atom_site_occupancy
 _atom_site_pbe_bader_charge
 _atom_site_pbe_bader_spin_density
 _atom_site_pbe_cm5_charge
 _atom_site_pbe_ddec_charge
 _atom_site_pbe_ddec_spin_density
 _atom_site_pbe_ddec_sum_bond_order
 _atom_site_pbe_magmom
Cu  Cu0  1  0.50001220  0.49999224  0.50000089  1  1.082611  0.569141  0.778242  0.697587  0.732298  2.273934  0.567
Si  Si1  1  0.00001091  0.49999534  0.50000433  1  3.17137  -0.000195  0.2425  1.717775  -0.000361  3.963766  0.0
H  H2  1  0.24092473  0.65612110  0.50001977  1  0.205679  0.002149  0.122271  0.114242  0.00102  1.042417  0.002
H  H3  1  0.23300592  0.83671932  0.50002733  1  0.080341  0.001478  0.114711  0.128518  0.000754  0.991197  0.001
H  H4  1  0.76403370  0.65630719  0.49992398  1  0.217917  0.002469  0.123049  0.126278  0.00118  1.039758  0.002
H  H5  1  0.23599934  0.34367439  0.50005819  1  0.218385  0.002467  0.122977  0.126158  0.001179  1.039598  0.002
H  H6  1  0.75910001  0.34385755  0.50005400  1  0.206137  0.002147  0.122251  0.114236  0.00102  1.042384  0.002
H  H7  1  0.76702994  0.16325426  0.50002319  1  0.079723  0.001479  0.114595  0.128507  0.000754  0.991034  0.001
H  H8  1  0.24093392  0.50003235  0.65613919  1  0.206248  0.002148  0.122316  0.114375  0.00102  1.042141  0.002
H  H9  1  0.23300371  0.50003112  0.83673834  1  0.080155  0.001479  0.11464  0.128552  0.000754  0.991061  0.001
H  H10  1  0.76403287  0.49993336  0.65632845  1  0.218114  0.002469  0.122929  0.126034  0.00118  1.039802  0.002
H  H11  1  0.23599557  0.50009401  0.34368715  1  0.218193  0.002468  0.122926  0.126047  0.00118  1.039885  0.002
H  H12  1  0.75909765  0.49988234  0.34386626  1  0.206236  0.002148  0.122235  0.114343  0.001021  1.042043  0.002
H  H13  1  0.76701924  0.49991263  0.16326709  1  0.079981  0.001478  0.114632  0.128524  0.000754  0.990954  0.001
C  C14  1  0.35624396  0.69870986  0.49995770  1  0.500366  -0.000881  0.05089  0.087713  -0.00118  3.901929  0.0
C  C15  1  0.35287482  0.79937678  0.50001052  1  -0.045092  0.006127  -0.06494  -0.133963  0.004089  3.884736  0.005
C  C16  1  0.50350810  0.85323705  0.50000691  1  0.171792  -0.003281  0.014139  0.105581  -0.003669  4.095688  -0.002
C  C17  1  0.65410131  0.79959891  0.50000279  1  0.100562  0.006083  0.02942  0.07278  0.003959  3.980274  0.005
C  C18  1  0.64869060  0.69828592  0.49995990  1  0.48137  -0.001063  0.050023  0.029153  -0.001368  3.879155  -0.001
C  C19  1  0.50227552  0.95570420  0.50002082  1  -0.054022  -0.001119  -0.028646  -0.074918  -0.001226  4.097482  0.0
C  C20  1  0.49773393  0.04427443  0.50000493  1  -0.281076  -0.001168  -0.028094  -0.074248  -0.001226  4.097168  0.0
C  C21  1  0.49650760  0.14674232  0.50001595  1  0.172608  -0.00328  0.014012  0.10551  -0.003669  4.09587  -0.002
C  C22  1  0.34591680  0.20038410  0.49999753  1  0.10024  0.006082  0.029411  0.072639  0.003958  3.980628  0.005
C  C23  1  0.35133628  0.30169856  0.50003899  1  0.481723  -0.001064  0.050115  0.029546  -0.001368  3.878683  -0.001
C  C24  1  0.64378686  0.30126517  0.50008627  1  0.500164  -0.000881  0.051108  0.088219  -0.00118  3.901467  0.0
C  C25  1  0.64714724  0.20059241  0.50004216  1  -0.045893  0.006128  -0.06479  -0.134053  0.004088  3.884636  0.005
C  C26  1  0.35624752  0.49996795  0.69872693  1  0.499928  -0.000881  0.051107  0.088073  -0.00118  3.901304  0.0
C  C27  1  0.35287938  0.50001057  0.79939332  1  -0.045742  0.006128  -0.064976  -0.134295  0.004089  3.884737  0.005
C  C28  1  0.50351057  0.49999753  0.85324992  1  0.172472  -0.00328  0.014108  0.105791  -0.003668  4.095782  -0.002
C  C29  1  0.65410958  0.49999636  0.79961248  1  0.100232  0.006084  0.029392  0.072526  0.003959  3.980443  0.005
C  C30  1  0.64869415  0.49996870  0.69830153  1  0.482861  -0.001066  0.050207  0.029733  -0.001367  3.878618  -0.001
C  C31  1  0.50227640  0.49998889  0.95571647  1  -0.053568  -0.001119  -0.028355  -0.074734  -0.001226  4.097415  0.0
C  C32  1  0.49774416  0.49997450  0.04429113  1  -0.281398  -0.001168  -0.028396  -0.074521  -0.001226  4.097293  0.0
C  C33  1  0.49652012  0.49998478  0.14676134  1  0.171704  -0.003281  0.013954  0.105263  -0.003669  4.09574  -0.002
C  C34  1  0.34591871  0.50000266  0.20040022  1  0.100765  0.006083  0.029464  0.072821  0.003959  3.98019  0.005
C  C35  1  0.35133044  0.50004267  0.30171115  1  0.481503  -0.001062  0.05021  0.029548  -0.001367  3.878814  -0.001
C  C36  1  0.64377426  0.49998235  0.30128868  1  0.499049  -0.000881  0.051125  0.088205  -0.001182  3.901005  0.0
C  C37  1  0.64715243  0.49994193  0.20062157  1  -0.044972  0.006127  -0.064947  -0.134126  0.004089  3.884433  0.005
N  N38  1  0.50212474  0.64936425  0.49995560  1  -1.191221  0.093357  -0.328173  -0.197888  0.062214  3.572843  0.082
N  N39  1  0.49790851  0.35061732  0.50006729  1  -1.191313  0.093357  -0.328473  -0.198616  0.062214  3.572758  0.082
N  N40  1  0.50212777  0.49996730  0.64938339  1  -1.19224  0.093376  -0.328358  -0.198441  0.062224  3.572357  0.082
N  N41  1  0.49789539  0.50000917  0.35063004  1  -1.191016  0.093358  -0.328307  -0.198338  0.062216  3.572474  0.082
Cl  Cl42  1  0.84501681  0.85790407  0.49996278  1  -0.1728  0.0031  0.015162  -0.050873  0.001974  1.479391  0.002
Cl  Cl43  1  0.15499616  0.14208040  0.50001136  1  -0.172512  0.0031  0.015228  -0.050851  0.001974  1.479531  0.002
Cl  Cl44  1  0.84503051  0.49995441  0.85792092  1  -0.172872  0.003101  0.015196  -0.050832  0.001974  1.479336  0.002
Cl  Cl45  1  0.15500416  0.50007007  0.14209106  1  -0.172682  0.0031  0.015223  -0.050838  0.001974  1.479367  0.002
F  F46  1  0.21753535  0.50024263  0.50026652  1  -0.831895  -0.001724  -0.203775  -0.529918  -0.001867  1.353567  -0.001
F  F47  1  0.78249410  0.49974040  0.49974546  1  -0.831847  -0.001725  -0.203719  -0.529915  -0.001867  1.353675  -0.001
F  F48  1  0.00003219  0.58785566  0.41213921  1  -0.829285  0.000225  -0.251299  -0.545689  0.000198  1.078122  0.0
F  F49  1  0.00000590  0.41213287  0.58786876  1  -0.829327  0.000225  -0.251333  -0.545734  0.000198  1.07809  0.0
F  F50  1  0.00051977  0.58783126  0.58783351  1  -0.828799  0.000229  -0.251587  -0.545723  0.000201  1.078186  0.0
F  F51  1  0.99948840  0.41216263  0.41217189  1  -0.828856  0.000229  -0.251605  -0.545764  0.0002  1.078227  0.0
