# generated using pymatgen
data_Al2H10C14BrO10
_symmetry_space_group_name_H-M   'P 1'
_cell_length_a   6.66849232
_cell_length_b   13.49851545
_cell_length_c   16.79064756
_cell_angle_alpha   90.87957246
_cell_angle_beta   91.13169875
_cell_angle_gamma   89.73309653
_symmetry_Int_Tables_number   1
_chemical_formula_structural   Al2H10C14BrO10
_chemical_formula_sum   'Al4 H20 C28 Br2 O20'
_cell_volume   1510.91867314
_cell_formula_units_Z   2
loop_
 _symmetry_equiv_pos_site_id
 _symmetry_equiv_pos_as_xyz
  1  'x, y, z'
loop_
 _atom_site_type_symbol
 _atom_site_label
 _atom_site_symmetry_multiplicity
 _atom_site_fract_x
 _atom_site_fract_y
 _atom_site_fract_z
 _atom_site_occupancy
 _atom_site_pbe_bader_charge
 _atom_site_pbe_bader_spin_density
 _atom_site_pbe_cm5_charge
 _atom_site_pbe_ddec_charge
 _atom_site_pbe_ddec_spin_density
 _atom_site_pbe_ddec_sum_bond_order
 _atom_site_pbe_magmom
Al  Al0  1  0.89968864  0.50238697  0.49740060  1  2.502678  0  0.398175  1.638516  0  2.577441  0
Al  Al1  1  0.39970834  0.50761500  0.49714190  1  2.501065  0  0.393682  1.641793  0  2.59021  0
Al  Al2  1  0.37198544  0.98599752  0.99320861  1  2.503086  0  0.393547  1.657908  0  2.576608  0
Al  Al3  1  0.87408526  0.98994043  0.99430748  1  2.504983  0  0.402273  1.645931  0  2.566272  0
H  H4  1  0.96911398  0.58675458  0.76767671  1  0.063038  0  0.100087  0.086906  0  0.99041  0
H  H5  1  0.77844921  0.77634223  0.77740122  1  0.061883  0  0.09695  0.084261  0  1.012083  0
H  H6  1  0.29674281  0.90562569  0.72544221  1  0.091727  0  0.091313  0.075871  0  1.027387  0
H  H7  1  0.48772214  0.71595447  0.71542724  1  0.075268  0  0.09733  0.08497  0  1.011319  0
H  H8  1  0.83182235  0.68326987  0.29700379  1  0.129188  0  0.114145  0.112597  0  0.976187  0
H  H9  1  0.28916077  0.71512538  0.30799280  1  0.117724  0  0.11157  0.127407  0  0.990087  0
H  H10  1  0.82948775  0.79476863  0.18175997  1  0.085179  0  0.113451  0.112541  0  0.975407  0
H  H11  1  0.89390339  0.20397251  0.82237203  1  0.108731  0  0.111915  0.121334  0  0.996952  0
H  H12  1  0.47961360  0.29956509  0.68369639  1  0.092973  0  0.090105  0.105269  0  1.075868  0
H  H13  1  0.90471164  0.20328685  0.17856195  1  0.10773  0  0.108742  0.11619  0  1.006991  0
H  H14  1  0.93033018  0.29464075  0.30500114  1  0.089828  0  0.111822  0.112496  0  0.977369  0
H  H15  1  0.47013028  0.31304126  0.29401468  1  0.095726  0  0.095006  0.111708  0  1.056715  0
H  H16  1  0.29839264  0.66530049  0.86013771  1  0.069029  0  0.098637  0.084004  0  0.992248  0
H  H17  1  0.29036277  0.79950135  0.19921636  1  0.117119  0  0.110525  0.126639  0  0.99267  0
H  H18  1  0.93949584  0.29929241  0.70293470  1  0.087141  0  0.105341  0.101262  0  0.992931  0
H  H19  1  0.96832751  0.82709903  0.63296658  1  0.059204  0  0.100214  0.086493  0  0.989812  0
H  H20  1  0.65925632  0.62546434  0.53450925  1  0.657016  0  0.350991  0.428166  0  0.860325  0
H  H21  1  0.15900605  0.38166059  0.52648792  1  0.630132  0  0.351674  0.429881  0  0.855311  0
H  H22  1  0.62783167  0.86419544  0.96580090  1  0.623351  0  0.355647  0.432701  0  0.850849  0
H  H23  1  0.12625365  0.12058689  0.99093452  1  0.629316  0  0.359513  0.440465  0  0.835392  0
C  C24  1  0.65744479  0.38459858  0.60437760  1  1.542972  0  0.255766  0.675987  0  4.108898  0
C  C25  1  0.63796596  0.39045816  0.38651774  1  1.565632  0  0.260684  0.676926  0  4.111161  0
C  C26  1  0.13573892  0.62102284  0.39037848  1  1.562357  0  0.260532  0.673146  0  4.126678  0
C  C27  1  0.15673024  0.62260592  0.60876235  1  1.56316  0  0.264663  0.644181  0  4.10742  0
C  C28  1  0.04158673  0.65838097  0.75944799  1  -0.025585  0  -0.07013  -0.060315  0  3.617747  0
C  C29  1  0.22572709  0.70021861  0.80865696  1  -0.028344  0  -0.072859  -0.063871  0  3.632656  0
C  C30  1  0.11723984  0.80403065  0.81281367  1  -0.004753  0  -0.006788  -0.04198  0  3.660375  0
C  C31  1  0.93553832  0.76224331  0.76310659  1  -0.018657  0  -0.078893  -0.071244  0  3.650655  0
C  C32  1  0.04086309  0.79193528  0.68436278  1  -0.035188  0  -0.071956  -0.061931  0  3.624195  0
C  C33  1  0.22490090  0.83381378  0.73355638  1  -0.045316  0  -0.070447  -0.055705  0  3.609681  0
C  C34  1  0.33082316  0.73002174  0.72995631  1  -0.046252  0  -0.079778  -0.071157  0  3.645901  0
C  C35  1  0.14928326  0.68799865  0.68032266  1  0.01812  0  -0.006299  -0.03787  0  3.652494  0
C  C36  1  0.97549964  0.71319300  0.27857997  1  -0.046243  0  -0.066146  -0.024372  0  3.974465  0
C  C37  1  0.14029324  0.68790503  0.32179852  1  -0.093696  0  -0.081359  -0.225213  0  3.872732  0
C  C38  1  0.97464503  0.77665344  0.20942520  1  -0.012028  0  -0.065983  -0.020711  0  3.972511  0
C  C39  1  0.13961650  0.81419276  0.17583024  1  -0.081919  0  -0.084586  -0.233053  0  3.885012  0
C  C40  1  0.76291675  0.21188417  0.78253560  1  0.069212  0  -0.081348  -0.096189  0  3.985666  0
C  C41  1  0.60552614  0.15645087  0.80527370  1  -0.160443  0  -0.016216  -0.042762  0  3.830213  0
C  C42  1  0.78599050  0.27747796  0.71602421  1  -0.065697  0  -0.077727  -0.018483  0  3.993326  0
C  C43  1  0.63496118  0.31661805  0.67165420  1  0.028552  0  -0.089967  -0.224507  0  3.882915  0
C  C44  1  0.76716977  0.21274732  0.21252997  1  0.072016  0  -0.07975  -0.093429  0  3.986568  0
C  C45  1  0.61177439  0.15920809  0.18183609  1  -0.14585  0  -0.016003  -0.047278  0  3.845342  0
C  C46  1  0.77977001  0.27796933  0.28160409  1  -0.058648  0  -0.073446  -0.014915  0  3.982256  0
C  C47  1  0.62255168  0.32319498  0.31662873  1  0.009985  0  -0.087492  -0.226563  0  3.882834  0
C  C48  1  0.62686752  0.10193552  0.10500812  1  1.614459  0  0.2625  0.64379  0  4.127146  0
C  C49  1  0.61100363  0.09893290  0.88125992  1  1.626114  0  0.25499  0.630895  0  4.14521  0
C  C50  1  0.11304140  0.86894462  0.88446684  1  1.560716  0  0.269176  0.652263  0  4.097681  0
C  C51  1  0.13302053  0.87671005  0.10470761  1  1.555178  0  0.258058  0.673487  0  4.129797  0
Br  Br52  1  0.35912996  0.14280321  0.74692200  1  -0.039008  0  0.068747  -0.008478  0  1.504278  0
Br  Br53  1  0.35675017  0.14768234  0.22943814  1  -0.030084  0  0.06714  -0.006003  0  1.483697  0
O  O54  1  0.47089969  0.42787537  0.40781806  1  -1.252256  0  -0.234001  -0.579252  0  2.307155  0
O  O55  1  0.83061480  0.41452192  0.58480922  1  -1.255521  0  -0.242416  -0.600712  0  2.295791  0
O  O56  1  0.98807955  0.60183910  0.57533794  1  -1.264312  0  -0.242935  -0.61109  0  2.33211  0
O  O57  1  0.80760521  0.40549605  0.42080247  1  -1.253855  0  -0.235875  -0.591265  0  2.314032  0
O  O58  1  0.96858021  0.58498919  0.41060673  1  -1.255459  0  -0.234087  -0.586529  0  2.327539  0
O  O59  1  0.49036557  0.40713198  0.57025558  1  -1.255697  0  -0.242264  -0.605111  0  2.316679  0
O  O60  1  0.65171020  0.56585961  0.50163585  1  -1.461746  0  -0.448712  -0.990267  0  2.194393  0
O  O61  1  0.30541994  0.60488925  0.42461729  1  -1.248846  0  -0.238104  -0.595163  0  2.308783  0
O  O62  1  0.32853547  0.59211687  0.58674539  1  -1.257852  0  -0.239427  -0.598838  0  2.322136  0
O  O63  1  0.15160916  0.44404144  0.49873918  1  -1.434469  0  -0.448677  -0.990137  0  2.192155  0
O  O64  1  0.78141851  0.08728555  0.91558826  1  -1.252136  0  -0.238694  -0.585397  0  2.323319  0
O  O65  1  0.46282572  0.08373166  0.06836497  1  -1.26235  0  -0.238006  -0.596413  0  2.411668  0
O  O66  1  0.30361850  0.90518016  0.08051896  1  -1.255466  0  -0.240616  -0.600124  0  2.317932  0
O  O67  1  0.44343004  0.06830221  0.90512621  1  -1.251358  0  -0.238555  -0.592505  0  2.413188  0
O  O68  1  0.28294641  0.88728351  0.91798599  1  -1.27094  0  -0.24107  -0.608598  0  2.32424  0
O  O69  1  0.80089444  0.07737514  0.08181957  1  -1.246097  0  -0.231213  -0.573092  0  2.318226  0
O  O70  1  0.62548180  0.92845105  0.99233717  1  -1.424153  0  -0.447308  -0.987927  0  2.194987  0
O  O71  1  0.94375434  0.90179584  0.90727527  1  -1.259903  0  -0.237426  -0.598635  0  2.325342  0
O  O72  1  0.96357865  0.89657232  0.07197716  1  -1.259897  0  -0.240892  -0.604318  0  2.333818  0
O  O73  1  0.12305857  0.04902026  0.99223287  1  -1.431563  0  -0.447459  -0.994583  0  2.20454  0
