# generated using pymatgen
data_AgH10C7(NO)3
_symmetry_space_group_name_H-M   'P 1'
_cell_length_a   7.53267673
_cell_length_b   7.75755023
_cell_length_c   8.20012052
_cell_angle_alpha   95.70058146
_cell_angle_beta   108.35763947
_cell_angle_gamma   99.82475124
_symmetry_Int_Tables_number   1
_chemical_formula_structural   AgH10C7(NO)3
_chemical_formula_sum   'Ag2 H20 C14 N6 O6'
_cell_volume   442.07606019
_cell_formula_units_Z   2
loop_
 _symmetry_equiv_pos_site_id
 _symmetry_equiv_pos_as_xyz
  1  'x, y, z'
loop_
 _atom_site_type_symbol
 _atom_site_label
 _atom_site_symmetry_multiplicity
 _atom_site_fract_x
 _atom_site_fract_y
 _atom_site_fract_z
 _atom_site_occupancy
 _atom_site_hle17_bader_spin_density
 _atom_site_hle17_ddec_charge
 _atom_site_hle17_ddec_spin_density
 _atom_site_hle17_ddec_sum_bond_order
 _atom_site_hle17_magmom
 _atom_site_hse06_10hf_bader_spin_density
 _atom_site_hse06_10hf_ddec_charge
 _atom_site_hse06_10hf_ddec_spin_density
 _atom_site_hse06_10hf_ddec_sum_bond_order
 _atom_site_hse06_10hf_magmom
 _atom_site_hse06_bader_spin_density
 _atom_site_hse06_ddec_charge
 _atom_site_hse06_ddec_spin_density
 _atom_site_hse06_ddec_sum_bond_order
 _atom_site_hse06_magmom
 _atom_site_pbe_bader_spin_density
 _atom_site_pbe_cm5_charge
 _atom_site_pbe_ddec_charge
 _atom_site_pbe_ddec_spin_density
 _atom_site_pbe_ddec_sum_bond_order
 _atom_site_pbe_magmom
Ag  Ag0  1  0.35359657  0.10769939  0.41810222  1  0  0.481657  0  1.480874  0  0  0.345767  0  1.924734  0  0  0.374448  0  1.878879  0  0  0.448595  0.326276  0  1.956254  0
Ag  Ag1  1  0.64640861  0.89229527  0.58190828  1  0  0.481723  0  1.480816  0  0  0.345868  0  1.924583  0  0  0.374547  0  1.87873  0  0  0.448628  0.326376  0  1.956102  0
H  H2  1  0.10755901  0.30289888  0.55733786  1  0  0.085368  0  0.974256  0  0  0.090238  0  1.045197  0  0  0.093607  0  1.041515  0  0  0.111891  0.087621  0  1.048083  0
H  H3  1  0.89243089  0.69709582  0.44266075  1  0  0.085405  0  0.974324  0  0  0.090248  0  1.045294  0  0  0.093618  0  1.041611  0  0  0.11185  0.08761  0  1.048199  0
H  H4  1  0.13516562  0.58333005  0.75412651  1  0  0.096468  0  0.990678  0  0  0.104412  0  1.056083  0  0  0.107194  0  1.055663  0  0  0.102781  0.102353  0  1.056664  0
H  H5  1  0.86485057  0.41668063  0.24586442  1  0  0.096402  0  0.990541  0  0  0.104412  0  1.055899  0  0  0.107195  0  1.055475  0  0  0.102817  0.102352  0  1.056481  0
H  H6  1  0.46339646  0.76476124  0.92856929  1  0  0.106607  0  0.953691  0  0  0.118656  0  1.009927  0  0  0.121086  0  1.00848  0  0  0.110043  0.1168  0  1.011134  0
H  H7  1  0.53660297  0.23524409  0.07142709  1  0  0.106517  0  0.953642  0  0  0.118578  0  1.009853  0  0  0.121007  0  1.008407  0  0  0.110023  0.116714  0  1.01107  0
H  H8  1  0.74794183  0.66170773  0.89655836  1  0  0.116432  0  0.945915  0  0  0.127928  0  1.005826  0  0  0.130864  0  1.004827  0  0  0.109395  0.125749  0  1.006845  0
H  H9  1  0.25206919  0.33829359  0.10344598  1  0  0.116408  0  0.946123  0  0  0.127907  0  1.006014  0  0  0.130839  0  1.005023  0  0  0.10943  0.125732  0  1.007035  0
H  H10  1  0.86095698  0.47845674  0.70219697  1  0  0.094541  0  0.95142  0  0  0.113607  0  1.01032  0  0  0.114588  0  1.010284  0  0  0.100541  0.112894  0  1.010383  0
H  H11  1  0.13904528  0.52153129  0.29781080  1  0  0.094485  0  0.951487  0  0  0.113545  0  1.010377  0  0  0.114528  0  1.010343  0  0  0.100508  0.112831  0  1.010441  0
H  H12  1  0.70908593  0.28546587  0.55985877  1  0  0.085469  0  0.994055  0  0  0.098044  0  1.071336  0  0  0.100119  0  1.06872  0  0  0.089604  0.096433  0  1.073302  0
H  H13  1  0.29091217  0.71452218  0.44014532  1  0  0.08551  0  0.993891  0  0  0.098024  0  1.071261  0  0  0.100098  0  1.068651  0  0  0.089579  0.096412  0  1.073226  0
H  H14  1  0.95957151  0.22013060  0.81783972  1  0  0.067421  0  0.918823  0  0  0.087024  0  0.978287  0  0  0.086769  0  0.97934  0  0  0.105702  0.087096  0  0.97766  0
H  H15  1  0.04042821  0.77985874  0.18217107  1  0  0.067362  0  0.918915  0  0  0.087019  0  0.978346  0  0  0.086762  0  0.979399  0  0  0.105692  0.087093  0  0.977716  0
H  H16  1  0.86348860  0.32959919  0.95947768  1  0  0.041955  0  0.939743  0  0  0.062306  0  1.00341  0  0  0.061646  0  1.004822  0  0  0.094044  0.062739  0  1.002461  0
H  H17  1  0.13650876  0.67039811  0.04053317  1  0  0.041939  0  0.939692  0  0  0.062315  0  1.003355  0  0  0.061653  0  1.004771  0  0  0.094049  0.062746  0  1.002406  0
H  H18  1  0.73997201  0.02467994  0.91796055  1  0  0.292937  0  0.92206  0  0  0.279051  0  0.983911  0  0  0.285972  0  0.978893  0  0  0.28639  0.274012  0  0.987654  0
H  H19  1  0.26002217  0.97530942  0.08204494  1  0  0.292961  0  0.922076  0  0  0.279113  0  0.983888  0  0  0.286039  0  0.978858  0  0  0.286411  0.274073  0  0.987631  0
H  H20  1  0.55896405  0.10429400  0.80819787  1  0  0.276836  0  0.940821  0  0  0.262257  0  1.008759  0  0  0.268472  0  1.004687  0  0  0.279679  0.257751  0  1.011791  0
H  H21  1  0.44103738  0.89569668  0.19181356  1  0  0.276844  0  0.940823  0  0  0.262284  0  1.008759  0  0  0.268494  0  1.004695  0  0  0.279685  0.257778  0  1.011791  0
C  C22  1  0.24661243  0.38709446  0.63511988  1  0  0.129349  0  3.674206  0  0  0.098113  0  3.920555  0  0  0.105328  0  3.939411  0  0  0.039774  0.093455  0  3.907894  0
C  C23  1  0.75339296  0.61290562  0.36486436  1  0  0.129264  0  3.674489  0  0  0.097979  0  3.920918  0  0  0.105192  0  3.939768  0  0  0.039886  0.093335  0  3.908272  0
C  C24  1  0.26300000  0.54093974  0.74599797  1  0  -0.127838  0  3.739089  0  0  -0.140641  0  3.990917  0  0  -0.14939  0  4.014829  0  0  -0.092487  -0.135066  0  3.974982  0
C  C25  1  0.73700077  0.45908287  0.25398948  1  0  -0.127877  0  3.739388  0  0  -0.140693  0  3.991169  0  0  -0.149446  0  4.015088  0  0  -0.092611  -0.135116  0  3.975227  0
C  C26  1  0.44460376  0.64263754  0.84155261  1  0  0.004375  0  3.724739  0  0  -0.016585  0  3.977632  0  0  -0.011986  0  3.995437  0  0  -0.071206  -0.019405  0  3.965688  0
C  C27  1  0.55541209  0.35737716  0.15842885  1  0  0.004711  0  3.723994  0  0  -0.016234  0  3.97687  0  0  -0.011632  0  3.994674  0  0  -0.071114  -0.019051  0  3.964933  0
C  C28  1  0.60375772  0.58571194  0.82356273  1  0  -0.178433  0  3.723698  0  0  -0.194179  0  3.976063  0  0  -0.202138  0  3.995771  0  0  -0.089226  -0.189161  0  3.96311  0
C  C29  1  0.39623467  0.41429873  0.17642351  1  0  -0.178551  0  3.723431  0  0  -0.194393  0  3.975806  0  0  -0.202368  0  3.995492  0  0  -0.089427  -0.189383  0  3.962861  0
C  C30  1  0.57864496  0.42988349  0.70944190  1  0  0.26034  0  3.709624  0  0  0.262786  0  3.943499  0  0  0.27149  0  3.965656  0  0  0.116079  0.256954  0  3.928471  0
C  C31  1  0.42136901  0.57011788  0.29055358  1  0  0.260262  0  3.709795  0  0  0.26289  0  3.943384  0  0  0.271647  0  3.965466  0  0  0.116239  0.257061  0  3.928349  0
C  C32  1  0.74759859  0.36360418  0.69029043  1  0  -0.231307  0  3.714249  0  0  -0.277306  0  3.955907  0  0  -0.280545  0  3.968635  0  0  -0.166722  -0.274823  0  3.947051  0
C  C33  1  0.25240020  0.63638654  0.30970925  1  0  -0.231373  0  3.714136  0  0  -0.277282  0  3.955582  0  0  -0.280543  0  3.968306  0  0  -0.166762  -0.274797  0  3.946723  0
C  C34  1  0.82681688  0.25208774  0.82874099  1  0  0.102074  0  3.62069  0  0  0.045325  0  3.878547  0  0  0.050038  0  3.892758  0  0  -0.074446  0.042237  0  3.868584  0
C  C35  1  0.17318238  0.74790559  0.17126883  1  0  0.102221  0  3.620542  0  0  0.045344  0  3.878558  0  0  0.050061  0  3.892768  0  0  -0.074431  0.042256  0  3.868597  0
N  N36  1  0.40134181  0.33355344  0.61565187  1  0  -0.333597  0  3.292832  0  0  -0.24526  0  3.555245  0  0  -0.26636  0  3.573088  0  0  -0.345042  -0.231045  0  3.542964  0
N  N37  1  0.59866586  0.66645060  0.38433587  1  0  -0.333481  0  3.292929  0  0  -0.245175  0  3.555221  0  0  -0.266302  0  3.573073  0  0  -0.34507  -0.230956  0  3.542929  0
N  N38  1  0.69082201  0.08331876  0.80974890  1  0  -0.603137  0  3.188641  0  0  -0.529775  0  3.44206  0  0  -0.552568  0  3.442588  0  0  -0.647653  -0.513839  0  3.441415  0
N  N39  1  0.30917667  0.91667193  0.19025805  1  0  -0.603103  0  3.188565  0  0  -0.529824  0  3.442024  0  0  -0.552616  0  3.442549  0  0  -0.647607  -0.513889  0  3.44138  0
N  N40  1  0.15352503  0.93618397  0.73821480  1  0  0.696746  0  4.140696  0  0  0.739862  0  4.421337  0  0  0.768518  0  4.426369  0  0  0.094357  0.720598  0  4.417363  0
N  N41  1  0.84646247  0.06381867  0.26178629  1  0  0.695352  0  4.14145  0  0  0.739709  0  4.4212  0  0  0.768367  0  4.426232  0  0  0.094448  0.720446  0  4.417228  0
O  O42  1  0.15921628  0.89824075  0.58668964  1  0  -0.477556  0  1.824924  0  0  -0.464395  0  2.062256  0  0  -0.480422  0  2.053365  0  0  -0.190997  -0.453141  0  2.068091  0
O  O43  1  0.84075626  0.10176985  0.41330895  1  0  -0.477055  0  1.825057  0  0  -0.464412  0  2.062252  0  0  -0.480436  0  2.053348  0  0  -0.191114  -0.453159  0  2.068092  0
O  O44  1  0.01517911  0.85760918  0.77937959  1  0  -0.492466  0  1.74698  0  0  -0.48239  0  1.973853  0  0  -0.496739  0  1.964467  0  0  -0.209316  -0.472319  0  1.980172  0
O  O45  1  0.98481622  0.14239741  0.22063032  1  0  -0.491883  0  1.747079  0  0  -0.482332  0  1.973857  0  0  -0.496681  0  1.96447  0  0  -0.209276  -0.472262  0  1.98018  0
O  O46  1  0.28744606  0.05230426  0.85175134  1  0  -0.494418  0  1.762914  0  0  -0.484908  0  1.975141  0  0  -0.500051  0  1.96911  0  0  -0.201796  -0.474223  0  1.979097  0
O  O47  1  0.71254727  0.94769309  0.14824733  1  0  -0.493868  0  1.76307  0  0  -0.484827  0  1.975151  0  0  -0.499962  0  1.969113  0  0  -0.201815  -0.474145  0  1.979109  0
