# generated using pymatgen
data_CdH13C20NO4
_symmetry_space_group_name_H-M   'P 1'
_cell_length_a   10.00773984
_cell_length_b   10.25749287
_cell_length_c   19.85643058
_cell_angle_alpha   90.00001013
_cell_angle_beta   89.99992458
_cell_angle_gamma   112.26548485
_symmetry_Int_Tables_number   1
_chemical_formula_structural   CdH13C20NO4
_chemical_formula_sum   'Cd4 H52 C80 N4 O16'
_cell_volume   1886.36532591
_cell_formula_units_Z   4
loop_
 _symmetry_equiv_pos_site_id
 _symmetry_equiv_pos_as_xyz
  1  'x, y, z'
loop_
 _atom_site_type_symbol
 _atom_site_label
 _atom_site_symmetry_multiplicity
 _atom_site_fract_x
 _atom_site_fract_y
 _atom_site_fract_z
 _atom_site_occupancy
 _atom_site_pbe_bader_charge
 _atom_site_pbe_bader_spin_density
 _atom_site_pbe_cm5_charge
 _atom_site_pbe_ddec_charge
 _atom_site_pbe_ddec_spin_density
 _atom_site_pbe_ddec_sum_bond_order
 _atom_site_pbe_magmom
Cd  Cd0  1  0.08549565  0.90920916  0.99493009  1  1.244342  0  0.7537  0.88273  0  2.340829  0
Cd  Cd1  1  0.08549621  0.40920929  0.50507012  1  1.245594  0  0.753694  0.882716  0  2.34081  0
Cd  Cd2  1  0.91450471  0.09079158  0.00507010  1  1.245599  0  0.753696  0.882742  0  2.3408  0
Cd  Cd3  1  0.91450514  0.59079144  0.49493007  1  1.244352  0  0.753695  0.882724  0  2.340816  0
H  H4  1  0.61629956  0.62144535  0.96167417  1  0.110255  0  0.112687  0.116111  0  0.986022  0
H  H5  1  0.61629921  0.12144335  0.53832566  1  0.110284  0  0.112682  0.116098  0  0.986016  0
H  H6  1  0.38369920  0.37855644  0.03832551  1  0.110275  0  0.112695  0.116121  0  0.985965  0
H  H7  1  0.38370033  0.87855527  0.46167453  1  0.110263  0  0.11268  0.116116  0  0.986025  0
H  H8  1  0.22489260  0.46580536  0.02951935  1  0.112996  0  0.115605  0.12882  0  0.996501  0
H  H9  1  0.22489351  0.96580630  0.47048030  1  0.112996  0  0.115606  0.128801  0  0.996538  0
H  H10  1  0.77510535  0.53419431  0.97048033  1  0.113011  0  0.115614  0.128816  0  0.996526  0
H  H11  1  0.77510684  0.03419443  0.52951888  1  0.113  0  0.115603  0.128805  0  0.996537  0
H  H12  1  0.07426750  0.61009541  0.03111838  1  0.119972  0  0.122212  0.094145  0  0.996255  0
H  H13  1  0.07426814  0.11009627  0.46888083  1  0.12025  0  0.122229  0.094195  0  0.996168  0
H  H14  1  0.92573044  0.38990427  0.96888180  1  0.119973  0  0.122227  0.094194  0  0.996213  0
H  H15  1  0.92573222  0.88990446  0.53111785  1  0.119976  0  0.122222  0.094183  0  0.996201  0
H  H16  1  0.39671345  0.95157589  0.94330087  1  0.108399  0  0.120198  0.092756  0  0.994683  0
H  H17  1  0.39671446  0.45157494  0.55670014  1  0.108402  0  0.120186  0.092727  0  0.994709  0
H  H18  1  0.60328631  0.04842590  0.05670032  1  0.108392  0  0.120167  0.09269  0  0.994713  0
H  H19  1  0.60328689  0.54842580  0.44330055  1  0.108409  0  0.120158  0.092683  0  0.994717  0
H  H20  1  0.56790106  0.82556735  0.94148376  1  0.126844  0  0.110496  0.129702  0  1.021423  0
H  H21  1  0.56790066  0.32556534  0.55851612  1  0.126817  0  0.110498  0.129722  0  1.021415  0
H  H22  1  0.43209788  0.17443233  0.05851642  1  0.126832  0  0.110505  0.129718  0  1.021408  0
H  H23  1  0.43209988  0.67443329  0.44148407  1  0.126848  0  0.110497  0.129708  0  1.02142  0
H  H24  1  0.57186532  0.81330445  0.13355809  1  0.066246  0  0.099309  0.102279  0  1.032048  0
H  H25  1  0.57186203  0.31330222  0.36644282  1  0.066339  0  0.0993  0.10227  0  1.032088  0
H  H26  1  0.42813503  0.18669628  0.86644159  1  0.066247  0  0.099318  0.102297  0  1.032064  0
H  H27  1  0.42813470  0.68669430  0.63355938  1  0.066226  0  0.099309  0.102273  0  1.032094  0
H  H28  1  0.43090446  0.43699248  0.25518068  1  0.076515  0  0.093925  0.091312  0  1.072244  0
H  H29  1  0.43090602  0.93699357  0.24481832  1  0.076526  0  0.093893  0.091253  0  1.072328  0
H  H30  1  0.56909349  0.56300720  0.74481849  1  0.076522  0  0.093886  0.091277  0  1.072272  0
H  H31  1  0.56909533  0.06300716  0.75518136  1  0.076524  0  0.093922  0.091271  0  1.072303  0
H  H32  1  0.64951499  0.39519832  0.22261887  1  0.068038  0  0.099471  0.102379  0  1.005273  0
H  H33  1  0.64951606  0.89519834  0.27738049  1  0.068053  0  0.09947  0.102344  0  1.005231  0
H  H34  1  0.35048436  0.60480241  0.77738031  1  0.068022  0  0.09946  0.102357  0  1.005262  0
H  H35  1  0.35048530  0.10480239  0.72261919  1  0.068057  0  0.099468  0.102317  0  1.005242  0
H  H36  1  0.82969526  0.56247628  0.14371692  1  0.092725  0  0.102233  0.106012  0  1.008913  0
H  H37  1  0.82969463  0.06247827  0.35628279  1  0.092728  0  0.102237  0.106017  0  1.008936  0
H  H38  1  0.17030468  0.43752341  0.85628226  1  0.092724  0  0.102234  0.105992  0  1.008937  0
H  H39  1  0.17030532  0.93752141  0.64371739  1  0.092749  0  0.102241  0.10601  0  1.008945  0
H  H40  1  0.35397823  0.57587487  0.31970591  1  0.050129  0  0.100675  0.102803  0  1.031335  0
H  H41  1  0.35397929  0.07587488  0.18029312  1  0.050121  0  0.100675  0.102806  0  1.031323  0
H  H42  1  0.64602253  0.42412692  0.68029377  1  0.050117  0  0.100668  0.102806  0  1.031328  0
H  H43  1  0.64602306  0.92412586  0.81970657  1  0.050119  0  0.100683  0.102827  0  1.031273  0
H  H44  1  0.32817030  0.74831866  0.12453489  1  0.062216  0  0.093121  0.087594  0  1.049318  0
H  H45  1  0.32817021  0.24831958  0.37546416  1  0.062244  0  0.093118  0.087572  0  1.049329  0
H  H46  1  0.67182964  0.25168102  0.87546479  1  0.062236  0  0.093126  0.08761  0  1.049309  0
H  H47  1  0.67183055  0.75168220  0.62453552  1  0.062236  0  0.093128  0.087614  0  1.049313  0
H  H48  1  0.12082414  0.80366004  0.16335463  1  0.105518  0  0.099635  0.108044  0  1.01701  0
H  H49  1  0.12082374  0.30365994  0.33664457  1  0.105527  0  0.099639  0.108047  0  1.017013  0
H  H50  1  0.87917581  0.19633964  0.83664505  1  0.105518  0  0.099632  0.108028  0  1.017019  0
H  H51  1  0.87917620  0.69633974  0.66335461  1  0.105508  0  0.099641  0.108068  0  1.016974  0
H  H52  1  0.03316186  0.74985710  0.28248030  1  0.082606  0  0.105683  0.113139  0  0.993861  0
H  H53  1  0.03316181  0.24985709  0.21751946  1  0.082611  0  0.10571  0.113157  0  0.993889  0
H  H54  1  0.96683809  0.25014258  0.71751938  1  0.082613  0  0.105697  0.113127  0  0.99392  0
H  H55  1  0.96683873  0.75014154  0.78248023  1  0.082601  0  0.105682  0.11316  0  0.993821  0
C  C56  1  0.51274393  0.56354742  0.98600134  1  -0.092681  0  -0.067036  -0.100016  0  3.926855  0
C  C57  1  0.51274306  0.06354650  0.51399856  1  0.012497  0  -0.067004  -0.099911  0  3.926881  0
C  C58  1  0.48725602  0.43645226  0.01399784  1  0.012503  0  -0.067005  -0.099939  0  3.926802  0
C  C59  1  0.48725689  0.93645318  0.48600113  1  -0.092683  0  -0.067009  -0.099996  0  3.926864  0
C  C60  1  0.41188799  0.63464756  0.98589108  1  0.013817  0  0.017615  0.153755  0  4.00503  0
C  C61  1  0.41188912  0.13464664  0.51410838  1  0.013878  0  0.017605  0.153756  0  4.005132  0
C  C62  1  0.58811236  0.36535317  0.01410860  1  0.013816  0  0.017629  0.153767  0  4.005079  0
C  C63  1  0.58811182  0.86535305  0.48589130  1  0.0138  0  0.017631  0.153779  0  4.005071  0
C  C64  1  0.26933304  0.57325890  0.01027620  1  -0.020944  0  -0.069731  -0.15974  0  3.902912  0
C  C65  1  0.26933421  0.07325869  0.48972338  1  -0.020965  0  -0.069738  -0.159714  0  3.902925  0
C  C66  1  0.73066691  0.42674078  0.98972348  1  -0.020987  0  -0.069736  -0.159715  0  3.902978  0
C  C67  1  0.73066674  0.92674099  0.51027630  1  -0.020966  0  -0.069735  -0.159743  0  3.902939  0
C  C68  1  0.18345854  0.65206480  0.01054366  1  0.434864  0  0.048354  0.086152  0  3.962434  0
C  C69  1  0.18345830  0.15206354  0.48945599  1  0.434568  0  0.048344  0.086094  0  3.962332  0
C  C70  1  0.81654081  0.34793593  0.98945603  1  0.434842  0  0.048336  0.0861  0  3.962434  0
C  C71  1  0.81654164  0.84793614  0.51054369  1  0.434829  0  0.048353  0.086139  0  3.96236  0
C  C72  1  0.36467603  0.84418073  0.96226148  1  0.480531  0  0.04834  0.090754  0  3.961407  0
C  C73  1  0.36467609  0.34417978  0.53773954  1  0.480519  0  0.048367  0.090785  0  3.96141  0
C  C74  1  0.63532232  0.15582000  0.03773921  1  0.480519  0  0.048373  0.090814  0  3.961412  0
C  C75  1  0.63532385  0.65581990  0.46226115  1  0.480513  0  0.048391  0.090842  0  3.961378  0
C  C76  1  0.45833026  0.77330199  0.96095104  1  -0.067421  0  -0.074653  -0.168641  0  3.902183  0
C  C77  1  0.45832991  0.27329999  0.53904941  1  -0.067481  0  -0.074694  -0.168737  0  3.902229  0
C  C78  1  0.54166909  0.22669875  0.03904914  1  -0.06742  0  -0.074677  -0.168691  0  3.902247  0
C  C79  1  0.54166962  0.72669864  0.46095077  1  -0.067417  0  -0.074679  -0.168698  0  3.902213  0
C  C80  1  0.81155367  0.79482397  0.08494756  1  1.557415  0  0.208743  0.587213  0  4.203127  0
C  C81  1  0.81155264  0.29482276  0.41505269  1  1.557428  0  0.208725  0.587249  0  4.203215  0
C  C82  1  0.18844568  0.20517677  0.91505111  1  1.557386  0  0.208743  0.587195  0  4.203105  0
C  C83  1  0.18844549  0.70517481  0.58494800  1  1.557401  0  0.208733  0.587222  0  4.203091  0
C  C84  1  0.70824073  0.69545329  0.13341199  1  -0.041897  0  -0.02423  -0.038111  0  4.003317  0
C  C85  1  0.70823884  0.19545211  0.36658983  1  -0.041857  0  -0.024179  -0.038151  0  4.003411  0
C  C86  1  0.29175822  0.30454639  0.86658769  1  -0.0418  0  -0.024204  -0.038095  0  4.003261  0
C  C87  1  0.29175888  0.80454441  0.63341237  1  -0.042574  0  -0.024179  -0.038115  0  4.003344  0
C  C88  1  0.58553478  0.71987260  0.15298655  1  -0.062345  0  -0.08803  -0.148467  0  3.958324  0
C  C89  1  0.58553776  0.21987355  0.34701536  1  -0.062565  0  -0.08811  -0.148511  0  3.958421  0
C  C90  1  0.41446376  0.28012603  0.84701364  1  -0.062438  0  -0.088052  -0.148513  0  3.958377  0
C  C91  1  0.41446237  0.78012403  0.65298684  1  -0.061674  0  -0.088059  -0.148496  0  3.95844  0
C  C92  1  0.48434442  0.62859815  0.19727148  1  0.020796  0  -0.010807  0.062008  0  4.006719  0
C  C93  1  0.48434435  0.12860123  0.30272948  1  0.020423  0  -0.010775  0.062015  0  4.006651  0
C  C94  1  0.51565411  0.37140048  0.80272871  1  0.020801  0  -0.010798  0.06205  0  4.006658  0
C  C95  1  0.51565559  0.87139845  0.69727171  1  0.020391  0  -0.010783  0.06203  0  4.006746  0
C  C96  1  0.50956794  0.51120465  0.22176982  1  -0.126407  0  -0.088373  -0.119935  0  3.948123  0
C  C97  1  0.50956853  0.01120670  0.27823010  1  -0.126396  0  -0.088308  -0.119849  0  3.948142  0
C  C98  1  0.49043241  0.48879608  0.77823087  1  -0.126373  0  -0.088328  -0.119894  0  3.948061  0
C  C99  1  0.49043241  0.98879298  0.72176958  1  -0.126405  0  -0.088394  -0.119952  0  3.948201  0
C  C100  1  0.63258854  0.48707430  0.20293508  1  -0.000386  0  -0.093949  -0.08012  0  4.015997  0
C  C101  1  0.63258596  0.98707535  0.29706531  1  -0.000369  0  -0.093962  -0.080032  0  4.015919  0
C  C102  1  0.36741040  0.51292538  0.79706461  1  -0.000389  0  -0.093923  -0.080064  0  4.015948  0
C  C103  1  0.36741358  0.01292327  0.70293538  1  -0.000307  0  -0.093931  -0.079922  0  4.015894  0
C  C104  1  0.73275951  0.57914623  0.15887023  1  -0.015676  0  -0.087969  -0.097822  0  3.979635  0
C  C105  1  0.73275910  0.07914613  0.34112955  1  -0.015658  0  -0.08799  -0.097861  0  3.979623  0
C  C106  1  0.26723944  0.42085345  0.84112895  1  -0.015686  0  -0.088022  -0.097861  0  3.979676  0
C  C107  1  0.26724084  0.92085355  0.65887114  1  -0.015718  0  -0.088036  -0.097923  0  3.97971  0
C  C108  1  0.13750483  0.62469772  0.37895631  1  1.54726  0  0.205117  0.582029  0  4.207847  0
C  C109  1  0.13750366  0.12469672  0.12104286  1  1.54728  0  0.205114  0.582011  0  4.207662  0
C  C110  1  0.86249752  0.37530302  0.62104388  1  1.547185  0  0.205141  0.582061  0  4.207797  0
C  C111  1  0.86249770  0.87530402  0.87895632  1  1.54751  0  0.205141  0.582079  0  4.207776  0
C  C112  1  0.18921880  0.65966233  0.30775820  1  -0.103168  0  -0.021618  -0.032465  0  3.98117  0
C  C113  1  0.18921723  0.15966338  0.19224144  1  -0.10315  0  -0.021613  -0.032458  0  3.981109  0
C  C114  1  0.81078255  0.34033841  0.69224199  1  -0.103171  0  -0.021651  -0.032522  0  3.981265  0
C  C115  1  0.81078312  0.84033735  0.80775773  1  -0.103166  0  -0.021661  -0.032521  0  3.981216  0
C  C116  1  0.30400229  0.62562483  0.28478172  1  0.068551  0  -0.083838  -0.141855  0  3.945518  0
C  C117  1  0.30400266  0.12562587  0.21521784  1  0.068579  0  -0.083873  -0.141903  0  3.945435  0
C  C118  1  0.69599906  0.37437591  0.71521846  1  0.068828  0  -0.083832  -0.141829  0  3.945437  0
C  C119  1  0.69599870  0.87437487  0.78478184  1  0.068844  0  -0.08387  -0.141879  0  3.945413  0
C  C120  1  0.35704831  0.65781106  0.21906396  1  -0.03938  0  -0.009524  0.063447  0  4.006268  0
C  C121  1  0.35704949  0.15781206  0.28093558  1  -0.038999  0  -0.009452  0.063516  0  4.006297  0
C  C122  1  0.64295122  0.34218756  0.78093623  1  -0.039625  0  -0.009508  0.063415  0  4.006193  0
C  C123  1  0.64295046  0.84218762  0.71906461  1  -0.039291  0  -0.009433  0.063513  0  4.006297  0
C  C124  1  0.28905880  0.72261741  0.17596913  1  -0.160376  0  -0.091008  -0.130586  0  3.971232  0
C  C125  1  0.28906086  0.22261838  0.32403046  1  -0.160384  0  -0.091054  -0.130596  0  3.971247  0
C  C126  1  0.71094155  0.27738332  0.82403056  1  -0.160377  0  -0.091043  -0.130636  0  3.971253  0
C  C127  1  0.71093991  0.77738341  0.67596922  1  -0.160378  0  -0.091091  -0.13071  0  3.971263  0
C  C128  1  0.17210473  0.75411320  0.19791470  1  0.003871  0  -0.092513  -0.081398  0  4.0098  0
C  C129  1  0.17210444  0.25411313  0.30208547  1  0.003855  0  -0.092501  -0.081382  0  4.009847  0
C  C130  1  0.82789621  0.24588648  0.80208549  1  0.003867  0  -0.092485  -0.08133  0  4.00974  0
C  C131  1  0.82789551  0.74588655  0.69791422  1  0.003868  0  -0.09245  -0.081319  0  4.009712  0
C  C132  1  0.12282609  0.72428799  0.26405500  1  0.01439  0  -0.082613  -0.089819  0  3.950929  0
C  C133  1  0.12282739  0.22428902  0.23594570  1  0.014381  0  -0.082646  -0.089861  0  3.951103  0
C  C134  1  0.87717345  0.27571064  0.73594468  1  0.014368  0  -0.082611  -0.0898  0  3.951042  0
C  C135  1  0.87717255  0.77571066  0.76405449  1  0.014402  0  -0.082627  -0.089867  0  3.951012  0
N  N136  1  0.22979191  0.78553470  0.98730933  1  -1.229938  0  -0.338356  -0.232097  0  3.515199  0
N  N137  1  0.22979204  0.28553377  0.51269077  1  -1.229863  0  -0.338344  -0.232066  0  3.515156  0
N  N138  1  0.77020745  0.21446604  0.01269136  1  -1.229859  0  -0.338355  -0.232105  0  3.515183  0
N  N139  1  0.77020790  0.71446591  0.48730891  1  -1.229893  0  -0.338353  -0.2321  0  3.515169  0
O  O140  1  0.91703393  0.76392294  0.06458334  1  -1.164988  0  -0.330129  -0.563264  0  2.295959  0
O  O141  1  0.91703385  0.26392172  0.43541633  1  -1.165015  0  -0.330103  -0.563256  0  2.295953  0
O  O142  1  0.08296542  0.23607779  0.93541584  1  -1.165022  0  -0.330126  -0.563256  0  2.295906  0
O  O143  1  0.08296610  0.73607796  0.56458436  1  -1.165007  0  -0.330108  -0.563246  0  2.295919  0
O  O144  1  0.78494768  0.90199257  0.06746205  1  -1.16426  0  -0.332086  -0.562519  0  2.312826  0
O  O145  1  0.78494842  0.40199345  0.43253822  1  -1.164257  0  -0.332077  -0.56251  0  2.312843  0
O  O146  1  0.21505086  0.09800606  0.93253662  1  -1.164225  0  -0.332062  -0.562482  0  2.312831  0
O  O147  1  0.21505153  0.59800623  0.56746297  1  -1.164264  0  -0.332082  -0.562507  0  2.312827  0
O  O148  1  0.18491466  0.54349963  0.41143343  1  -1.172435  0  -0.334746  -0.577081  0  2.295407  0
O  O149  1  0.18491598  0.04349971  0.08856621  1  -1.172458  0  -0.334735  -0.577067  0  2.295268  0
O  O150  1  0.81508670  0.45650111  0.58856676  1  -1.172394  0  -0.334766  -0.577121  0  2.295422  0
O  O151  1  0.81508697  0.95649998  0.91143347  1  -1.172711  0  -0.334746  -0.577102  0  2.295443  0
O  O152  1  0.05030177  0.67799629  0.40151478  1  -1.159237  0  -0.335928  -0.559276  0  2.255539  0
O  O153  1  0.05030106  0.17799636  0.09848496  1  -1.159254  0  -0.335939  -0.559282  0  2.255539  0
O  O154  1  0.94970059  0.32200444  0.59848541  1  -1.159187  0  -0.335945  -0.559276  0  2.255511  0
O  O155  1  0.94970088  0.82200332  0.90151472  1  -1.159206  0  -0.335952  -0.559302  0  2.255483  0
