# generated using pymatgen
data_Zn2H16C19N2O9
_symmetry_space_group_name_H-M   'P 1'
_cell_length_a   8.38899018
_cell_length_b   9.70187007
_cell_length_c   12.98687067
_cell_angle_alpha   94.28599336
_cell_angle_beta   108.62971842
_cell_angle_gamma   91.43115279
_symmetry_Int_Tables_number   1
_chemical_formula_structural   Zn2H16C19N2O9
_chemical_formula_sum   'Zn4 H32 C38 N4 O18'
_cell_volume   997.46734780
_cell_formula_units_Z   2
loop_
 _symmetry_equiv_pos_site_id
 _symmetry_equiv_pos_as_xyz
  1  'x, y, z'
loop_
 _atom_site_type_symbol
 _atom_site_label
 _atom_site_symmetry_multiplicity
 _atom_site_fract_x
 _atom_site_fract_y
 _atom_site_fract_z
 _atom_site_occupancy
 _atom_site_hle17_bader_spin_density
 _atom_site_hle17_ddec_charge
 _atom_site_hle17_ddec_spin_density
 _atom_site_hle17_ddec_sum_bond_order
 _atom_site_hle17_magmom
 _atom_site_hse06_10hf_bader_spin_density
 _atom_site_hse06_10hf_ddec_charge
 _atom_site_hse06_10hf_ddec_spin_density
 _atom_site_hse06_10hf_ddec_sum_bond_order
 _atom_site_hse06_10hf_magmom
 _atom_site_hse06_bader_spin_density
 _atom_site_hse06_ddec_charge
 _atom_site_hse06_ddec_spin_density
 _atom_site_hse06_ddec_sum_bond_order
 _atom_site_hse06_magmom
 _atom_site_pbe_bader_spin_density
 _atom_site_pbe_cm5_charge
 _atom_site_pbe_ddec_charge
 _atom_site_pbe_ddec_spin_density
 _atom_site_pbe_ddec_sum_bond_order
 _atom_site_pbe_magmom
Zn  Zn0  1  0.76743267  0.38299523  0.22169574  1  0  1.119349  0  1.779005  0  0  0.946179  0  2.245946  0  0  0.994047  0  2.186055  0  0  0.696881  0.912446  0  2.287513  0
Zn  Zn1  1  0.23256806  0.61700584  0.77830371  1  0  1.119316  0  1.77908  0  0  0.946133  0  2.246034  0  0  0.994004  0  2.18614  0  0  0.696869  0.912403  0  2.287602  0
Zn  Zn2  1  0.80161392  0.73849275  0.90209615  1  0  1.069844  0  1.806602  0  0  0.881869  0  2.286489  0  0  0.932152  0  2.225309  0  0  0.694802  0.846578  0  2.328879  0
Zn  Zn3  1  0.19838542  0.26150627  0.09790445  1  0  1.069841  0  1.806672  0  0  0.881873  0  2.286581  0  0  0.932158  0  2.225396  0  0  0.694784  0.846585  0  2.328974  0
H  H4  1  0.51269629  0.80115116  0.31216545  1  0  0.067431  0  0.931799  0  0  0.077876  0  0.9953  0  0  0.080135  0  0.994378  0  0  0.095904  0.07624  0  0.996168  0
H  H5  1  0.48730577  0.19885092  0.68783355  1  0  0.06744  0  0.931795  0  0  0.077895  0  0.995277  0  0  0.080155  0  0.994355  0  0  0.095931  0.076262  0  0.996144  0
H  H6  1  0.24277039  0.75903209  0.18328523  1  0  0.075902  0  0.957721  0  0  0.08526  0  1.024972  0  0  0.087226  0  1.024896  0  0  0.100646  0.084084  0  1.024846  0
H  H7  1  0.75723154  0.24096796  0.81671518  1  0  0.075889  0  0.957823  0  0  0.085231  0  1.025052  0  0  0.087197  0  1.024972  0  0  0.100654  0.084058  0  1.024921  0
H  H8  1  0.36730185  0.61072836  0.01350686  1  0  0.105248  0  0.919117  0  0  0.113836  0  0.978457  0  0  0.116978  0  0.976192  0  0  0.112373  0.111602  0  0.980037  0
H  H9  1  0.63269862  0.38926860  0.98649465  1  0  0.105246  0  0.919181  0  0  0.113843  0  0.97848  0  0  0.117016  0  0.976179  0  0  0.112371  0.111628  0  0.980034  0
H  H10  1  0.34912213  0.91735255  0.00694887  1  0  0.088514  0  0.930171  0  0  0.100232  0  0.986307  0  0  0.102304  0  0.98619  0  0  0.104677  0.098632  0  0.986677  0
H  H11  1  0.65087444  0.08264231  0.99304942  1  0  0.088523  0  0.930124  0  0  0.100246  0  0.986286  0  0  0.102312  0  0.986175  0  0  0.104652  0.098642  0  0.986663  0
H  H12  1  0.47967528  0.97357138  0.18961073  1  0  0.074489  0  0.947061  0  0  0.08841  0  1.014712  0  0  0.089408  0  1.016062  0  0  0.086506  0.087972  0  1.013357  0
H  H13  1  0.52032024  0.02642657  0.81038671  1  0  0.074444  0  0.94711  0  0  0.088388  0  1.014744  0  0  0.089385  0  1.016094  0  0  0.086504  0.087948  0  1.013386  0
H  H14  1  0.66315189  0.90305729  0.17185597  1  0  0.083838  0  0.962717  0  0  0.097699  0  1.029597  0  0  0.100063  0  1.027934  0  0  0.092991  0.095952  0  1.030976  0
H  H15  1  0.33684515  0.09694479  0.82814121  1  0  0.083878  0  0.962658  0  0  0.097749  0  1.029518  0  0  0.100112  0  1.027856  0  0  0.093017  0.096  0  1.030896  0
H  H16  1  0.79312418  0.08821997  0.25623107  1  0  0.077473  0  0.950147  0  0  0.08647  0  1.014631  0  0  0.088489  0  1.01307  0  0  0.119434  0.084816  0  1.016063  0
H  H17  1  0.20687669  0.91178317  0.74376849  1  0  0.077441  0  0.950202  0  0  0.086431  0  1.014689  0  0  0.088452  0  1.013125  0  0  0.119423  0.08478  0  1.016121  0
H  H18  1  0.80324772  0.93069426  0.40049061  1  0  0.124851  0  0.965931  0  0  0.12948  0  1.033972  0  0  0.133915  0  1.031653  0  0  0.108729  0.126096  0  1.036074  0
H  H19  1  0.19674918  0.06930577  0.59950799  1  0  0.124816  0  0.966005  0  0  0.129467  0  1.034026  0  0  0.133893  0  1.031714  0  0  0.108741  0.126085  0  1.036125  0
H  H20  1  0.62500044  0.84267196  0.50262458  1  0  0.111353  0  0.94869  0  0  0.122332  0  1.007449  0  0  0.125365  0  1.006883  0  0  0.111852  0.120049  0  1.008179  0
H  H21  1  0.37500037  0.15733012  0.49737338  1  0  0.111337  0  0.948696  0  0  0.122308  0  1.007459  0  0  0.125342  0  1.006894  0  0  0.111837  0.120026  0  1.00819  0
H  H22  1  0.63793211  0.70474521  0.66066861  1  0  0.097074  0  0.936557  0  0  0.103563  0  0.999849  0  0  0.106764  0  0.996775  0  0  0.123289  0.101253  0  1.001948  0
H  H23  1  0.36206474  0.29525372  0.33932607  1  0  0.096984  0  0.936678  0  0  0.10355  0  0.99989  0  0  0.106712  0  0.996859  0  0  0.123286  0.10124  0  1.001989  0
H  H24  1  0.94644154  0.00984371  0.88088965  1  0  0.097631  0  0.933842  0  0  0.10539  0  0.997056  0  0  0.108222  0  0.994471  0  0  0.125144  0.103254  0  0.999151  0
H  H25  1  0.05356006  0.99015117  0.11911122  1  0  0.097634  0  0.933932  0  0  0.105376  0  0.997149  0  0  0.108207  0  0.99457  0  0  0.125156  0.103242  0  0.999241  0
H  H26  1  0.95409140  0.15556218  0.73325891  1  0  0.132994  0  0.929132  0  0  0.142996  0  0.985517  0  0  0.146701  0  0.983921  0  0  0.120926  0.140401  0  0.986671  0
H  H27  1  0.04591026  0.84443378  0.26674434  1  0  0.133039  0  0.929138  0  0  0.143028  0  0.985524  0  0  0.146734  0  0.983927  0  0  0.120953  0.140436  0  0.986674  0
H  H28  1  0.75334959  0.29452098  0.60351584  1  0  0.120865  0  0.974335  0  0  0.126009  0  1.041558  0  0  0.130075  0  1.039478  0  0  0.10987  0.12309  0  1.043071  0
H  H29  1  0.24665875  0.70548115  0.39648677  1  0  0.120847  0  0.974369  0  0  0.12601  0  1.041565  0  0  0.130073  0  1.039491  0  0  0.109902  0.123091  0  1.043073  0
H  H30  1  0.75802292  0.43487748  0.45268030  1  0  0.096163  0  0.907108  0  0  0.107933  0  0.960488  0  0  0.110509  0  0.958236  0  0  0.129616  0.106081  0  0.962071  0
H  H31  1  0.24198166  0.56512463  0.54731999  1  0  0.096147  0  0.907207  0  0  0.107931  0  0.960582  0  0  0.110506  0  0.958332  0  0  0.129621  0.106073  0  0.962163  0
H  H32  1  0.94261377  0.59179287  0.32499236  1  0  0.405546  0  0.910108  0  0  0.372196  0  0.979038  0  0  0.383882  0  0.96212  0  0  0.27832  0.363984  0  0.990864  0
H  H33  1  0.05738578  0.40820925  0.67500765  1  0  0.405584  0  0.91006  0  0  0.37223  0  0.978994  0  0  0.383916  0  0.962077  0  0  0.278344  0.364021  0  0.990818  0
H  H34  1  0.09121293  0.50147027  0.30191467  1  0  0.427968  0  0.868682  0  0  0.399113  0  0.928822  0  0  0.40926  0  0.914095  0  0  0.288296  0.391957  0  0.939155  0
H  H35  1  0.90878905  0.49853086  0.69808888  1  0  0.427941  0  0.868726  0  0  0.399081  0  0.928874  0  0  0.409229  0  0.914148  0  0  0.28828  0.391924  0  0.939207  0
C  C36  1  0.51057716  0.75978746  0.23052462  1  0  -0.11278  0  3.595197  0  0  -0.119919  0  3.840871  0  0  -0.125129  0  3.853745  0  0  -0.085644  -0.116295  0  3.83195  0
C  C37  1  0.48942351  0.24021260  0.76947630  1  0  -0.112765  0  3.595242  0  0  -0.119964  0  3.840897  0  0  -0.125177  0  3.853773  0  0  -0.085659  -0.116342  0  3.831971  0
C  C38  1  0.33601286  0.69259345  0.16443725  1  0  -0.131511  0  3.616183  0  0  -0.141971  0  3.849562  0  0  -0.146935  0  3.862454  0  0  -0.090506  -0.138713  0  3.840971  0
C  C39  1  0.66398900  0.30740557  0.83556387  1  0  -0.131428  0  3.616179  0  0  -0.14178  0  3.849363  0  0  -0.146736  0  3.862247  0  0  -0.090492  -0.138525  0  3.840775  0
C  C40  1  0.31921473  0.70346884  0.04468033  1  0  -0.149082  0  3.61981  0  0  -0.158548  0  3.851351  0  0  -0.163647  0  3.863307  0  0  -0.088701  -0.155005  0  3.843264  0
C  C41  1  0.68078568  0.29652709  0.95532112  1  0  -0.149247  0  3.619949  0  0  -0.158667  0  3.851438  0  0  -0.16379  0  3.863393  0  0  -0.088699  -0.155132  0  3.843345  0
C  C42  1  0.43012439  0.83403882  0.04269969  1  0  -0.122977  0  3.564367  0  0  -0.122138  0  3.797325  0  0  -0.12847  0  3.811213  0  0  -0.08346  -0.117962  0  3.788001  0
C  C43  1  0.56987231  0.16595810  0.95729873  1  0  -0.12294  0  3.564321  0  0  -0.122184  0  3.797348  0  0  -0.128512  0  3.811244  0  0  -0.083488  -0.118008  0  3.78802  0
C  C44  1  0.53076091  0.87961978  0.16278182  1  0  -0.129378  0  3.602687  0  0  -0.182086  0  3.861094  0  0  -0.182144  0  3.872581  0  0  -0.16507  -0.181839  0  3.852797  0
C  C45  1  0.46923737  0.12038233  0.83721716  1  0  -0.129377  0  3.602785  0  0  -0.1821  0  3.861208  0  0  -0.182157  0  3.872694  0  0  -0.165097  -0.181867  0  3.852948  0
C  C46  1  0.65869984  0.66525790  0.24936824  1  0  0.682948  0  3.820402  0  0  0.632681  0  4.119058  0  0  0.665983  0  4.113113  0  0  0.216477  0.609931  0  4.122276  0
C  C47  1  0.34130467  0.33474314  0.75063045  1  0  0.682864  0  3.820451  0  0  0.632667  0  4.119016  0  0  0.665966  0  4.113071  0  0  0.21647  0.609921  0  4.122228  0
C  C48  1  0.29089848  0.54803490  0.18899827  1  0  0.703457  0  3.836116  0  0  0.647957  0  4.145612  0  0  0.682641  0  4.136859  0  0  0.215744  0.624313  0  4.151001  0
C  C49  1  0.70910475  0.45196626  0.81100709  1  0  0.703369  0  3.836164  0  0  0.647815  0  4.145701  0  0  0.682494  0  4.136955  0  0  0.215708  0.624173  0  4.151083  0
C  C50  1  0.14096398  0.71784670  0.97250505  1  0  0.697968  0  3.803098  0  0  0.642776  0  4.103171  0  0  0.677448  0  4.095891  0  0  0.221604  0.619125  0  4.107459  0
C  C51  1  0.85903397  0.28215029  0.02749670  1  0  0.698037  0  3.802872  0  0  0.642786  0  4.10301  0  0  0.677456  0  4.095736  0  0  0.221532  0.619135  0  4.107303  0
C  C52  1  0.53276291  0.80179636  0.96703666  1  0  0.684602  0  3.817177  0  0  0.633306  0  4.115486  0  0  0.666897  0  4.109889  0  0  0.215468  0.610486  0  4.118261  0
C  C53  1  0.46723518  0.19820264  0.03296214  1  0  0.684654  0  3.817195  0  0  0.633395  0  4.115472  0  0  0.666982  0  4.109877  0  0  0.215478  0.610573  0  4.11825  0
C  C54  1  0.78616486  0.12861444  0.33505564  1  0  0.140316  0  3.705844  0  0  0.107362  0  3.957751  0  0  0.114201  0  3.977258  0  0  0.052127  0.102857  0  3.944638  0
C  C55  1  0.21383342  0.87138773  0.66494719  1  0  0.140369  0  3.70556  0  0  0.107413  0  3.957469  0  0  0.114255  0  3.976971  0  0  0.052191  0.102908  0  3.944356  0
C  C56  1  0.79019849  0.04152832  0.41590595  1  0  -0.160152  0  3.679377  0  0  -0.178598  0  3.929949  0  0  -0.186934  0  3.951517  0  0  -0.080272  -0.173023  0  3.915578  0
C  C57  1  0.20979649  0.95848096  0.58408882  1  0  -0.160114  0  3.679197  0  0  -0.178593  0  3.92975  0  0  -0.186915  0  3.951325  0  0  -0.080333  -0.173019  0  3.915378  0
C  C58  1  0.78019491  0.09978784  0.51568680  1  0  0.089703  0  3.764449  0  0  0.100186  0  3.99758  0  0  0.103693  0  4.019817  0  0  0.013606  0.098089  0  3.982298  0
C  C59  1  0.21980582  0.90021327  0.48431496  1  0  0.08962  0  3.764443  0  0  0.100151  0  3.99754  0  0  0.10364  0  4.019802  0  0  0.013604  0.098054  0  3.982259  0
C  C60  1  0.78481979  0.01317458  0.60515117  1  0  0.100381  0  3.756265  0  0  0.110895  0  3.988101  0  0  0.115333  0  4.009789  0  0  0.018844  0.107909  0  3.9734  0
C  C61  1  0.21517949  0.98682339  0.39484860  1  0  0.100391  0  3.756001  0  0  0.110857  0  3.987856  0  0  0.115301  0  4.009543  0  0  0.018801  0.107869  0  3.973157  0
C  C62  1  0.69760966  0.88352067  0.58527130  1  0  -0.152682  0  3.689837  0  0  -0.169084  0  3.93128  0  0  -0.177026  0  3.952725  0  0  -0.075645  -0.164053  0  3.917077  0
C  C63  1  0.30239108  0.11648040  0.41472814  1  0  -0.152701  0  3.689614  0  0  -0.169074  0  3.931074  0  0  -0.177015  0  3.952505  0  0  -0.075635  -0.164042  0  3.916872  0
C  C64  1  0.70189573  0.80684343  0.67219399  1  0  0.148092  0  3.672546  0  0  0.11644  0  3.921391  0  0  0.12431  0  3.93822  0  0  0.058195  0.111248  0  3.90989  0
C  C65  1  0.29810110  0.19315557  0.32780455  1  0  0.148175  0  3.672629  0  0  0.116459  0  3.921483  0  0  0.12436  0  3.938322  0  0  0.058203  0.111267  0  3.909984  0
C  C66  1  0.87635819  0.97615444  0.79608153  1  0  0.141093  0  3.672862  0  0  0.106363  0  3.929393  0  0  0.113916  0  3.946339  0  0  0.056279  0.101477  0  3.918072  0
C  C67  1  0.12364070  0.02383733  0.20391787  1  0  0.141077  0  3.672835  0  0  0.106372  0  3.929356  0  0  0.113922  0  3.946305  0  0  0.05626  0.101488  0  3.918042  0
C  C68  1  0.87757833  0.05871962  0.71346122  1  0  -0.147046  0  3.665652  0  0  -0.164727  0  3.915378  0  0  -0.17233  0  3.935031  0  0  -0.070507  -0.159831  0  3.902143  0
C  C69  1  0.12242094  0.94127837  0.28653932  1  0  -0.14713  0  3.665689  0  0  -0.164776  0  3.915417  0  0  -0.172377  0  3.935066  0  0  -0.070539  -0.159881  0  3.902186  0
C  C70  1  0.76633275  0.24332473  0.52902706  1  0  -0.150843  0  3.674814  0  0  -0.168303  0  3.921037  0  0  -0.175925  0  3.941289  0  0  -0.075397  -0.163355  0  3.907433  0
C  C71  1  0.23366938  0.75667837  0.47097046  1  0  -0.150778  0  3.674644  0  0  -0.168261  0  3.920879  0  0  -0.175879  0  3.941135  0  0  -0.075436  -0.163315  0  3.907274  0
C  C72  1  0.76492344  0.32280091  0.44404941  1  0  0.154973  0  3.667826  0  0  0.123359  0  3.916542  0  0  0.130908  0  3.93361  0  0  0.063385  0.118453  0  3.904975  0
C  C73  1  0.23507736  0.67720122  0.55595163  1  0  0.154951  0  3.667826  0  0  0.123302  0  3.916589  0  0  0.13085  0  3.933656  0  0  0.06339  0.118402  0  3.905014  0
N  N74  1  0.77363574  0.26625748  0.34830489  1  0  -0.324974  0  3.300027  0  0  -0.24375  0  3.573636  0  0  -0.262673  0  3.588121  0  0  -0.323863  -0.230905  0  3.563913  0
N  N75  1  0.22636254  0.73374463  0.65169486  1  0  -0.324938  0  3.300056  0  0  -0.243684  0  3.57365  0  0  -0.262607  0  3.588138  0  0  -0.323853  -0.230838  0  3.563924  0
N  N76  1  0.78877265  0.85319700  0.77604509  1  0  -0.335757  0  3.326592  0  0  -0.252023  0  3.612682  0  0  -0.271369  0  3.624755  0  0  -0.326516  -0.238942  0  3.604389  0
N  N77  1  0.21122795  0.14680201  0.22395500  1  0  -0.335683  0  3.32645  0  0  -0.251976  0  3.612588  0  0  -0.271318  0  3.624644  0  0  -0.326486  -0.238903  0  3.604305  0
O  O78  1  0.62490293  0.54303663  0.20001242  1  0  -0.641353  0  2.071786  0  0  -0.561042  0  2.338303  0  0  -0.590636  0  2.323502  0  0  -0.318051  -0.540621  0  2.347972  0
O  O79  1  0.37510039  0.45696547  0.79998760  1  0  -0.641303  0  2.071844  0  0  -0.561015  0  2.338327  0  0  -0.590607  0  2.323525  0  0  -0.318049  -0.540598  0  2.347997  0
O  O80  1  0.99035831  0.49768098  0.32609046  1  0  -0.851817  0  1.894551  0  0  -0.79152  0  2.086711  0  0  -0.813825  0  2.052343  0  0  -0.587895  -0.775683  0  2.110264  0
O  O81  1  0.00964117  0.50232010  0.67390949  1  0  -0.851829  0  1.894542  0  0  -0.791524  0  2.086695  0  0  -0.813829  0  2.052328  0  0  -0.587902  -0.775701  0  2.110282  0
O  O82  1  0.80125368  0.71351254  0.31140380  1  0  -0.636221  0  1.933912  0  0  -0.58432  0  2.151526  0  0  -0.608332  0  2.141926  0  0  -0.325145  -0.567152  0  2.157372  0
O  O83  1  0.19874965  0.28648954  0.68859469  1  0  -0.636222  0  1.93392  0  0  -0.584336  0  2.151498  0  0  -0.608347  0  2.141896  0  0  -0.325141  -0.567164  0  2.157339  0
O  O84  1  0.29294189  0.52777634  0.28421449  1  0  -0.661094  0  1.920214  0  0  -0.610309  0  2.141182  0  0  -0.633347  0  2.129268  0  0  -0.337188  -0.594223  0  2.148612  0
O  O85  1  0.70706268  0.47222580  0.71578811  1  0  -0.661008  0  1.920151  0  0  -0.610195  0  2.141124  0  0  -0.63324  0  2.129219  0  0  -0.337122  -0.594104  0  2.148552  0
O  O86  1  0.24315143  0.45862318  0.10558740  1  0  -0.638966  0  2.086857  0  0  -0.560572  0  2.364615  0  0  -0.590217  0  2.347384  0  0  -0.325514  -0.539836  0  2.375832  0
O  O87  1  0.75684658  0.54137489  0.89441750  1  0  -0.638969  0  2.086939  0  0  -0.560563  0  2.364704  0  0  -0.590207  0  2.34748  0  0  -0.325557  -0.539832  0  2.375929  0
O  O88  1  0.03472060  0.76850169  0.01453120  1  0  -0.613955  0  2.009031  0  0  -0.539799  0  2.263152  0  0  -0.568118  0  2.249738  0  0  -0.309331  -0.520219  0  2.271935  0
O  O89  1  0.96528093  0.23149214  0.98546884  1  0  -0.61399  0  2.008807  0  0  -0.539813  0  2.262947  0  0  -0.568131  0  2.249528  0  0  -0.309259  -0.520231  0  2.271729  0
O  O90  1  0.09824949  0.68550779  0.86982324  1  0  -0.666193  0  2.113797  0  0  -0.594796  0  2.400068  0  0  -0.623608  0  2.382836  0  0  -0.321622  -0.574812  0  2.411367  0
O  O91  1  0.90175244  0.31449225  0.13017717  1  0  -0.666189  0  2.113813  0  0  -0.594781  0  2.400107  0  0  -0.623593  0  2.382875  0  0  -0.321608  -0.574801  0  2.411407  0
O  O92  1  0.45948652  0.74820265  0.87084377  1  0  -0.666833  0  2.035064  0  0  -0.61141  0  2.312328  0  0  -0.638566  0  2.299701  0  0  -0.319923  -0.592463  0  2.32024  0
O  O93  1  0.54050912  0.25179738  0.12915456  1  0  -0.666831  0  2.035052  0  0  -0.611415  0  2.312294  0  0  -0.638572  0  2.299671  0  0  -0.319892  -0.59247  0  2.320207  0
O  O94  1  0.69191555  0.83171226  0.00318788  1  0  -0.626407  0  2.004516  0  0  -0.553239  0  2.262145  0  0  -0.581579  0  2.247617  0  0  -0.32171  -0.533423  0  2.271351  0
O  O95  1  0.30808512  0.16828777  0.99681150  1  0  -0.626459  0  2.004589  0  0  -0.553297  0  2.262206  0  0  -0.581637  0  2.247676  0  0  -0.321744  -0.533482  0  2.271416  0
