# generated using pymatgen
data_Cu2H8C16Se4S4N4Cl3
_symmetry_space_group_name_H-M   'P 1'
_cell_length_a   6.92996662
_cell_length_b   7.47122855
_cell_length_c   11.68855586
_cell_angle_alpha   84.25617324
_cell_angle_beta   89.75647943
_cell_angle_gamma   75.74650017
_symmetry_Int_Tables_number   1
_chemical_formula_structural   Cu2H8C16Se4S4N4Cl3
_chemical_formula_sum   'Cu2 H8 C16 Se4 S4 N4 Cl3'
_cell_volume   583.47396019
_cell_formula_units_Z   1
loop_
 _symmetry_equiv_pos_site_id
 _symmetry_equiv_pos_as_xyz
  1  'x, y, z'
loop_
 _atom_site_type_symbol
 _atom_site_label
 _atom_site_symmetry_multiplicity
 _atom_site_fract_x
 _atom_site_fract_y
 _atom_site_fract_z
 _atom_site_occupancy
 _atom_site_pbe_bader_charge
 _atom_site_pbe_bader_spin_density
 _atom_site_pbe_cm5_charge
 _atom_site_pbe_ddec_charge
 _atom_site_pbe_ddec_spin_density
 _atom_site_pbe_ddec_sum_bond_order
 _atom_site_pbe_magmom
Cu  Cu0  1  0.29742238  0.05739692  0.55958095  1  0.660762  0  0.370581  0.410208  0  2.517482  0
Cu  Cu1  1  0.70260865  0.94255878  0.44044259  1  0.660648  0  0.370555  0.410169  0  2.517675  0
H  H2  1  0.20723002  0.46606294  0.53024296  1  0.087342  0  0.112516  0.103139  0  1.006426  0
H  H3  1  0.79276636  0.53393163  0.46975246  1  0.087405  0  0.112458  0.103045  0  1.006192  0
H  H4  1  0.13014063  0.72031941  0.66291135  1  0.142778  0  0.095215  0.082703  0  1.064955  0
H  H5  1  0.86987088  0.27968349  0.33708012  1  0.142748  0  0.095254  0.08275  0  1.064924  0
H  H6  1  0.35511777  0.45623124  0.25672623  1  0.188082  0  0.096379  0.153447  0  1.038013  0
H  H7  1  0.64488330  0.54379388  0.74330061  1  0.23015  0  0.09632  0.153401  0  1.038161  0
H  H8  1  0.27925940  0.72804232  0.38681929  1  0.128096  0  0.111547  0.155808  0  0.999987  0
H  H9  1  0.72072432  0.27202722  0.61317821  1  0.128286  0  0.11157  0.155814  0  0.99988  0
C  C10  1  0.20092986  0.43596675  0.62307323  1  0.458076  0  0.037369  0.047148  0  3.880929  0
C  C11  1  0.79906259  0.56403754  0.37690874  1  0.458755  0  0.037471  0.047388  0  3.88083  0
C  C12  1  0.16194848  0.57433246  0.69679811  1  0.512063  0  0.036267  0.061  0  3.936875  0
C  C13  1  0.83805871  0.42565378  0.30320553  1  0.511225  0  0.036222  0.06088  0  3.936176  0
C  C14  1  0.23559582  0.21360091  0.77796156  1  0.36968  0  0.07696  0.066053  0  3.959342  0
C  C15  1  0.76439951  0.78639227  0.22202967  1  0.369827  0  0.076994  0.066114  0  3.959156  0
C  C16  1  0.19789588  0.35622770  0.85131178  1  0.394655  0  0.079155  0.071225  0  4.035213  0
C  C17  1  0.80211102  0.64375993  0.14868151  1  0.394709  0  0.079262  0.071282  0  4.035809  0
C  C18  1  0.24561145  0.03057994  0.99260012  1  -0.384519  0  -0.111959  -0.191721  0  3.915896  0
C  C19  1  0.75437570  0.96940075  0.00738249  1  -0.38429  0  -0.112021  -0.191771  0  3.916064  0
C  C20  1  0.26092912  0.90289453  0.08712144  1  -0.260071  0  -0.041644  -0.070639  0  4.081249  0
C  C21  1  0.73905396  0.09709588  0.91286997  1  -0.260253  0  -0.041704  -0.070719  0  4.080998  0
C  C22  1  0.31934488  0.60338641  0.22495067  1  -0.206633  0  -0.106909  -0.153135  0  3.957335  0
C  C23  1  0.68065269  0.39663593  0.77506181  1  -0.248485  0  -0.106839  -0.153033  0  3.957407  0
C  C24  1  0.28072513  0.74309772  0.29322740  1  -0.134824  0  -0.094143  -0.135658  0  3.957583  0
C  C25  1  0.71926594  0.25693850  0.70677479  1  -0.13549  0  -0.094163  -0.135736  0  3.957967  0
Se  Se26  1  0.28114248  0.96136355  0.83990779  1  0.470192  0  0.179627  0.181021  0  2.8559  0
Se  Se27  1  0.71883346  0.03863240  0.16006615  1  0.470245  0  0.179673  0.181075  0  2.85599  0
Se  Se28  1  0.19153077  0.28704876  0.01252651  1  0.439397  0  0.164594  0.153283  0  2.942136  0
Se  Se29  1  0.80848300  0.71293470  0.98746533  1  0.438921  0  0.164562  0.153177  0  2.942072  0
S  S30  1  0.31578147  0.66394140  0.07848679  1  0.217397  0  0.066433  0.130943  0  3.150407  0
S  S31  1  0.68421198  0.33604207  0.92152388  1  0.217046  0  0.066452  0.130926  0  3.15035  0
S  S32  1  0.23017920  0.96676491  0.22708640  1  0.265501  0  0.089759  0.170313  0  3.081003  0
S  S33  1  0.76980524  0.03326436  0.77288628  1  0.266248  0  0.089779  0.170496  0  3.081009  0
N  N34  1  0.23877709  0.25382584  0.66358605  1  -1.175138  0  -0.358978  -0.206815  0  3.70473  0
N  N35  1  0.76121533  0.74616735  0.33640860  1  -1.175405  0  -0.359063  -0.20696  0  3.704592  0
N  N36  1  0.16246266  0.53429679  0.81193215  1  -1.194182  0  -0.316993  -0.263994  0  3.409437  0
N  N37  1  0.83754743  0.46571721  0.18804663  1  -1.193938  0  -0.317057  -0.264017  0  3.409331  0
Cl  Cl38  1  0.53561398  0.78655650  0.59018854  1  -0.646331  0  -0.319643  -0.504897  0  1.644034  0
Cl  Cl39  1  0.46441366  0.21341726  0.40984412  1  -0.646493  0  -0.319662  -0.504932  0  1.643831  0
Cl  Cl40  1  0.99998117  0.99999657  0.50003098  1  -0.664181  0  -0.332198  -0.518781  0  1.717836  0
