# generated using pymatgen
data_CoH20C18(NO3)2
_symmetry_space_group_name_H-M   'P 1'
_cell_length_a   9.42993830
_cell_length_b   13.61152848
_cell_length_c   19.00372598
_cell_angle_alpha   111.58229329
_cell_angle_beta   103.54510090
_cell_angle_gamma   88.67816315
_symmetry_Int_Tables_number   1
_chemical_formula_structural   CoH20C18(NO3)2
_chemical_formula_sum   'Co4 H80 C72 N8 O24'
_cell_volume   2199.76126879
_cell_formula_units_Z   4
loop_
 _symmetry_equiv_pos_site_id
 _symmetry_equiv_pos_as_xyz
  1  'x, y, z'
loop_
 _atom_site_type_symbol
 _atom_site_label
 _atom_site_symmetry_multiplicity
 _atom_site_fract_x
 _atom_site_fract_y
 _atom_site_fract_z
 _atom_site_occupancy
 _atom_site_pbe_bader_charge
 _atom_site_pbe_bader_spin_density
 _atom_site_pbe_cm5_charge
 _atom_site_pbe_ddec_charge
 _atom_site_pbe_ddec_spin_density
 _atom_site_pbe_ddec_sum_bond_order
 _atom_site_pbe_magmom
Co  Co0  1  0.82953089  0.42354589  0.26665289  1  1.149224  0.988699  0.651272  0.733715  1.060533  2.862283  0.977
Co  Co1  1  0.68191616  0.15444143  0.73334891  1  1.296067  2.632031  0.664409  0.917039  2.859636  2.433638  2.613
Co  Co2  1  0.17805135  0.57653549  0.73168354  1  1.301276  2.63365  0.666916  0.91954  2.858125  2.436726  2.614
Co  Co3  1  0.32162691  0.84132304  0.26617102  1  1.295833  2.632254  0.66566  0.91511  2.85742  2.441114  2.613
H  H4  1  0.58922018  0.33871134  0.21936933  1  0.639823  -7e-05  0.278714  0.36363  -0.000254  0.987382  0.0
H  H5  1  0.93572669  0.12475657  0.78549682  1  0.630229  0.000178  0.276372  0.367094  0.000166  0.980848  0.001
H  H6  1  0.42866120  0.65847502  0.78685893  1  0.640969  0.000106  0.276059  0.367165  0.000126  0.981417  0.001
H  H7  1  0.06863792  0.87075942  0.21176535  1  0.645049  0.000176  0.276345  0.366698  0.000164  0.980662  0.001
H  H8  1  0.58599393  0.46092959  0.22445993  1  0.639236  -0.000105  0.284202  0.367561  -0.000193  0.980158  0.0
H  H9  1  0.93001345  0.23995506  0.77885516  1  0.643686  3.4e-05  0.279103  0.370249  2.7e-05  0.976111  0.0
H  H10  1  0.42983987  0.53564530  0.77737255  1  0.647777  3.7e-05  0.278575  0.369811  5.4e-05  0.977308  0.0
H  H11  1  0.07393868  0.75820273  0.22223703  1  0.637107  1.9e-05  0.27796  0.367809  1.1e-05  0.981176  0.0
H  H12  1  0.92918139  0.60872529  0.24690339  1  0.629289  0.000177  0.285462  0.384766  5.9e-05  0.957303  0.0
H  H13  1  0.57059120  0.35113423  0.74924918  1  0.659572  0.000399  0.289322  0.392722  0.000197  0.945768  0.001
H  H14  1  0.06710424  0.39644898  0.74833332  1  0.647519  0.000499  0.288576  0.391949  0.000254  0.945757  0.001
H  H15  1  0.43558723  0.64355411  0.24935319  1  0.653535  0.000488  0.291122  0.393215  0.000232  0.943051  0.001
H  H16  1  0.89570754  0.52765979  0.16185397  1  0.586432  0.001946  0.305666  0.370174  0.001005  0.918013  0.001
H  H17  1  0.59019112  0.34200255  0.83021359  1  0.576135  0.001375  0.311485  0.378511  0.000665  0.912867  0.001
H  H18  1  0.09736551  0.48792716  0.82984441  1  0.582311  0.001292  0.310721  0.37798  0.00067  0.915926  0.001
H  H19  1  0.41247601  0.65414220  0.16878394  1  0.581212  0.001243  0.311866  0.37753  0.000585  0.911069  0.001
H  H20  1  0.22252763  0.47920019  0.50657262  1  0.078029  -3.3e-05  0.108215  0.118683  -2.1e-05  1.028534  0.0
H  H21  1  0.26980371  0.97044110  0.49090350  1  0.09852  0.000928  0.10641  0.115646  0.000403  1.033058  0.0
H  H22  1  0.76207521  0.51721513  0.48893318  1  0.10664  0.000853  0.107127  0.115959  0.000374  1.03047  0.0
H  H23  1  0.73041185  0.02738458  0.50938784  1  0.133031  0.000925  0.106466  0.115084  0.000411  1.034216  0.0
H  H24  1  0.85530734  0.31094382  0.45367125  1  0.070482  0.000339  0.101453  0.094539  0.000188  1.020862  0.0
H  H25  1  0.64903349  0.85701482  0.54559825  1  0.050258  0.000416  0.101613  0.095971  0.000237  1.014745  0.0
H  H26  1  0.14284195  0.68746828  0.54780339  1  0.086132  0.000495  0.10147  0.094509  0.000277  1.019949  0.0
H  H27  1  0.35544539  0.13446604  0.44857622  1  0.072617  0.000513  0.101944  0.096682  0.000281  1.01621  0.0
H  H28  1  0.95048254  0.32457620  0.58997677  1  0.095612  0.001283  0.104487  0.123669  0.000443  1.017007  0.001
H  H29  1  0.55529822  0.73076684  0.40917701  1  0.104912  -1e-06  0.105512  0.125234  -3.3e-05  1.017131  0.0
H  H30  1  0.04936365  0.67626294  0.41060756  1  0.092812  0.001157  0.103965  0.122324  0.000427  1.020715  0.001
H  H31  1  0.45658412  0.25974145  0.58651062  1  0.111328  0.00126  0.104546  0.123166  0.000437  1.022992  0.001
H  H32  1  0.64621871  0.20419129  0.51449877  1  0.079539  0.000394  0.103744  0.097715  0.000191  1.009508  0.0
H  H33  1  0.86428819  0.68581769  0.48520789  1  0.065607  0.000102  0.104022  0.097704  3.6e-05  1.009376  0.0
H  H34  1  0.35399642  0.79539048  0.48864640  1  0.081352  0.000376  0.104151  0.09871  0.000194  1.005951  0.0
H  H35  1  0.14758811  0.30880804  0.51409622  1  0.085825  0.000403  0.103733  0.098577  0.000209  1.007706  0.0
H  H36  1  0.96713226  0.45482713  0.42498773  1  0.129487  -0.000177  0.118941  0.090467  -0.000356  1.032008  0.0
H  H37  1  0.52468363  0.02681242  0.57165244  1  0.119067  0.001774  0.115135  0.083194  0.00063  1.02542  0.001
H  H38  1  0.01774297  0.54296893  0.56984354  1  0.092675  0.001747  0.113976  0.081573  0.000618  1.024777  0.001
H  H39  1  0.47604896  0.96848790  0.42833521  1  0.076842  0.001783  0.114976  0.083231  0.00062  1.026664  0.001
H  H40  1  0.37003101  0.46876590  0.30521402  1  0.124105  -0.000105  0.111052  0.130251  -8.3e-05  1.004716  0.0
H  H41  1  0.12028848  0.15950897  0.69482302  1  0.131431  0.001017  0.109802  0.128304  0.000492  1.013938  0.0
H  H42  1  0.61751434  0.53614894  0.69288832  1  0.108409  0.001017  0.109686  0.128693  0.000479  1.012237  0.0
H  H43  1  0.88238586  0.84180376  0.30549225  1  0.123165  0.00102  0.108989  0.128283  0.000493  1.015229  0.0
H  H44  1  0.10977388  0.44658909  0.23313570  1  0.076778  -4.9e-05  0.118155  0.081322  -0.000301  1.008944  0.0
H  H45  1  0.38041816  0.20831832  0.76607300  1  0.031781  0.001656  0.112706  0.072175  0.000316  1.008648  0.001
H  H46  1  0.87840815  0.55989213  0.76440196  1  0.055548  0.001684  0.113686  0.073809  0.000332  1.005435  0.001
H  H47  1  0.62273965  0.79120024  0.23373960  1  0.07893  0.001734  0.11292  0.071687  0.000361  1.009768  0.001
H  H48  1  0.54455010  0.20361518  0.37517797  1  0.071329  0.00168  0.104017  0.121994  0.000657  1.001228  0.001
H  H49  1  0.96266803  0.82193322  0.62188435  1  0.07765  0.00155  0.103991  0.12199  0.00063  1.006854  0.001
H  H50  1  0.45204859  0.79781494  0.62616088  1  0.079558  0.001622  0.105718  0.124105  0.000669  0.998722  0.001
H  H51  1  0.04105256  0.17391695  0.37692409  1  0.062604  0.001649  0.105692  0.124745  0.000677  1.002845  0.001
H  H52  1  0.53009913  0.41552676  0.42614274  1  0.059215  -0.000698  0.09703  0.103745  -0.000562  1.011769  0.0
H  H53  1  0.96572940  0.98518109  0.57090717  1  0.057961  -0.000838  0.097566  0.1042  -0.000719  1.010825  -0.001
H  H54  1  0.45461439  0.58241256  0.57024011  1  0.076236  -0.000755  0.096623  0.103123  -0.00064  1.016149  -0.001
H  H55  1  0.03546171  0.01479635  0.42965959  1  0.061581  -0.000797  0.09727  0.104165  -0.000662  1.010189  -0.001
H  H56  1  0.53118374  0.55162727  0.44511649  1  0.041138  -0.000562  0.094455  0.096082  -0.000462  1.015945  0.0
H  H57  1  0.95696071  0.10438550  0.55517672  1  0.039758  -0.000572  0.09509  0.097005  -0.000475  1.025193  0.0
H  H58  1  0.45645688  0.44643417  0.55127142  1  0.050342  -0.000664  0.095257  0.09865  -0.000567  1.017938  0.0
H  H59  1  0.04417306  0.89566054  0.44548855  1  0.070614  -0.00061  0.095148  0.09699  -0.000527  1.02558  0.0
H  H60  1  0.81396731  0.36409144  0.10274396  1  0.109631  3.1e-05  0.12226  0.094167  -0.000241  0.999553  0.0
H  H61  1  0.68430078  0.25874938  0.90763128  1  0.046086  0.001776  0.116808  0.083542  0.000505  0.991272  0.001
H  H62  1  0.18243948  0.64660419  0.90559749  1  0.052234  0.001823  0.116409  0.08302  0.000525  0.992608  0.001
H  H63  1  0.31898366  0.73897153  0.09144493  1  0.070294  0.001841  0.116321  0.08327  0.000543  0.992255  0.001
H  H64  1  0.95360940  0.23039012  0.26819852  1  0.141424  -0.00014  0.12398  0.100328  -0.000403  1.022708  0.0
H  H65  1  0.56215495  0.95894175  0.73933165  1  0.10596  0.001223  0.119769  0.093096  7e-05  1.014286  0.001
H  H66  1  0.05389526  0.78126388  0.73985401  1  0.139389  0.00124  0.119484  0.093207  6.6e-05  1.018083  0.001
H  H67  1  0.44000113  0.03810342  0.26092839  1  0.128294  0.001259  0.119605  0.093246  8.1e-05  1.012583  0.001
H  H68  1  0.05095923  0.07928928  0.17619057  1  0.108901  -6e-05  0.109525  0.131618  -2.4e-05  1.019378  0.0
H  H69  1  0.45437721  0.90173525  0.82647619  1  0.142973  0.000688  0.107983  0.131025  0.000331  1.020864  0.0
H  H70  1  0.94685679  0.92946986  0.82903060  1  0.129944  0.000718  0.10894  0.129509  0.00033  1.014706  0.0
H  H71  1  0.54460147  0.09771961  0.17392899  1  0.150383  0.000709  0.108326  0.130198  0.000368  1.02129  0.0
H  H72  1  0.91765490  0.22287193  0.00422832  1  0.062726  3.6e-05  0.108523  0.120262  3.1e-05  1.002118  0.0
H  H73  1  0.57154864  0.21783897  0.00143228  1  0.083126  0.00103  0.107387  0.118825  0.000439  1.000771  0.0
H  H74  1  0.06899166  0.78459523  0.00090625  1  0.079725  0.001208  0.108037  0.12087  0.000539  0.998728  0.0
H  H75  1  0.42983500  0.78197531  0.99785588  1  0.082888  0.001205  0.108889  0.121979  0.00054  0.997617  0.0
H  H76  1  0.08981657  0.07674792  0.98283174  1  0.037146  -5.8e-05  0.100365  0.104137  -2.5e-05  0.970465  0.0
H  H77  1  0.40153552  0.09378673  0.01861764  1  0.03052  -8.7e-05  0.100876  0.104248  -5e-05  0.971174  0.0
H  H78  1  0.90069824  0.93163622  0.02125364  1  0.025913  -4e-05  0.100706  0.103822  -2e-05  0.972884  0.0
H  H79  1  0.59740852  0.90708098  0.98113070  1  0.046048  -2.9e-05  0.101072  0.104612  -1.7e-05  0.971513  0.0
H  H80  1  0.15071221  0.02148144  0.05513674  1  0.058104  -0.000256  0.098302  0.101385  -0.000196  0.982684  0.0
H  H81  1  0.34608582  0.96640355  0.94477700  1  0.047377  -0.00027  0.098973  0.103394  -0.000212  0.979646  0.0
H  H82  1  0.84075103  0.98621875  0.94842903  1  0.059513  -0.000287  0.097492  0.101165  -0.000227  0.986089  0.0
H  H83  1  0.65247363  0.03435322  0.05513837  1  0.046576  -0.000273  0.099054  0.10304  -0.000208  0.980712  0.0
C  C84  1  0.20395016  0.47169527  0.44595894  1  -0.046181  0.002097  -0.088526  -0.193925  0.000536  3.954099  0.002
C  C85  1  0.28822352  0.02278559  0.55198754  1  -0.062499  0.006407  -0.090447  -0.197338  0.002841  3.956527  0.005
C  C86  1  0.78160363  0.52719926  0.55006759  1  -0.077415  0.006337  -0.088711  -0.193089  0.002819  3.955122  0.005
C  C87  1  0.71260789  0.97531864  0.44826499  1  0.004106  0.006408  -0.08963  -0.193107  0.002861  3.956073  0.005
C  C88  1  0.75506677  0.26859965  0.44999845  1  -0.023109  -0.00089  -0.083946  -0.043816  -0.001227  4.039136  0.0
C  C89  1  0.75072441  0.81683769  0.54919652  1  0.027048  -0.002888  -0.081839  -0.039475  -0.003267  4.024931  -0.001
C  C90  1  0.24263235  0.73079280  0.55203439  1  -0.057016  -0.003207  -0.081302  -0.039049  -0.003603  4.025313  -0.002
C  C91  1  0.25506169  0.17628315  0.44704010  1  -0.099914  -0.003529  -0.081277  -0.040131  -0.00397  4.028755  -0.002
C  C92  1  0.85082979  0.28011640  0.58450286  1  -0.063402  0.004357  -0.094782  -0.243845  0.00214  3.901863  0.003
C  C93  1  0.65717304  0.69120998  0.41464329  1  -0.086904  -0.002304  -0.095536  -0.246193  -0.002862  3.911898  -0.001
C  C94  1  0.15008353  0.72034683  0.41718619  1  -0.092186  0.001762  -0.094294  -0.241012  0.000428  3.900205  0.002
C  C95  1  0.35531219  0.30003802  0.58164186  1  -0.03375  0.001632  -0.094703  -0.242102  0.000246  3.898919  0.002
C  C96  1  0.74494877  0.24731507  0.51723246  1  -0.029855  -0.00355  -0.077212  -0.027757  -0.003901  4.013748  -0.002
C  C97  1  0.76312691  0.72658663  0.48199217  1  -0.018161  -0.006908  -0.077261  -0.031641  -0.007336  4.013989  -0.004
C  C98  1  0.25430864  0.75251583  0.48507536  1  -0.029484  -0.003185  -0.077817  -0.031558  -0.003517  4.010402  -0.002
C  C99  1  0.24734210  0.26628442  0.51524089  1  -0.095118  -0.003569  -0.077803  -0.030315  -0.003972  4.01538  -0.002
C  C100  1  0.06072678  0.45919599  0.40174796  1  0.446364  -0.009687  0.041491  0.08008  -0.010502  3.93051  -0.006
C  C101  1  0.43096199  0.05415246  0.59619216  1  0.470111  -0.008125  0.041297  0.091645  -0.008531  3.96039  -0.005
C  C102  1  0.92492319  0.54070639  0.59437867  1  0.489076  -0.008089  0.041104  0.091321  -0.008475  3.95897  -0.005
C  C103  1  0.57022556  0.94266345  0.40386736  1  0.420276  -0.008204  0.040093  0.087563  -0.00869  3.963209  -0.005
C  C104  1  0.32024873  0.47493372  0.41247156  1  0.005839  -0.010719  0.013034  0.170518  -0.011253  3.923593  -0.007
C  C105  1  0.17159010  0.05954127  0.58640601  1  -0.031732  -0.012192  0.015841  0.177382  -0.012876  3.919844  -0.008
C  C106  1  0.66605824  0.52542962  0.58435975  1  0.016611  -0.012078  0.015271  0.174581  -0.012772  3.919375  -0.008
C  C107  1  0.82970631  0.93998935  0.41392877  1  -0.060957  -0.012332  0.015487  0.176377  -0.01302  3.923605  -0.008
C  C108  1  0.84087227  0.25781361  0.65383953  1  1.528552  -0.002601  0.20565  0.61518  -0.003444  4.19875  -0.002
C  C109  1  0.66721463  0.59908056  0.34464896  1  1.505652  -0.00757  0.209385  0.605115  -0.008839  4.170768  -0.005
C  C110  1  0.16282131  0.74267236  0.34816440  1  1.545889  -0.002835  0.204235  0.61332  -0.003616  4.204437  -0.002
C  C111  1  0.34428852  0.39309856  0.65127509  1  1.540494  -0.00328  0.20631  0.616025  -0.004106  4.195888  -0.002
C  C112  1  0.66495404  0.28168298  0.32066782  1  1.545586  -0.000353  0.195797  0.595328  -0.001072  4.232738  -0.001
C  C113  1  0.84788161  0.95961376  0.67978886  1  1.547593  -0.002593  0.196859  0.600728  -0.003342  4.228425  -0.001
C  C114  1  0.33942837  0.71843850  0.68211374  1  1.550058  -0.00236  0.198826  0.602348  -0.003159  4.225879  -0.002
C  C115  1  0.15360105  0.03535599  0.31719244  1  1.559521  -0.002575  0.198495  0.601848  -0.003365  4.228828  -0.001
C  C116  1  0.28438796  0.46550969  0.33426163  1  -0.057186  0.002676  -0.083885  -0.17259  0.000991  3.931374  0.002
C  C117  1  0.20637623  0.12739990  0.66506501  1  0.054653  0.005997  -0.083196  -0.172606  0.002917  3.922377  0.005
C  C118  1  0.70263523  0.53783367  0.66316968  1  -0.029172  0.00597  -0.083385  -0.173182  0.002907  3.923356  0.005
C  C119  1  0.79580617  0.87273091  0.33512961  1  -0.007673  0.006097  -0.082288  -0.171247  0.002924  3.924622  0.005
C  C120  1  0.13963662  0.45339205  0.29368269  1  0.470717  -0.007819  0.041415  0.076608  -0.008183  3.965695  -0.005
C  C121  1  0.35134521  0.15530596  0.70496725  1  0.422707  -0.007454  0.043049  0.094737  -0.00854  3.988895  -0.005
C  C122  1  0.84807732  0.55063491  0.70322937  1  0.464991  -0.007373  0.042844  0.094766  -0.008378  3.984451  -0.004
C  C123  1  0.65119835  0.84373595  0.29497989  1  0.461437  -0.007585  0.040885  0.090243  -0.00855  3.993881  -0.005
C  C124  1  0.64873637  0.24498158  0.38343450  1  -0.090462  0.003342  -0.092823  -0.226841  0.001153  3.879483  0.003
C  C125  1  0.85837641  0.85840921  0.61531108  1  -0.112734  0.000145  -0.09125  -0.226462  -0.001433  3.875215  0.001
C  C126  1  0.34924809  0.75534750  0.61863932  1  -0.057659  0.003929  -0.091256  -0.226968  0.001771  3.875006  0.004
C  C127  1  0.14469598  0.13639691  0.38208030  1  -0.00057  0.003826  -0.091866  -0.228332  0.001672  3.876136  0.003
C  C128  1  0.47841779  0.48802384  0.45490475  1  -0.006269  -9.5e-05  -0.157386  -0.190973  -0.000401  3.946631  0.0
C  C129  1  0.01401830  0.03076280  0.54382506  1  0.003174  -9.1e-05  -0.159462  -0.19311  -0.000436  3.94763  0.0
C  C130  1  0.50777771  0.51072401  0.54165157  1  -0.027568  -0.000156  -0.159129  -0.194098  -0.000484  3.943007  0.0
C  C131  1  0.98704901  0.96924022  0.45669617  1  -0.055352  -9.3e-05  -0.160078  -0.19428  -0.00044  3.949499  0.0
C  C132  1  0.87232475  0.30105505  0.11657429  1  0.437833  -0.009771  0.036467  0.058643  -0.010174  3.980742  -0.006
C  C133  1  0.62782710  0.18156492  0.89145419  1  0.495046  -0.007657  0.036417  0.072075  -0.008152  4.011514  -0.004
C  C134  1  0.12414469  0.70902486  0.89032509  1  0.516981  -0.007569  0.036259  0.070234  -0.008074  4.012707  -0.004
C  C135  1  0.37461729  0.81654030  0.10793170  1  0.466371  -0.007497  0.034781  0.069343  -0.007967  4.014765  -0.004
C  C136  1  0.94939445  0.22540791  0.20931724  1  0.461211  -0.010373  0.046999  0.086285  -0.011182  3.914224  -0.006
C  C137  1  0.56158390  0.01359074  0.79793740  1  0.454951  -0.009458  0.048963  0.102199  -0.010613  3.941397  -0.006
C  C138  1  0.05451566  0.78524983  0.79823519  1  0.449362  -0.00933  0.049511  0.103424  -0.010499  3.938254  -0.006
C  C139  1  0.44000588  0.98415420  0.20204343  1  0.488695  -0.009448  0.047886  0.100971  -0.010594  3.941944  -0.006
C  C140  1  0.00415966  0.14207054  0.15720585  1  -0.034426  0.002315  -0.081832  -0.175321  0.000645  3.927178  0.002
C  C141  1  0.50041812  0.98309157  0.84713454  1  -0.033527  0.005185  -0.081777  -0.178015  0.002342  3.913839  0.004
C  C142  1  0.99383505  0.86714887  0.84855268  1  -0.036231  0.005186  -0.082147  -0.176649  0.002343  3.916642  0.004
C  C143  1  0.49934732  0.01605545  0.15290082  1  -0.108443  0.00527  -0.082071  -0.17786  0.002397  3.916323  0.004
C  C144  1  0.92831894  0.22142104  0.06223709  1  -0.004511  0.00257  -0.08988  -0.195949  0.000741  3.987492  0.002
C  C145  1  0.56654699  0.15791761  0.94365083  1  -0.074117  0.00642  -0.090501  -0.197858  0.0029  3.978844  0.005
C  C146  1  0.06298309  0.78685462  0.94346076  1  -0.048547  0.006519  -0.089866  -0.197239  0.002947  3.97618  0.005
C  C147  1  0.43447084  0.84141826  0.05576795  1  -0.087599  0.006472  -0.090736  -0.199784  0.002963  3.973655  0.005
C  C148  1  0.99759867  0.13997787  0.08233089  1  -0.043035  -0.013198  0.005908  0.154525  -0.013812  3.971397  -0.008
C  C149  1  0.50008495  0.05654715  0.92151085  1  0.000497  -0.01339  0.007364  0.158199  -0.014109  3.966227  -0.009
C  C150  1  0.99529846  0.86821321  0.92263907  1  -0.053032  -0.013269  0.007156  0.158953  -0.013966  3.968314  -0.009
C  C151  1  0.49945893  0.94332706  0.07824308  1  0.028684  -0.01315  0.007816  0.161484  -0.013871  3.963776  -0.009
C  C152  1  0.05482346  0.05032947  0.02472424  1  -0.013597  -0.000916  -0.150865  -0.191911  -0.00127  3.939109  0.0
C  C153  1  0.43995582  0.02482199  0.97700858  1  0.020371  -0.00083  -0.15041  -0.192292  -0.001218  3.934697  0.0
C  C154  1  0.93623815  0.95778502  0.97941901  1  -0.000377  -0.000884  -0.151137  -0.193914  -0.001256  3.939301  0.0
C  C155  1  0.55879740  0.97580153  0.02285282  1  -0.019555  -0.000858  -0.151011  -0.195471  -0.001226  3.93695  0.0
N  N156  1  0.02771578  0.44969160  0.32637086  1  -1.179541  -0.009166  -0.347294  -0.207209  -0.009028  3.68869  -0.006
N  N157  1  0.46340736  0.11955187  0.67165125  1  -1.237119  0.063775  -0.340059  -0.276478  0.034139  3.62274  0.053
N  N158  1  0.95907964  0.55212363  0.66991552  1  -1.237572  0.064089  -0.3381  -0.274814  0.034317  3.618487  0.053
N  N159  1  0.53871178  0.87772762  0.32828592  1  -1.234015  0.064425  -0.338959  -0.270725  0.034396  3.631435  0.053
N  N160  1  0.88588866  0.30514846  0.19000692  1  -1.194065  -0.007906  -0.347669  -0.196311  -0.007819  3.695255  -0.005
N  N161  1  0.62385205  0.11161720  0.81907052  1  -1.228084  0.059162  -0.333318  -0.270127  0.031378  3.613456  0.051
N  N162  1  0.11818999  0.70644053  0.81816308  1  -1.229919  0.059975  -0.332847  -0.266657  0.031734  3.612351  0.051
N  N163  1  0.37897573  0.88565893  0.18060087  1  -1.222946  0.0596  -0.330512  -0.266722  0.031533  3.609863  0.052
O  O164  1  0.62916430  0.39144236  0.20003158  1  -1.212456  -0.006286  -0.574541  -0.714753  -0.006367  2.191978  -0.006
O  O165  1  0.89567423  0.19671469  0.80536830  1  -1.260531  0.074012  -0.59835  -0.771799  0.038491  2.095197  0.058
O  O166  1  0.39145976  0.60509333  0.80503569  1  -1.276732  0.074903  -0.597453  -0.773504  0.038921  2.095511  0.058
O  O167  1  0.10879147  0.79860105  0.19378069  1  -1.269384  0.074597  -0.597546  -0.770397  0.038778  2.098439  0.058
O  O168  1  0.94669250  0.29479344  0.71494031  1  -1.196503  -0.000819  -0.312632  -0.565406  -0.002142  2.207402  -0.001
O  O169  1  0.55781240  0.57393229  0.28514495  1  -1.181734  -0.004643  -0.310221  -0.558202  -0.004928  2.216459  -0.004
O  O170  1  0.05565872  0.70904059  0.28763923  1  -1.19835  -0.00145  -0.312133  -0.565793  -0.002607  2.224429  -0.001
O  O171  1  0.45189914  0.41807446  0.71168945  1  -1.187862  -0.001359  -0.311602  -0.563655  -0.002652  2.21297  -0.001
O  O172  1  0.85993239  0.54726783  0.20886769  1  -1.212844  0.042574  -0.57664  -0.757491  0.022033  2.047499  0.032
O  O173  1  0.63605458  0.32262900  0.78661364  1  -1.216926  0.046442  -0.572007  -0.758938  0.024295  2.099131  0.036
O  O174  1  0.13542570  0.46074253  0.78347101  1  -1.215019  0.044466  -0.571966  -0.760141  0.023248  2.097244  0.035
O  O175  1  0.36886425  0.67280906  0.21315328  1  -1.214519  0.044915  -0.569878  -0.753725  0.023575  2.092791  0.035
O  O176  1  0.78835746  0.32771541  0.32994085  1  -1.163945  0.069473  -0.315457  -0.57402  0.03532  2.352773  0.062
O  O177  1  0.72422498  0.00206966  0.67409073  1  -1.163122  0.085213  -0.325979  -0.590374  0.044079  2.38063  0.074
O  O178  1  0.21780532  0.66981705  0.67432758  1  -1.160385  0.086052  -0.325629  -0.58899  0.044428  2.382628  0.074
O  O179  1  0.27640401  0.99200326  0.32357332  1  -1.162068  0.088947  -0.326214  -0.589009  0.045909  2.401315  0.077
O  O180  1  0.73017415  0.20068159  0.64829275  1  -1.159737  0.062621  -0.318127  -0.561475  0.032743  2.322355  0.055
O  O181  1  0.78308072  0.54776317  0.34796043  1  -1.12213  -0.000237  -0.303992  -0.50767  -0.001173  2.399037  0.001
O  O182  1  0.27679517  0.79613881  0.35321413  1  -1.161985  0.061216  -0.317001  -0.561069  0.032093  2.3138  0.053
O  O183  1  0.23024103  0.44500994  0.64658795  1  -1.168516  0.063414  -0.318889  -0.561836  0.033256  2.331543  0.055
O  O184  1  0.55416341  0.26779950  0.26351920  1  -1.174681  -0.000317  -0.333859  -0.562488  -0.001246  2.114409  0.0
O  O185  1  0.96132702  0.99859176  0.73472078  1  -1.1681  0.001033  -0.325269  -0.555038  -0.001014  2.107319  0.001
O  O186  1  0.45166907  0.73432366  0.73804986  1  -1.177607  0.001487  -0.324436  -0.554728  -0.000698  2.113412  0.001
O  O187  1  0.04103445  0.99738769  0.26153613  1  -1.179085  0.00153  -0.326621  -0.555392  -0.000829  2.104731  0.001
