# generated using pymatgen
data_CdH19C15S2N3O7
_symmetry_space_group_name_H-M   'P 1'
_cell_length_a   4.96242805
_cell_length_b   10.53910517
_cell_length_c   18.40700953
_cell_angle_alpha   95.98580637
_cell_angle_beta   89.99997954
_cell_angle_gamma   90.00000730
_symmetry_Int_Tables_number   1
_chemical_formula_structural   CdH19C15S2N3O7
_chemical_formula_sum   'Cd2 H38 C30 S4 N6 O14'
_cell_volume   957.42958087
_cell_formula_units_Z   2
loop_
 _symmetry_equiv_pos_site_id
 _symmetry_equiv_pos_as_xyz
  1  'x, y, z'
loop_
 _atom_site_type_symbol
 _atom_site_label
 _atom_site_symmetry_multiplicity
 _atom_site_fract_x
 _atom_site_fract_y
 _atom_site_fract_z
 _atom_site_occupancy
 _atom_site_hle17_bader_spin_density
 _atom_site_hle17_ddec_charge
 _atom_site_hle17_ddec_spin_density
 _atom_site_hle17_ddec_sum_bond_order
 _atom_site_hle17_magmom
 _atom_site_hse06_10hf_bader_spin_density
 _atom_site_hse06_10hf_ddec_charge
 _atom_site_hse06_10hf_ddec_spin_density
 _atom_site_hse06_10hf_ddec_sum_bond_order
 _atom_site_hse06_10hf_magmom
 _atom_site_hse06_bader_spin_density
 _atom_site_hse06_ddec_charge
 _atom_site_hse06_ddec_spin_density
 _atom_site_hse06_ddec_sum_bond_order
 _atom_site_hse06_magmom
 _atom_site_pbe_bader_spin_density
 _atom_site_pbe_cm5_charge
 _atom_site_pbe_ddec_charge
 _atom_site_pbe_ddec_spin_density
 _atom_site_pbe_ddec_sum_bond_order
 _atom_site_pbe_magmom
Cd  Cd0  1  0.54784620  0.29367260  0.85936730  1  0  1.203393  0  1.584214  0  0  1.016582  0  2.021392  0  0  1.075852  0  1.965954  0  0  0.78083  0.974415  0  2.059216  0
Cd  Cd1  1  0.04784352  0.70632793  0.14063234  1  0  1.203346  0  1.584231  0  0  1.01656  0  2.021406  0  0  1.075827  0  1.965972  0  0  0.780819  0.974392  0  2.059231  0
H  H2  1  0.74799629  0.56613859  0.79733904  1  0  0.085112  0  0.98985  0  0  0.088493  0  1.064288  0  0  0.090847  0  1.061628  0  0  0.123907  0.086642  0  1.066315  0
H  H3  1  0.24799546  0.43386100  0.20266107  1  0  0.085081  0  0.989834  0  0  0.088458  0  1.064286  0  0  0.090812  0  1.061628  0  0  0.123894  0.086607  0  1.066314  0
H  H4  1  0.49903961  0.68472701  0.70245215  1  0  0.305376  0  0.909677  0  0  0.284989  0  0.973428  0  0  0.292597  0  0.967709  0  0  0.314515  0.279606  0  0.977517  0
H  H5  1  0.99903499  0.31527354  0.29754744  1  0  0.305364  0  0.909685  0  0  0.28499  0  0.973436  0  0  0.2926  0  0.967715  0  0  0.314532  0.279605  0  0.977522  0
H  H6  1  0.09422973  0.55937557  0.64943126  1  0  0.113404  0  0.971437  0  0  0.12305  0  1.031814  0  0  0.1258  0  1.030688  0  0  0.119386  0.120965  0  1.032811  0
H  H7  1  0.59423111  0.44062497  0.35056838  1  0  0.113364  0  0.97148  0  0  0.123005  0  1.031862  0  0  0.125756  0  1.030733  0  0  0.119366  0.120922  0  1.032857  0
H  H8  1  0.08735398  0.33798676  0.72150982  1  0  0.102903  0  0.974467  0  0  0.109846  0  1.040231  0  0  0.111526  0  1.040876  0  0  0.112817  0.108605  0  1.039826  0
H  H9  1  0.58735149  0.66201283  0.27849085  1  0  0.102952  0  0.974435  0  0  0.109866  0  1.040233  0  0  0.11155  0  1.04087  0  0  0.112829  0.108616  0  1.039837  0
H  H10  1  0.72356665  0.01343235  0.78608758  1  0  0.084673  0  0.966635  0  0  0.090581  0  1.036126  0  0  0.09327  0  1.034287  0  0  0.115486  0.08859  0  1.037624  0
H  H11  1  0.22356192  0.98656819  0.21391204  1  0  0.084636  0  0.966679  0  0  0.090554  0  1.036115  0  0  0.093244  0  1.034274  0  0  0.115473  0.088565  0  1.037612  0
H  H12  1  0.84153704  0.01506513  0.91441176  1  0  0.116074  0  0.938042  0  0  0.132325  0  0.997591  0  0  0.133515  0  0.997745  0  0  0.106993  0.131414  0  0.997587  0
H  H13  1  0.34153450  0.98493732  0.08558850  1  0  0.116073  0  0.938048  0  0  0.132323  0  0.997599  0  0  0.133513  0  0.997753  0  0  0.106994  0.131412  0  0.997595  0
H  H14  1  0.14344746  0.92627218  0.89188349  1  0  0.100671  0  0.944513  0  0  0.111957  0  1.012566  0  0  0.113438  0  1.012285  0  0  0.094741  0.110806  0  1.012919  0
H  H15  1  0.64344907  0.07372551  0.10811706  1  0  0.100658  0  0.944515  0  0  0.11194  0  1.012574  0  0  0.113421  0  1.012292  0  0  0.094745  0.110789  0  1.012928  0
H  H16  1  0.52321714  0.91186125  0.97421318  1  0  0.131809  0  0.941218  0  0  0.14044  0  1.008759  0  0  0.143627  0  1.006516  0  0  0.106128  0.138133  0  1.010444  0
H  H17  1  0.02321645  0.08814024  0.02578760  1  0  0.131851  0  0.941207  0  0  0.140479  0  1.008741  0  0  0.143668  0  1.006496  0  0  0.106148  0.138174  0  1.010429  0
H  H18  1  0.40021484  0.75232989  0.95357877  1  0  0.133465  0  0.914294  0  0  0.148274  0  0.967102  0  0  0.150792  0  0.965733  0  0  0.108565  0.146451  0  0.968179  0
H  H19  1  0.90021860  0.24767257  0.04642095  1  0  0.133474  0  0.914272  0  0  0.148251  0  0.967112  0  0  0.150769  0  0.965745  0  0  0.108556  0.14643  0  0.96819  0
H  H20  1  0.24845865  0.90368306  0.73706458  1  0  0.319105  0  0.889786  0  0  0.298517  0  0.962426  0  0  0.306631  0  0.9551  0  0  0.306215  0.29281  0  0.967551  0
H  H21  1  0.74845603  0.09631557  0.26293493  1  0  0.319116  0  0.889794  0  0  0.298535  0  0.962422  0  0  0.30665  0  0.955095  0  0  0.306209  0.292828  0  0.967546  0
H  H22  1  0.56220822  0.10742410  0.68231345  1  0  0.113821  0  0.976584  0  0  0.119944  0  1.043694  0  0  0.123478  0  1.041534  0  0  0.104634  0.117406  0  1.045199  0
H  H23  1  0.06221139  0.89257454  0.31768717  1  0  0.113823  0  0.976589  0  0  0.119951  0  1.043694  0  0  0.123485  0  1.041534  0  0  0.104644  0.117413  0  1.045201  0
H  H24  1  0.59475082  0.30658819  0.62286913  1  0  0.093064  0  0.965093  0  0  0.102516  0  1.027012  0  0  0.104938  0  1.027792  0  0  0.098638  0.100797  0  1.026588  0
H  H25  1  0.09474983  0.69340949  0.37713143  1  0  0.093063  0  0.965078  0  0  0.1025  0  1.027011  0  0  0.104923  0  1.02779  0  0  0.098634  0.100786  0  1.026581  0
H  H26  1  0.28173476  0.15719427  0.49918097  1  0  0.096009  0  0.97248  0  0  0.104526  0  1.037085  0  0  0.10709  0  1.037086  0  0  0.098826  0.102658  0  1.037254  0
H  H27  1  0.78173404  0.84280533  0.50082022  1  0  0.095997  0  0.972431  0  0  0.104539  0  1.037018  0  0  0.107106  0  1.037015  0  0  0.09883  0.102671  0  1.037187  0
H  H28  1  0.25247496  0.95654403  0.55866433  1  0  0.102123  0  0.965835  0  0  0.10919  0  1.032159  0  0  0.111645  0  1.031947  0  0  0.103991  0.1074  0  1.032425  0
H  H29  1  0.75247410  0.04345557  0.44133686  1  0  0.102123  0  0.965836  0  0  0.109191  0  1.032167  0  0  0.111646  0  1.031956  0  0  0.104  0.107405  0  1.03243  0
H  H30  1  0.15689065  0.40338070  0.51959397  1  0  0.107661  0  0.958024  0  0  0.129316  0  1.020276  0  0  0.130575  0  1.020333  0  0  0.092158  0.12842  0  1.020202  0
H  H31  1  0.65688989  0.59661793  0.48040609  1  0  0.107648  0  0.958044  0  0  0.129315  0  1.020288  0  0  0.130571  0  1.02035  0  0  0.09215  0.128416  0  1.020217  0
H  H32  1  0.81188251  0.43639148  0.54073786  1  0  0.106055  0  0.955492  0  0  0.128019  0  1.015071  0  0  0.12972  0  1.014431  0  0  0.090591  0.126793  0  1.015501  0
H  H33  1  0.31188339  0.56360716  0.45926219  1  0  0.106059  0  0.955488  0  0  0.128026  0  1.015058  0  0  0.129728  0  1.014417  0  0  0.090586  0.126799  0  1.015488  0
H  H34  1  0.90119366  0.34030869  0.45909686  1  0  0.128505  0  0.941301  0  0  0.149871  0  1.000881  0  0  0.151871  0  0.999905  0  0  0.095323  0.148337  0  1.001723  0
H  H35  1  0.40119446  0.65968900  0.54090312  1  0  0.128532  0  0.94129  0  0  0.149894  0  1.000871  0  0  0.151894  0  0.999894  0  0  0.095333  0.148358  0  1.001714  0
H  H36  1  0.98279656  0.41880368  0.93383429  1  0  0.423493  0  0.882587  0  0  0.391461  0  0.947977  0  0  0.402285  0  0.932198  0  0  0.28545  0.383749  0  0.959223  0
H  H37  1  0.48279595  0.58119592  0.06616580  1  0  0.423501  0  0.882574  0  0  0.39147  0  0.947961  0  0  0.402293  0  0.932183  0  0  0.285456  0.383759  0  0.959205  0
H  H38  1  0.76337978  0.52432615  0.95360909  1  0  0.426002  0  0.870576  0  0  0.394809  0  0.933237  0  0  0.405622  0  0.91759  0  0  0.287194  0.387074  0  0.944437  0
H  H39  1  0.26337917  0.47567440  0.04639107  1  0  0.426011  0  0.870562  0  0  0.394824  0  0.933215  0  0  0.405635  0  0.917571  0  0  0.287203  0.387089  0  0.944416  0
C  C40  1  0.57091968  0.53256451  0.76676789  1  0  0.213429  0  3.696493  0  0  0.156596  0  3.958292  0  0  0.170567  0  3.97301  0  0  0.137735  0.147623  0  3.947961  0
C  C41  1  0.07091681  0.46743602  0.23323174  1  0  0.213502  0  3.696455  0  0  0.156694  0  3.958269  0  0  0.170663  0  3.97299  0  0  0.137771  0.147711  0  3.947938  0
C  C42  1  0.22799284  0.52490866  0.68942925  1  0  -0.027284  0  3.692849  0  0  -0.065402  0  3.954812  0  0  -0.064511  0  3.973491  0  0  -0.005736  -0.065975  0  3.94242  0
C  C43  1  0.72798825  0.47508999  0.31057136  1  0  -0.027214  0  3.692795  0  0  -0.065304  0  3.954764  0  0  -0.064411  0  3.973443  0  0  -0.005653  -0.065886  0  3.942361  0
C  C44  1  0.22729355  0.41720053  0.72565170  1  0  -0.00125  0  3.754751  0  0  -0.032873  0  4.017925  0  0  -0.030714  0  4.039253  0  0  -0.00709  -0.034298  0  4.003486  0
C  C45  1  0.72728702  0.58280192  0.27434803  1  0  -0.001222  0  3.754616  0  0  -0.03281  0  4.01777  0  0  -0.03065  0  4.039101  0  0  -0.007077  -0.034229  0  4.003339  0
C  C46  1  0.09410059  0.11895054  0.80572797  1  0  0.648194  0  3.871034  0  0  0.59607  0  4.17264  0  0  0.629689  0  4.167406  0  0  0.206415  0.57319  0  4.17536  0
C  C47  1  0.59409828  0.88104999  0.19427167  1  0  0.648151  0  3.870947  0  0  0.59597  0  4.17262  0  0  0.629588  0  4.167389  0  0  0.20638  0.57309  0  4.175337  0
C  C48  1  0.93394161  0.99407447  0.79953036  1  0  0.034344  0  3.644226  0  0  0.01456  0  3.886957  0  0  0.013696  0  3.898185  0  0  -0.001454  0.015044  0  3.879348  0
C  C49  1  0.43393462  0.00592704  0.20046984  1  0  0.034301  0  3.644325  0  0  0.014672  0  3.886812  0  0  0.013808  0  3.89804  0  0  -0.001422  0.015158  0  3.879199  0
C  C50  1  0.93611388  0.94376821  0.87480770  1  0  -0.174801  0  3.601456  0  0  -0.21595  0  3.862635  0  0  -0.21583  0  3.872545  0  0  -0.149146  -0.215946  0  3.855921  0
C  C51  1  0.43611506  0.05623137  0.12519130  1  0  -0.174682  0  3.601337  0  0  -0.215881  0  3.862544  0  0  -0.215759  0  3.872452  0  0  -0.149128  -0.215878  0  3.855834  0
C  C52  1  0.58160388  0.81212850  0.95922760  1  0  -0.311667  0  3.651629  0  0  -0.344853  0  3.911287  0  0  -0.350001  0  3.915875  0  0  -0.152851  -0.341304  0  3.90807  0
C  C53  1  0.08160723  0.18787299  0.04077155  1  0  -0.311761  0  3.651678  0  0  -0.344901  0  3.911326  0  0  -0.350048  0  3.915915  0  0  -0.152874  -0.34133  0  3.908047  0
C  C54  1  0.76799712  0.76522045  0.01595190  1  0  0.69926  0  3.868721  0  0  0.649144  0  4.16513  0  0  0.68277  0  4.160024  0  0  0.197735  0.626281  0  4.1677  0
C  C55  1  0.26799923  0.23478104  0.98404723  1  0  0.699307  0  3.868713  0  0  0.64915  0  4.165169  0  0  0.682774  0  4.160065  0  0  0.197768  0.626287  0  4.167745  0
C  C56  1  0.90481875  0.01998662  0.62333673  1  0  -0.150869  0  3.778557  0  0  -0.125477  0  4.03115  0  0  -0.134559  0  4.05478  0  0  -0.028683  -0.119648  0  4.01546  0
C  C57  1  0.40481784  0.98001204  0.37666440  1  0  -0.150877  0  3.778696  0  0  -0.125449  0  4.031243  0  0  -0.134528  0  4.054873  0  0  -0.028663  -0.119614  0  4.015546  0
C  C58  1  0.72072541  0.11825207  0.64245715  1  0  -0.05663  0  3.736471  0  0  -0.081741  0  3.987306  0  0  -0.080063  0  4.007146  0  0  -0.085547  -0.082655  0  3.973908  0
C  C59  1  0.22072651  0.88174752  0.35754297  1  0  -0.056638  0  3.736543  0  0  -0.081751  0  3.987346  0  0  -0.080075  0  4.00719  0  0  -0.085577  -0.082667  0  3.973946  0
C  C60  1  0.74015948  0.23032031  0.60860726  1  0  -0.124409  0  3.710865  0  0  -0.137845  0  3.949882  0  0  -0.143062  0  3.970979  0  0  -0.087717  -0.134477  0  3.935626  0
C  C61  1  0.24016051  0.76967929  0.39139339  1  0  -0.1244  0  3.710829  0  0  -0.137828  0  3.949853  0  0  -0.143046  0  3.970953  0  0  -0.087723  -0.134465  0  3.935592  0
C  C62  1  0.93847574  0.24531040  0.55602546  1  0  0.161581  0  3.736949  0  0  0.185766  0  3.970005  0  0  0.189551  0  3.992452  0  0  0.001299  0.183376  0  3.954682  0
C  C63  1  0.43847669  0.75468635  0.44397555  1  0  0.161497  0  3.736783  0  0  0.185696  0  3.969842  0  0  0.189482  0  3.992289  0  0  0.001276  0.183307  0  3.954517  0
C  C64  1  0.12365486  0.14589773  0.53908856  1  0  -0.123769  0  3.705447  0  0  -0.138603  0  3.946472  0  0  -0.14402  0  3.96777  0  0  -0.088213  -0.135089  0  3.932099  0
C  C65  1  0.62365621  0.85410186  0.46091156  1  0  -0.123717  0  3.705222  0  0  -0.138584  0  3.946268  0  0  -0.144004  0  3.967564  0  0  -0.088198  -0.13507  0  3.931895  0
C  C66  1  0.10918609  0.03357257  0.57234701  1  0  -0.054075  0  3.756974  0  0  -0.077822  0  4.005622  0  0  -0.075964  0  4.02601  0  0  -0.083275  -0.078834  0  3.991746  0
C  C67  1  0.60918349  0.96642702  0.42765366  1  0  -0.054091  0  3.756948  0  0  -0.077852  0  4.005612  0  0  -0.075996  0  4.026003  0  0  -0.083308  -0.078866  0  3.991733  0
C  C68  1  0.95257976  0.36321918  0.51709026  1  0  -0.345823  0  3.726892  0  0  -0.427737  0  3.960573  0  0  -0.430249  0  3.968561  0  0  -0.23964  -0.425793  0  3.955033  0
C  C69  1  0.45258265  0.63677851  0.48290972  1  0  -0.345824  0  3.726831  0  0  -0.427745  0  3.960493  0  0  -0.430256  0  3.968489  0  0  -0.239621  -0.4258  0  3.954956  0
S  S70  1  0.73538148  0.79930047  0.86936559  1  0  0.010107  0  2.320713  0  0  0.012559  0  2.674146  0  0  0.010608  0  2.670387  0  0  -0.020815  0.014155  0  2.676788  0
S  S71  1  0.23539277  0.20070388  0.13063316  1  0  0.010106  0  2.320683  0  0  0.012566  0  2.674102  0  0  0.010615  0  2.670342  0  0  -0.020805  0.01416  0  2.676741  0
S  S72  1  0.88729919  0.87620712  0.66483589  1  0  1.219082  0  5.386272  0  0  1.120258  0  5.904176  0  0  1.164271  0  5.887097  0  0  0.561953  1.089923  0  5.915177  0
S  S73  1  0.38729206  0.12379056  0.33516302  1  0  1.219092  0  5.386437  0  0  1.12022  0  5.904375  0  0  1.164237  0  5.887294  0  0  0.561922  1.089882  0  5.915379  0
N  N74  1  0.44194852  0.42351700  0.77376299  1  0  -0.412118  0  3.261974  0  0  -0.328381  0  3.538807  0  0  -0.352284  0  3.556747  0  0  -0.363698  -0.312094  0  3.526036  0
N  N75  1  0.94194406  0.57648260  0.22623656  1  0  -0.412242  0  3.262  0  0  -0.328506  0  3.538821  0  0  -0.352411  0  3.556762  0  0  -0.363746  -0.312219  0  3.526048  0
N  N76  1  0.44621061  0.59617045  0.71621911  1  0  -0.276963  0  3.468043  0  0  -0.21037  0  3.705  0  0  -0.225886  0  3.719764  0  0  -0.380814  -0.200127  0  3.694965  0
N  N77  1  0.94620804  0.40382915  0.28378098  1  0  -0.276962  0  3.467999  0  0  -0.210445  0  3.705028  0  0  -0.225963  0  3.719792  0  0  -0.380872  -0.200177  0  3.694968  0
N  N78  1  0.04295642  0.89752318  0.74380794  1  0  -0.547443  0  3.110141  0  0  -0.497997  0  3.383886  0  0  -0.515243  0  3.384137  0  0  -0.452897  -0.485752  0  3.383151  0
N  N79  1  0.54295180  0.10247641  0.25619273  1  0  -0.547465  0  3.110216  0  0  -0.498082  0  3.383977  0  0  -0.515324  0  3.384217  0  0  -0.452882  -0.485835  0  3.383245  0
O  O80  1  0.33919635  0.11451883  0.78610708  1  0  -0.631245  0  2.004695  0  0  -0.56428  0  2.249097  0  0  -0.592266  0  2.239131  0  0  -0.316992  -0.544564  0  2.255202  0
O  O81  1  0.83919401  0.88548268  0.21389313  1  0  -0.631178  0  2.004656  0  0  -0.564271  0  2.249153  0  0  -0.592254  0  2.239182  0  0  -0.317009  -0.544563  0  2.255277  0
O  O82  1  0.97959051  0.21957830  0.83480284  1  0  -0.66172  0  2.046135  0  0  -0.589687  0  2.309168  0  0  -0.620545  0  2.298453  0  0  -0.328564  -0.567962  0  2.315631  0
O  O83  1  0.47958781  0.78042224  0.16519621  1  0  -0.661674  0  2.04603  0  0  -0.58963  0  2.309102  0  0  -0.620489  0  2.298389  0  0  -0.328523  -0.567901  0  2.315561  0
O  O84  1  0.93191082  0.84269928  0.04983954  1  0  -0.626832  0  1.92525  0  0  -0.561257  0  2.16099  0  0  -0.590973  0  2.153794  0  0  -0.320251  -0.540539  0  2.16523  0
O  O85  1  0.43191497  0.15730318  0.95015963  1  0  -0.626884  0  1.925261  0  0  -0.561282  0  2.161015  0  0  -0.590997  0  2.153819  0  0  -0.320262  -0.540568  0  2.165254  0
O  O86  1  0.75459640  0.64750829  0.02840726  1  0  -0.693944  0  2.036042  0  0  -0.613835  0  2.255389  0  0  -0.64265  0  2.242982  0  0  -0.322967  -0.593629  0  2.2634  0
O  O87  1  0.25459655  0.35249320  0.97159242  1  0  -0.693955  0  2.036032  0  0  -0.613843  0  2.255399  0  0  -0.642656  0  2.242993  0  0  -0.323009  -0.59364  0  2.263412  0
O  O88  1  0.03440019  0.77850660  0.62027182  1  0  -0.592031  0  1.942482  0  0  -0.543636  0  2.186569  0  0  -0.562972  0  2.174935  0  0  -0.310482  -0.529987  0  2.193948  0
O  O89  1  0.53439947  0.22149299  0.37972940  1  0  -0.592127  0  1.942476  0  0  -0.543685  0  2.186539  0  0  -0.563023  0  2.174907  0  0  -0.310506  -0.530044  0  2.193941  0
O  O90  1  0.60485881  0.85356623  0.68091067  1  0  -0.622208  0  2.010613  0  0  -0.569227  0  2.268894  0  0  -0.588964  0  2.255403  0  0  -0.309533  -0.555414  0  2.277779  0
O  O91  1  0.10485977  0.14643241  0.31909049  1  0  -0.622127  0  2.010735  0  0  -0.56913  0  2.26901  0  0  -0.588877  0  2.255525  0  0  -0.309492  -0.555318  0  2.277903  0
O  O92  1  0.81988641  0.45826906  0.91431924  1  0  -0.8436  0  1.856833  0  0  -0.78266  0  2.051695  0  0  -0.805491  0  2.01779  0  0  -0.595154  -0.766554  0  2.075443  0
O  O93  1  0.31988576  0.54173148  0.08568038  1  0  -0.84362  0  1.85682  0  0  -0.782686  0  2.051677  0  0  -0.805515  0  2.017775  0  0  -0.595175  -0.76658  0  2.075426  0
