# generated using pymatgen
data_BaH10C12(NO4)2
_symmetry_space_group_name_H-M   'P 1'
_cell_length_a   7.44861167
_cell_length_b   10.60112483
_cell_length_c   10.89972962
_cell_angle_alpha   119.09079417
_cell_angle_beta   109.98683406
_cell_angle_gamma   89.98668584
_symmetry_Int_Tables_number   1
_chemical_formula_structural   BaH10C12(NO4)2
_chemical_formula_sum   'Ba2 H20 C24 N4 O16'
_cell_volume   692.22719922
_cell_formula_units_Z   2
loop_
 _symmetry_equiv_pos_site_id
 _symmetry_equiv_pos_as_xyz
  1  'x, y, z'
loop_
 _atom_site_type_symbol
 _atom_site_label
 _atom_site_symmetry_multiplicity
 _atom_site_fract_x
 _atom_site_fract_y
 _atom_site_fract_z
 _atom_site_occupancy
 _atom_site_hle17_bader_spin_density
 _atom_site_hle17_ddec_charge
 _atom_site_hle17_ddec_spin_density
 _atom_site_hle17_ddec_sum_bond_order
 _atom_site_hle17_magmom
 _atom_site_hse06_10hf_bader_spin_density
 _atom_site_hse06_10hf_ddec_charge
 _atom_site_hse06_10hf_ddec_spin_density
 _atom_site_hse06_10hf_ddec_sum_bond_order
 _atom_site_hse06_10hf_magmom
 _atom_site_hse06_bader_spin_density
 _atom_site_hse06_ddec_charge
 _atom_site_hse06_ddec_spin_density
 _atom_site_hse06_ddec_sum_bond_order
 _atom_site_hse06_magmom
 _atom_site_pbe_bader_spin_density
 _atom_site_pbe_cm5_charge
 _atom_site_pbe_ddec_charge
 _atom_site_pbe_ddec_spin_density
 _atom_site_pbe_ddec_sum_bond_order
 _atom_site_pbe_magmom
Ba  Ba0  1  0.32973646  0.62111591  0.50003561  1  0  1.664258  0  1.176194  0  0  1.525856  0  1.581188  0  0  1.564338  0  1.53641  0  0  0.955515  1.497432  0  1.61287  0
Ba  Ba1  1  0.82974984  0.37881682  0.49993230  1  0  1.66447  0  1.176228  0  0  1.525766  0  1.581697  0  0  1.564259  0  1.536916  0  0  0.955718  1.49734  0  1.613384  0
H  H2  1  0.41474559  0.17939763  0.08398816  1  0  0.120567  0  0.93805  0  0  0.126492  0  1.004263  0  0  0.131135  0  1.000575  0  0  0.116652  0.123275  0  1.006566  0
H  H3  1  0.33083821  0.82082741  0.91634921  1  0  0.120608  0  0.938525  0  0  0.126955  0  1.004286  0  0  0.131579  0  1.000657  0  0  0.116801  0.123801  0  1.006355  0
H  H4  1  0.91453824  0.40442398  0.08373756  1  0  0.120737  0  0.936961  0  0  0.126453  0  1.00346  0  0  0.131181  0  0.999693  0  0  0.11674  0.123166  0  1.005834  0
H  H5  1  0.83092031  0.59548706  0.91619688  1  0  0.120225  0  0.937155  0  0  0.126144  0  1.003706  0  0  0.130757  0  1.000052  0  0  0.116642  0.123013  0  1.005745  0
H  H6  1  0.14304762  0.00540964  0.82797277  1  0  0.134387  0  0.947995  0  0  0.141436  0  1.006424  0  0  0.145922  0  1.003506  0  0  0.118643  0.138063  0  1.008977  0
H  H7  1  0.31495349  0.99456771  0.17228936  1  0  0.134643  0  0.947232  0  0  0.141611  0  1.00572  0  0  0.146097  0  1.002811  0  0  0.118342  0.138275  0  1.008484  0
H  H8  1  0.64271476  0.32250850  0.82781111  1  0  0.133936  0  0.949211  0  0  0.141176  0  1.00724  0  0  0.145675  0  1.004305  0  0  0.118585  0.137791  0  1.009808  0
H  H9  1  0.81481585  0.67736905  0.17207021  1  0  0.134011  0  0.948682  0  0  0.141533  0  1.0064  0  0  0.146008  0  1.003534  0  0  0.118577  0.1382  0  1.009172  0
H  H10  1  0.93350170  0.11227174  0.68058921  1  0  0.119588  0  0.91431  0  0  0.131933  0  0.96803  0  0  0.135785  0  0.964071  0  0  0.140905  0.129095  0  0.970859  0
H  H11  1  0.25252336  0.88752506  0.31940933  1  0  0.120036  0  0.914621  0  0  0.132842  0  0.967615  0  0  0.136751  0  0.963614  0  0  0.140839  0.13021  0  0.970025  0
H  H12  1  0.43314806  0.06834273  0.68061788  1  0  0.119525  0  0.914924  0  0  0.132087  0  0.968287  0  0  0.135935  0  0.964326  0  0  0.140838  0.129252  0  0.971121  0
H  H13  1  0.75251292  0.93159139  0.31928295  1  0  0.119934  0  0.914843  0  0  0.132578  0  0.968015  0  0  0.136447  0  0.964011  0  0  0.140909  0.129943  0  0.970443  0
H  H14  1  0.61608813  0.75281500  0.41032593  1  0  0.397431  0  0.911596  0  0  0.369957  0  0.974893  0  0  0.379735  0  0.960495  0  0  0.290595  0.363094  0  0.984979  0
H  H15  1  0.20597149  0.24720715  0.58970702  1  0  0.399435  0  0.910403  0  0  0.371749  0  0.972791  0  0  0.381596  0  0.958277  0  0  0.29136  0.364954  0  0.982783  0
H  H16  1  0.11626122  0.15762296  0.41035524  1  0  0.397748  0  0.910865  0  0  0.369877  0  0.974934  0  0  0.379672  0  0.960537  0  0  0.290556  0.363005  0  0.985011  0
H  H17  1  0.70572043  0.84251739  0.58967141  1  0  0.398704  0  0.910095  0  0  0.371233  0  0.973102  0  0  0.381052  0  0.958637  0  0  0.29125  0.36445  0  0.983075  0
H  H18  1  0.84664963  0.64611496  0.40871232  1  0  0.409762  0  0.89813  0  0  0.378836  0  0.963193  0  0  0.390245  0  0.946137  0  0  0.298012  0.370606  0  0.97554  0
H  H19  1  0.43805592  0.35412290  0.59136458  1  0  0.410425  0  0.897152  0  0  0.379565  0  0.962156  0  0  0.390944  0  0.945128  0  0  0.298423  0.371415  0  0.974318  0
H  H20  1  0.34665843  0.26287844  0.40878723  1  0  0.409056  0  0.89886  0  0  0.378203  0  0.963823  0  0  0.389586  0  0.946808  0  0  0.297903  0.369982  0  0.976158  0
H  H21  1  0.93800940  0.73741020  0.59129662  1  0  0.410016  0  0.897659  0  0  0.379077  0  0.962853  0  0  0.390453  0  0.945821  0  0  0.298137  0.37093  0  0.975007  0
C  C22  1  0.23774738  0.42164712  0.97686526  1  0  0.082997  0  3.644994  0  0  0.062833  0  3.896084  0  0  0.071302  0  3.908885  0  0  0.122054  0.057647  0  3.887972  0
C  C23  1  0.26082539  0.57828066  0.02304471  1  0  0.084916  0  3.644476  0  0  0.066381  0  3.893821  0  0  0.074448  0  3.906928  0  0  0.123233  0.059032  0  3.88713  0
C  C24  1  0.73770074  0.05520409  0.97689303  1  0  0.083267  0  3.64575  0  0  0.063826  0  3.896343  0  0  0.072088  0  3.909424  0  0  0.122555  0.058742  0  3.887978  0
C  C25  1  0.76082660  0.94470634  0.02303879  1  0  0.085823  0  3.645184  0  0  0.066591  0  3.895013  0  0  0.074678  0  3.908255  0  0  0.123184  0.059371  0  3.888055  0
C  C26  1  0.35739035  0.36889807  0.06417465  1  0  -0.08933  0  3.707998  0  0  -0.07487  0  3.954678  0  0  -0.081833  0  3.971704  0  0  0.007061  -0.071332  0  3.944074  0
C  C27  1  0.29326456  0.63112825  0.93586552  1  0  -0.090894  0  3.708606  0  0  -0.076538  0  3.955019  0  0  -0.083465  0  3.972213  0  0  0.006176  -0.072852  0  3.944905  0
C  C28  1  0.85724193  0.19523708  0.06412331  1  0  -0.090169  0  3.710457  0  0  -0.076326  0  3.957091  0  0  -0.083161  0  3.974098  0  0  0.006838  -0.07283  0  3.946438  0
C  C29  1  0.79327625  0.80469716  0.93583859  1  0  -0.089838  0  3.709924  0  0  -0.075267  0  3.955726  0  0  -0.082182  0  3.972927  0  0  0.006565  -0.071671  0  3.94563  0
C  C30  1  0.32307482  0.21883435  0.01328300  1  0  -0.0362  0  3.680976  0  0  -0.073562  0  3.948969  0  0  -0.069432  0  3.963725  0  0  -0.069589  -0.076  0  3.939093  0
C  C31  1  0.30972364  0.78122062  0.98687480  1  0  -0.037825  0  3.682139  0  0  -0.076014  0  3.950486  0  0  -0.071777  0  3.9651  0  0  -0.069604  -0.07662  0  3.938956  0
C  C32  1  0.82287319  0.29431008  0.01308852  1  0  -0.036128  0  3.680377  0  0  -0.073124  0  3.948587  0  0  -0.069017  0  3.963116  0  0  -0.069835  -0.075518  0  3.93877  0
C  C33  1  0.80972031  0.70556629  0.98679072  1  0  -0.03777  0  3.680193  0  0  -0.075466  0  3.948743  0  0  -0.071198  0  3.963288  0  0  -0.069938  -0.076087  0  3.9373  0
C  C34  1  0.17394043  0.12312637  0.87255719  1  0  -0.078921  0  3.734317  0  0  -0.097396  0  4.004915  0  0  -0.100721  0  4.020814  0  0  -0.074346  -0.095622  0  3.994558  0
C  C35  1  0.30123192  0.87682780  0.12761461  1  0  -0.078848  0  3.734559  0  0  -0.09738  0  4.005439  0  0  -0.10066  0  4.021233  0  0  -0.074083  -0.095959  0  3.994211  0
C  C36  1  0.67369606  0.24936067  0.87239010  1  0  -0.078625  0  3.733366  0  0  -0.097133  0  4.00338  0  0  -0.100451  0  4.019304  0  0  -0.074293  -0.095352  0  3.99301  0
C  C37  1  0.80114002  0.75048354  0.12745891  1  0  -0.079131  0  3.733121  0  0  -0.098224  0  4.003989  0  0  -0.101505  0  4.019749  0  0  -0.074559  -0.096839  0  3.992809  0
C  C38  1  0.05632329  0.17821406  0.78893841  1  0  0.019162  0  3.580282  0  0  -0.023863  0  3.845285  0  0  -0.017022  0  3.85689  0  0  0.046412  -0.027921  0  3.837074  0
C  C39  1  0.26701105  0.82164946  0.21105256  1  0  0.017297  0  3.583964  0  0  -0.026062  0  3.848582  0  0  -0.019171  0  3.860117  0  0  0.046539  -0.028736  0  3.839135  0
C  C40  1  0.55604432  0.11071856  0.78891419  1  0  0.019179  0  3.582163  0  0  -0.023904  0  3.84665  0  0  -0.017088  0  3.858335  0  0  0.04628  -0.027957  0  3.838391  0
C  C41  1  0.76701576  0.88914584  0.21094876  1  0  0.018286  0  3.582303  0  0  -0.024964  0  3.847009  0  0  -0.018  0  3.858461  0  0  0.0469  -0.027648  0  3.837588  0
C  C42  1  0.51790888  0.47327448  0.21782786  1  0  0.671667  0  3.932133  0  0  0.615659  0  4.234835  0  0  0.650131  0  4.225685  0  0  0.222828  0.592599  0  4.240185  0
C  C43  1  0.30020915  0.52681305  0.78223441  1  0  0.673481  0  3.931083  0  0  0.617359  0  4.234205  0  0  0.651791  0  4.225108  0  0  0.223639  0.593688  0  4.240323  0
C  C44  1  0.01783151  0.24467440  0.21778165  1  0  0.671803  0  3.930292  0  0  0.616021  0  4.233001  0  0  0.650467  0  4.223829  0  0  0.223402  0.592963  0  4.238368  0
C  C45  1  0.80034129  0.75540882  0.78225020  1  0  0.67308  0  3.93008  0  0  0.616753  0  4.233353  0  0  0.651175  0  4.224264  0  0  0.223001  0.593096  0  4.239498  0
N  N46  1  0.08384124  0.32574042  0.84231561  1  0  0.256653  0  3.704197  0  0  0.3077  0  3.965805  0  0  0.307663  0  3.987886  0  0  -0.099002  0.306956  0  3.950532  0
N  N47  1  0.24130606  0.67410787  0.15757076  1  0  0.256702  0  3.704942  0  0  0.3073  0  3.966242  0  0  0.307306  0  3.9884  0  0  -0.099478  0.306623  0  3.951392  0
N  N48  1  0.58377032  0.01657956  0.84233096  1  0  0.255502  0  3.707166  0  0  0.306301  0  3.968369  0  0  0.306286  0  3.990486  0  0  -0.099301  0.305529  0  3.95309  0
N  N49  1  0.74138384  0.98330664  0.15756355  1  0  0.256123  0  3.707825  0  0  0.306857  0  3.968871  0  0  0.306875  0  3.990971  0  0  -0.09991  0.306132  0  3.954014  0
O  O50  1  0.61984296  0.58216867  0.23706929  1  0  -0.636378  0  1.978504  0  0  -0.575091  0  2.192865  0  0  -0.6015  0  2.184792  0  0  -0.298364  -0.557139  0  2.198526  0
O  O51  1  0.38295278  0.41789149  0.76299291  1  0  -0.636336  0  1.978487  0  0  -0.575274  0  2.193094  0  0  -0.601571  0  2.18496  0  0  -0.298309  -0.557041  0  2.198584  0
O  O52  1  0.11987777  0.15508007  0.23717160  1  0  -0.635964  0  1.976219  0  0  -0.574897  0  2.190765  0  0  -0.601274  0  2.182699  0  0  -0.298736  -0.556969  0  2.196439  0
O  O53  1  0.88293828  0.84513093  0.76301655  1  0  -0.636982  0  1.978026  0  0  -0.575803  0  2.193024  0  0  -0.60201  0  2.184658  0  0  -0.29832  -0.557591  0  2.198568  0
O  O54  1  0.53586755  0.44270938  0.32025244  1  0  -0.73737  0  2.020499  0  0  -0.673923  0  2.273457  0  0  -0.700649  0  2.263304  0  0  -0.397866  -0.654933  0  2.279543  0
O  O55  1  0.21569468  0.55735604  0.67980574  1  0  -0.738367  0  2.019144  0  0  -0.674728  0  2.272075  0  0  -0.701506  0  2.261965  0  0  -0.398815  -0.656031  0  2.278851  0
O  O56  1  0.03569756  0.37768788  0.32005370  1  0  -0.737101  0  2.019403  0  0  -0.67388  0  2.272732  0  0  -0.700611  0  2.262623  0  0  -0.397719  -0.654885  0  2.278792  0
O  O57  1  0.71609898  0.62241564  0.67984844  1  0  -0.737862  0  2.018247  0  0  -0.674289  0  2.271431  0  0  -0.701082  0  2.261373  0  0  -0.398094  -0.655581  0  2.278165  0
O  O58  1  0.96069466  0.37629609  0.76684511  1  0  -0.589929  0  1.763542  0  0  -0.552425  0  2.002397  0  0  -0.577918  0  2.004722  0  0  -0.277983  -0.533952  0  2.000139  0
O  O59  1  0.19358942  0.62342694  0.23289954  1  0  -0.589729  0  1.762221  0  0  -0.552332  0  2.00148  0  0  -0.57784  0  2.003802  0  0  -0.277727  -0.533944  0  1.999114  0
O  O60  1  0.46077265  0.89053441  0.76689714  1  0  -0.589631  0  1.764665  0  0  -0.552166  0  2.003412  0  0  -0.577655  0  2.005733  0  0  -0.278006  -0.533698  0  2.00117  0
O  O61  1  0.69373045  0.10933389  0.23298095  1  0  -0.590103  0  1.765229  0  0  -0.552498  0  2.003992  0  0  -0.577999  0  2.006273  0  0  -0.277504  -0.534113  0  2.001671  0
O  O62  1  0.59153060  0.82599776  0.49997532  1  0  -0.865046  0  1.824801  0  0  -0.822747  0  1.990559  0  0  -0.841097  0  1.961673  0  0  -0.620597  -0.809567  0  2.010065  0
O  O63  1  0.09188919  0.17392217  0.50002871  1  0  -0.86646  0  1.823878  0  0  -0.82346  0  1.989771  0  0  -0.841892  0  1.960843  0  0  -0.62069  -0.810254  0  2.009369  0
O  O64  1  0.96896542  0.68011470  0.49998632  1  0  -0.887234  0  1.832756  0  0  -0.830703  0  2.00508  0  0  -0.849068  0  1.970309  0  0  -0.627875  -0.817556  0  2.029801  0
O  O65  1  0.46889367  0.32043427  0.50004585  1  0  -0.887274  0  1.833675  0  0  -0.83063  0  2.005979  0  0  -0.849008  0  1.971276  0  0  -0.628068  -0.81747  0  2.030641  0
