# generated using pymatgen
data_AgH10C7IN2
_symmetry_space_group_name_H-M   'P 1'
_cell_length_a   9.25561585
_cell_length_b   9.30545013
_cell_length_c   11.66673007
_cell_angle_alpha   67.12778750
_cell_angle_beta   84.80326629
_cell_angle_gamma   79.74766952
_symmetry_Int_Tables_number   1
_chemical_formula_structural   AgH10C7IN2
_chemical_formula_sum   'Ag4 H40 C28 I4 N8'
_cell_volume   910.78674570
_cell_formula_units_Z   4
loop_
 _symmetry_equiv_pos_site_id
 _symmetry_equiv_pos_as_xyz
  1  'x, y, z'
loop_
 _atom_site_type_symbol
 _atom_site_label
 _atom_site_symmetry_multiplicity
 _atom_site_fract_x
 _atom_site_fract_y
 _atom_site_fract_z
 _atom_site_occupancy
 _atom_site_pbe_bader_spin_density
 _atom_site_pbe_cm5_charge
 _atom_site_pbe_ddec_charge
 _atom_site_pbe_ddec_spin_density
 _atom_site_pbe_ddec_sum_bond_order
 _atom_site_pbe_magmom
Ag  Ag0  1  0.36426737  0.60500968  0.42474522  1  0  0.222483  0.169462  0  2.421317  0
Ag  Ag1  1  0.63572639  0.39499135  0.57525550  1  0  0.222501  0.169521  0  2.421202  0
Ag  Ag2  1  0.86415991  0.58870478  0.42725844  1  0  0.22342  0.176092  0  2.398132  0
Ag  Ag3  1  0.13583584  0.41129750  0.57274006  1  0  0.223407  0.176062  0  2.398213  0
H  H4  1  0.22598609  0.90580775  0.18104905  1  0  0.104109  0.076264  0  1.025674  0
H  H5  1  0.77401779  0.09419119  0.81895253  1  0  0.104112  0.076254  0  1.025712  0
H  H6  1  0.17292550  0.97795278  0.96192343  1  0  0.101429  0.117199  0  1.047064  0
H  H7  1  0.82708250  0.02204746  0.03807748  1  0  0.101421  0.117191  0  1.047086  0
H  H8  1  0.36378263  0.49682433  0.00821926  1  0  0.099929  0.110614  0  1.066226  0
H  H9  1  0.63622410  0.50317706  0.99178052  1  0  0.09991  0.110632  0  1.066285  0
H  H10  1  0.40927385  0.44996197  0.22367315  1  0  0.096606  0.067979  0  1.051233  0
H  H11  1  0.59073455  0.55003591  0.77632760  1  0  0.096608  0.06796  0  1.051247  0
H  H12  1  0.29218114  0.54319508  0.84841724  1  0  0.097917  0.1106  0  1.06097  0
H  H13  1  0.70782076  0.45680262  0.15158570  1  0  0.097917  0.110595  0  1.060963  0
H  H14  1  0.36966263  0.69025644  0.72015116  1  0  0.081048  0.097126  0  1.051562  0
H  H15  1  0.63034037  0.30974129  0.27984998  1  0  0.081006  0.097101  0  1.051555  0
H  H16  1  0.18283313  0.67220095  0.72060943  1  0  0.086173  0.108492  0  1.057476  0
H  H17  1  0.81717072  0.32779798  0.27939473  1  0  0.086182  0.108523  0  1.057452  0
H  H18  1  0.07245678  0.98572775  0.80182660  1  0  0.095318  0.109602  0  1.01526  0
H  H19  1  0.92754407  0.01426993  0.19817470  1  0  0.095309  0.109582  0  1.015263  0
H  H20  1  0.13442406  0.93220723  0.67329504  1  0  0.095582  0.119223  0  1.027045  0
H  H21  1  0.86557571  0.06779041  0.32670634  1  0  0.095576  0.11922  0  1.027011  0
H  H22  1  0.25039298  0.01691220  0.73391912  1  0  0.089001  0.108474  0  1.027615  0
H  H23  1  0.74960727  0.98308901  0.26608113  1  0  0.088996  0.10845  0  1.027621  0
H  H24  1  0.59966378  0.75746356  0.24166609  1  0  0.090017  0.062019  0  1.073294  0
H  H25  1  0.40033111  0.24253752  0.75833112  1  0  0.089937  0.061871  0  1.073308  0
H  H26  1  0.52980539  0.83574315  0.02726595  1  0  0.097688  0.108303  0  1.067827  0
H  H27  1  0.47019099  0.16425561  0.97273016  1  0  0.097694  0.108359  0  1.067776  0
H  H28  1  0.98584283  0.68118446  0.94593008  1  0  0.101729  0.114235  0  1.057976  0
H  H29  1  0.01415526  0.31881669  0.05407033  1  0  0.101705  0.114201  0  1.058004  0
H  H30  1  0.03354625  0.61060759  0.16545913  1  0  0.107004  0.078926  0  1.019335  0
H  H31  1  0.96644928  0.38939586  0.83454074  1  0  0.10696  0.078862  0  1.019337  0
H  H32  1  0.90530718  0.66699590  0.79403542  1  0  0.099162  0.111104  0  1.027723  0
H  H33  1  0.09469093  0.33300527  0.20596242  1  0  0.099151  0.111076  0  1.027723  0
H  H34  1  0.89442660  0.87576509  0.70986037  1  0  0.086647  0.102172  0  1.035288  0
H  H35  1  0.10557062  0.12423486  0.29013961  1  0  0.086632  0.102135  0  1.035336  0
H  H36  1  0.77601247  0.76843011  0.67497872  1  0  0.08924  0.112867  0  1.046097  0
H  H37  1  0.22398691  0.23156990  0.32502024  1  0  0.089245  0.112886  0  1.046003  0
H  H38  1  0.50287013  0.91963504  0.85297063  1  0  0.102076  0.118321  0  1.032203  0
H  H39  1  0.49712750  0.08036255  0.14702919  1  0  0.102094  0.118333  0  1.032201  0
H  H40  1  0.53481850  0.84371479  0.73269091  1  0  0.091401  0.109057  0  1.029141  0
H  H41  1  0.46518090  0.15628522  0.26730719  1  0  0.091404  0.109094  0  1.029173  0
H  H42  1  0.60388913  0.01665026  0.71551312  1  0  0.085472  0.102774  0  1.040984  0
H  H43  1  0.39610937  0.98334854  0.28448713  1  0  0.08548  0.102784  0  1.040977  0
C  C44  1  0.25603911  0.81843620  0.13867569  1  0  0.026756  0.087914  0  4.011584  0
C  C45  1  0.74396626  0.18156042  0.86132479  1  0  0.026737  0.087961  0  4.011515  0
C  C46  1  0.22511173  0.85845744  0.01509534  1  0  -0.111879  -0.262809  0  3.986425  0
C  C47  1  0.77489365  0.14153918  0.98490514  1  0  -0.111844  -0.262776  0  3.986294  0
C  C48  1  0.26085842  0.74364441  0.96045433  1  0  0.114388  0.210858  0  4.047559  0
C  C49  1  0.73914744  0.25635578  0.03954502  1  0  0.11442  0.21089  0  4.0475  0
C  C50  1  0.33009812  0.59301302  0.04031230  1  0  -0.111883  -0.251526  0  3.966002  0
C  C51  1  0.66990751  0.40698834  0.95968927  1  0  -0.111902  -0.251685  0  3.966182  0
C  C52  1  0.35683157  0.56593567  0.16214218  1  0  0.025823  0.094544  0  4.008714  0
C  C53  1  0.64317534  0.43406455  0.83785881  1  0  0.025866  0.094694  0  4.008508  0
C  C54  1  0.27105678  0.66428470  0.78059577  1  0  -0.147897  -0.274851  0  3.9013  0
C  C55  1  0.72894493  0.33571418  0.21940596  1  0  -0.147843  -0.274871  0  3.90122  0
C  C56  1  0.16877446  0.93604010  0.75928567  1  0  -0.146108  -0.280532  0  3.922506  0
C  C57  1  0.83122441  0.06395633  0.24071786  1  0  -0.146058  -0.28046  0  3.922373  0
C  C58  1  0.68280434  0.74281364  0.17287490  1  0  0.023574  0.091616  0  4.006272  0
C  C59  1  0.31718885  0.25719094  0.82712305  1  0  0.023539  0.09162  0  4.00631  0
C  C60  1  0.64389779  0.78687173  0.05087278  1  0  -0.112592  -0.258946  0  3.986278  0
C  C61  1  0.35609749  0.21312698  0.94912599  1  0  -0.11254  -0.258935  0  3.986402  0
C  C62  1  0.75101003  0.76605690  0.96104398  1  0  0.113644  0.207571  0  4.050576  0
C  C63  1  0.24898867  0.23394071  0.03895576  1  0  0.113537  0.207415  0  4.050679  0
C  C64  1  0.89486216  0.69928372  0.00707230  1  0  -0.113698  -0.257602  0  3.967288  0
C  C65  1  0.10513573  0.30071861  0.99292776  1  0  -0.11358  -0.257477  0  3.967169  0
C  C66  1  0.92251080  0.66002437  0.13125151  1  0  0.028627  0.089862  0  4.011051  0
C  C67  1  0.07748384  0.33997787  0.86874878  1  0  0.028637  0.089892  0  4.010926  0
C  C68  1  0.83044760  0.77763651  0.75099669  1  0  -0.144991  -0.275419  0  3.916396  0
C  C69  1  0.16955092  0.22236229  0.24900184  1  0  -0.144964  -0.275373  0  3.916368  0
C  C70  1  0.58297271  0.90061079  0.78364029  1  0  -0.142351  -0.266706  0  3.895111  0
C  C71  1  0.41702581  0.09938802  0.21635739  1  0  -0.142378  -0.266773  0  3.895247  0
I  I72  1  0.57746965  0.73518506  0.49910871  1  0  -0.15997  -0.298162  0  1.970147  0
I  I73  1  0.42252482  0.26481837  0.50088952  1  0  -0.159977  -0.298159  0  1.970193  0
I  I74  1  0.07352671  0.75016017  0.47484624  1  0  -0.172006  -0.288984  0  1.961312  0
I  I75  1  0.92646941  0.24983974  0.52515553  1  0  -0.17201  -0.289009  0  1.961279  0
N  N76  1  0.32175296  0.67482579  0.21386741  1  0  -0.363663  -0.246133  0  3.558069  0
N  N77  1  0.67825052  0.32517551  0.78613261  1  0  -0.363692  -0.246236  0  3.557851  0
N  N78  1  0.22772769  0.77629152  0.84089010  1  0  -0.292483  0.015756  0  3.663224  0
N  N79  1  0.77227490  0.22370857  0.15911206  1  0  -0.292568  0.015742  0  3.66305  0
N  N80  1  0.81977595  0.68000240  0.21573441  1  0  -0.364157  -0.239736  0  3.5499  0
N  N81  1  0.18021890  0.31999867  0.78426538  1  0  -0.364066  -0.239592  0  3.54977  0
N  N82  1  0.71908654  0.80425584  0.84006070  1  0  -0.292575  0.012386  0  3.659735  0
N  N83  1  0.28091108  0.19574174  0.15993997  1  0  -0.292568  0.012428  0  3.659764  0
