# generated using pymatgen
data_TbP4H20Ru2(CO5)4
_symmetry_space_group_name_H-M   'P 1'
_cell_length_a   9.50950914
_cell_length_b   9.51165969
_cell_length_c   15.52400000
_cell_angle_alpha   92.94323541
_cell_angle_beta   92.94390160
_cell_angle_gamma   98.98158740
_symmetry_Int_Tables_number   1
_chemical_formula_structural   TbP4H20Ru2(CO5)4
_chemical_formula_sum   'Tb2 P8 H40 Ru4 C8 O40'
_cell_volume   1382.60668786
_cell_formula_units_Z   2
loop_
 _symmetry_equiv_pos_site_id
 _symmetry_equiv_pos_as_xyz
  1  'x, y, z'
loop_
 _atom_site_type_symbol
 _atom_site_label
 _atom_site_symmetry_multiplicity
 _atom_site_fract_x
 _atom_site_fract_y
 _atom_site_fract_z
 _atom_site_occupancy
 _atom_site_hle17_ddec_charge
 _atom_site_hle17_ddec_spin_density
 _atom_site_hle17_ddec_sum_bond_order
 _atom_site_hle17_magmom
 _atom_site_hse06_10hf_ddec_charge
 _atom_site_hse06_10hf_ddec_spin_density
 _atom_site_hse06_10hf_ddec_sum_bond_order
 _atom_site_hse06_10hf_magmom
 _atom_site_hse06_ddec_charge
 _atom_site_hse06_ddec_spin_density
 _atom_site_hse06_ddec_sum_bond_order
 _atom_site_hse06_magmom
 _atom_site_pbe_bader_charge
 _atom_site_pbe_bader_spin_density
 _atom_site_pbe_cm5_charge
 _atom_site_pbe_ddec_charge
 _atom_site_pbe_ddec_spin_density
 _atom_site_pbe_ddec_sum_bond_order
 _atom_site_pbe_magmom
Tb  Tb0  1  0.99315033  0.00683088  0.74995760  1  2.372146  -0.000429  1.575365  0.0  2.300524  -0.000435  1.903599  0.0  2.339231  -0.000413  1.864004  0.0  2.21952  -0.00019  1.525969  2.274266  -0.000445  1.929911  0.0
Tb  Tb1  1  0.00685515  0.99316971  0.25004014  1  2.371966  -0.000428  1.575395  0.0  2.30039  -0.000435  1.903608  0.0  2.337894  -0.000415  1.865641  0.0  2.219473  -0.00019  1.526023  2.274153  -0.000445  1.929893  0.0
P  P2  1  0.05903430  0.34314336  0.64032852  1  1.351772  -0.001002  4.91916  0.003  1.196773  0.000271  5.432876  0.004  1.246931  -0.000579  5.397279  0.003  3.272537  0.003071  0.319923  1.162563  0.002381  5.454705  0.005
P  P3  1  0.65685121  0.94097843  0.85965638  1  1.351925  -0.001021  4.919336  0.003  1.196947  0.000285  5.432954  0.004  1.247155  -0.000536  5.397314  0.003  3.272869  0.00307  0.319941  1.162613  0.002379  5.454676  0.005
P  P4  1  0.94096030  0.65685509  0.35966044  1  1.352221  -0.000996  4.918863  0.003  1.197188  0.000264  5.43239  0.004  1.246206  -0.001317  5.401199  0.003  3.272913  0.003073  0.320117  1.162994  0.002382  5.454163  0.005
P  P5  1  0.34314577  0.05903495  0.14035954  1  1.352058  -0.001017  4.919467  0.003  1.197116  0.000277  5.432906  0.004  1.246195  -0.001299  5.401535  0.003  3.272949  0.003071  0.320139  1.162796  0.002379  5.454578  0.005
P  P6  1  0.99687487  0.64848764  0.65946214  1  1.366053  -0.000822  4.904406  0.003  1.214589  0.000554  5.41504  0.004  1.263141  -0.000581  5.38469  0.004  3.294356  0.003215  0.326063  1.181064  0.002617  5.435735  0.005
P  P7  1  0.35147400  0.00318405  0.84054443  1  1.366597  -0.000837  4.904325  0.003  1.215356  0.000548  5.41476  0.004  1.263921  -0.000568  5.384381  0.004  3.295062  0.003211  0.325902  1.18136  0.002616  5.435906  0.005
P  P8  1  0.00312015  0.35150015  0.34051812  1  1.366103  -0.000845  4.904778  0.003  1.214633  0.000554  5.415339  0.004  1.263991  -0.000928  5.381052  0.003  3.294246  0.003218  0.32589  1.181105  0.002619  5.436073  0.005
P  P9  1  0.64852927  0.99683573  0.15946673  1  1.366751  -0.000857  4.904177  0.003  1.215511  0.000545  5.414573  0.004  1.2649  -0.000887  5.380165  0.003  3.295388  0.003213  0.326025  1.181486  0.002617  5.435808  0.005
H  H10  1  0.82583276  0.44096268  0.72252522  1  0.383406  3.1e-05  0.823251  0.0  0.367978  0.000154  0.876875  0.0  0.376708  -7.4e-05  0.86768  0.0  0.612982  0.000319  0.331942  0.361907  0.00026  0.883629  0.0
H  H11  1  0.55905594  0.17415325  0.77746153  1  0.383425  3e-05  0.823381  0.0  0.367949  0.000149  0.877038  0.0  0.376654  -7.5e-05  0.867874  0.0  0.612949  0.00032  0.332027  0.361919  0.000261  0.88376  0.0
H  H12  1  0.17416334  0.55901871  0.27745552  1  0.383446  3.7e-05  0.823346  0.0  0.368013  0.000157  0.876965  0.0  0.375423  6.2e-05  0.869051  0.0  0.612884  0.00032  0.332021  0.361965  0.00026  0.883696  0.0
H  H13  1  0.44095759  0.82585160  0.22254949  1  0.383389  3.5e-05  0.823197  0.0  0.36793  0.000152  0.876857  0.0  0.3753  6.2e-05  0.868987  0.0  0.613047  0.000319  0.332056  0.361922  0.00026  0.883558  0.0
H  H14  1  0.41338719  0.67680177  0.54832250  1  0.424973  -4.1e-05  0.814982  0.0  0.412561  5.4e-05  0.865436  0.001  0.420416  5e-06  0.858095  0.0  0.610298  0.000552  0.331092  0.40714  0.000108  0.871028  0.001
H  H15  1  0.32317449  0.58684446  0.95168546  1  0.425409  -5.2e-05  0.814694  0.0  0.412914  3.3e-05  0.865083  0.001  0.420854  -1.7e-05  0.857701  0.0  0.610633  0.000553  0.3308  0.407249  0.000109  0.871176  0.001
H  H16  1  0.58662946  0.32317643  0.45166845  1  0.424732  -4.2e-05  0.815165  0.0  0.412311  5.4e-05  0.865658  0.001  0.419554  -7e-06  0.857685  0.001  0.610214  0.000553  0.331046  0.406907  0.000108  0.871251  0.001
H  H17  1  0.67684702  0.41314440  0.04832852  1  0.424995  -5.3e-05  0.815129  0.0  0.412403  3.4e-05  0.865795  0.001  0.419722  -2.3e-05  0.857755  0.001  0.610478  0.000554  0.330747  0.406747  0.00011  0.871904  0.001
H  H18  1  0.39393495  0.51184450  0.53688834  1  0.435962  -2.6e-05  0.808722  0.0  0.414254  9.7e-05  0.873227  0.0  0.422357  -0.000141  0.864979  0.0  0.633536  0.000578  0.322981  0.407555  0.000172  0.881057  0.0
H  H19  1  0.48816745  0.60629636  0.96314650  1  0.435819  -5.1e-05  0.809308  0.0  0.413423  -4e-06  0.875158  0.0  0.421716  -0.00022  0.866652  0.0  0.632513  0.000579  0.323265  0.407791  0.000172  0.880647  0.0
H  H20  1  0.60599084  0.48812517  0.46316068  1  0.435898  -2e-05  0.808581  0.0  0.414152  0.0001  0.873137  0.0  0.424868  0.00016  0.859586  0.001  0.63315  0.000577  0.32296  0.407415  0.00017  0.881051  0.0
H  H21  1  0.51186071  0.39376074  0.03683248  1  0.435671  -4.5e-05  0.809784  0.0  0.413316  -1e-06  0.875484  0.0  0.424174  8.5e-05  0.861726  0.001  0.633349  0.000578  0.32319  0.40766  0.000171  0.881012  0.0
H  H22  1  0.82686048  0.14217524  0.62028139  1  0.43994  -0.000365  0.853802  0.0  0.413438  -0.00021  0.908768  0.0  0.424596  -0.000198  0.892607  0.0  0.648912  6.6e-05  0.299928  0.406257  -0.000137  0.919316  0.0
H  H23  1  0.85788149  0.17312425  0.87965498  1  0.43979  -0.000351  0.854023  0.0  0.413314  -0.000188  0.908951  0.0  0.424514  -0.000186  0.892738  0.0  0.646266  6.7e-05  0.299855  0.406036  -0.000136  0.919648  0.0
H  H24  1  0.17313467  0.85782002  0.37971650  1  0.439901  -0.000369  0.853838  0.0  0.413434  -0.000211  0.908757  0.0  0.423297  -0.000279  0.893906  0.0  0.647597  6.7e-05  0.299935  0.406278  -0.000137  0.919278  0.0
H  H25  1  0.14212501  0.82688273  0.12034300  1  0.439729  -0.000354  0.854091  0.0  0.413288  -0.000189  0.908968  0.0  0.423154  -0.000272  0.894122  0.0  0.646356  6.7e-05  0.299856  0.406032  -0.000137  0.919642  0.0
H  H26  1  0.71145459  0.07487734  0.68344676  1  0.424001  -5e-06  0.879484  0.0  0.39205  6e-06  0.944701  0.0  0.40254  -1e-06  0.929184  0.0  0.650441  2.5e-05  0.294735  0.384659  1.6e-05  0.955602  0.0
H  H27  1  0.92511920  0.28849634  0.81645510  1  0.423803  -1e-06  0.879837  0.0  0.391703  1.3e-05  0.94531  0.0  0.402175  1e-06  0.929815  0.0  0.651241  2.5e-05  0.294873  0.384614  1.6e-05  0.955692  0.0
H  H28  1  0.28854702  0.92512538  0.31655673  1  0.424044  -5e-06  0.87944  0.0  0.392085  6e-06  0.944665  0.0  0.402876  -2e-06  0.928792  0.0  0.650432  2.5e-05  0.294752  0.384691  1.5e-05  0.955568  0.0
H  H29  1  0.07487663  0.71150318  0.18353458  1  0.423663  -2e-06  0.879997  0.0  0.391633  1.3e-05  0.945383  0.0  0.402409  -1e-06  0.929524  0.0  0.651211  2.5e-05  0.294833  0.38454  1.5e-05  0.955768  0.0
H  H30  1  0.12421555  0.90291703  0.91609780  1  0.443452  -7.9e-05  0.844668  0.0  0.41557  -0.000121  0.902016  0.0  0.425879  0.000157  0.886222  0.0  0.645844  0.00015  0.309512  0.408222  -7.7e-05  0.912966  0.0
H  H31  1  0.09715223  0.87567563  0.58387080  1  0.444038  -9.9e-05  0.843767  0.0  0.415958  -0.00016  0.901456  0.0  0.426266  0.000135  0.885655  0.0  0.644483  0.000151  0.309678  0.408564  -7.7e-05  0.912519  0.0
H  H32  1  0.87578486  0.09707822  0.08390090  1  0.443514  -9e-05  0.844615  0.0  0.415604  -0.000127  0.901998  0.0  0.426664  -0.000307  0.88586  0.0  0.64584  0.000151  0.309539  0.408241  -7.7e-05  0.912959  0.0
H  H33  1  0.90284574  0.12431749  0.41612003  1  0.444135  -0.000111  0.84367  0.0  0.415972  -0.000167  0.901488  0.0  0.427012  -0.000318  0.885376  0.0  0.644784  0.000151  0.309612  0.408551  -7.8e-05  0.912576  0.0
H  H34  1  0.95680221  0.88477671  0.92567770  1  0.448705  -6e-06  0.798507  0.0  0.432142  -3.7e-05  0.848847  0.0  0.44072  5.1e-05  0.836188  0.0  0.607043  -9e-06  0.334477  0.426095  -2e-05  0.856682  0.0
H  H35  1  0.11527244  0.04302728  0.57418076  1  0.449292  -4e-06  0.798224  0.0  0.432716  -6.1e-05  0.848087  0.0  0.44141  9.8e-05  0.835231  0.0  0.606608  -9e-06  0.334459  0.426363  -2e-05  0.856762  0.0
H  H36  1  0.04319339  0.11520148  0.07431130  1  0.448666  -7e-06  0.79849  0.0  0.432109  -3.9e-05  0.848871  0.0  0.440729  -4.2e-05  0.8363  0.0  0.607112  -9e-06  0.334484  0.42606  -2e-05  0.856649  0.0
H  H37  1  0.88470817  0.95696265  0.42579654  1  0.449425  -7e-06  0.797886  0.0  0.432839  -6.4e-05  0.847895  0.0  0.44138  -7.8e-05  0.835436  0.0  0.606742  -9e-06  0.334488  0.42649  -2e-05  0.856434  0.0
H  H38  1  0.17159381  0.43496354  0.82021561  1  0.127112  5.6e-05  0.924979  0.0  0.148028  8e-05  0.982981  0.0  0.150661  -1e-06  0.981769  0.0  0.057161  0.000294  0.103305  0.14632  0.000116  0.983901  0.0
H  H39  1  0.56497849  0.82843850  0.67979917  1  0.127113  6.1e-05  0.924981  0.0  0.147946  8.9e-05  0.983095  0.0  0.150639  1.2e-05  0.981817  0.0  0.057484  0.000294  0.103339  0.146316  0.000116  0.983965  0.0
H  H40  1  0.82840358  0.56503918  0.17977486  1  0.127088  5.7e-05  0.925006  0.0  0.147984  8.1e-05  0.983036  0.0  0.149442  3.6e-05  0.98229  0.0  0.056848  0.000295  0.103309  0.146296  0.000117  0.983944  0.0
H  H41  1  0.43501734  0.17156102  0.32021563  1  0.12722  6.2e-05  0.924892  0.0  0.14799  9e-05  0.983088  0.0  0.149481  4.6e-05  0.982313  0.0  0.057166  0.000295  0.103339  0.146379  0.000116  0.983953  0.0
H  H42  1  0.14439689  0.61914344  0.82683562  1  0.127036  -3.1e-05  0.933586  0.0  0.145424  7e-06  0.996265  0.0  0.147296  -6.4e-05  0.99583  0.0  0.077255  0.000168  0.098417  0.143427  2.6e-05  0.99747  0.0
H  H43  1  0.38076084  0.85564898  0.67318291  1  0.127181  -3.1e-05  0.933559  0.0  0.145435  7e-06  0.996383  0.0  0.147369  -6.3e-05  0.995886  0.0  0.07671  0.000168  0.098539  0.143642  2.5e-05  0.997368  0.0
H  H44  1  0.85558474  0.38085288  0.17315479  1  0.127073  -2.9e-05  0.93352  0.0  0.145432  8e-06  0.99623  0.0  0.148322  -1e-06  0.994213  0.0  0.0777  0.000169  0.098389  0.143417  2.6e-05  0.997463  0.0
H  H45  1  0.61923597  0.14436333  0.32682911  1  0.12717  -2.9e-05  0.933686  0.0  0.145436  8e-06  0.996469  0.0  0.148383  0.0  0.994385  0.0  0.076881  0.000169  0.098505  0.14362  2.6e-05  0.997491  0.0
H  H46  1  0.25886224  0.55888116  0.75031941  1  0.115695  1.5e-05  0.943214  0.0  0.137532  0.000103  1.003354  0.0  0.13771  5.5e-05  1.00449  0.0  0.066128  0.000295  0.098683  0.136732  0.000146  1.003328  0.0
H  H47  1  0.44103540  0.74121526  0.74970630  1  0.115389  1.4e-05  0.943334  0.0  0.137352  0.000102  1.003332  0.0  0.137518  5.6e-05  1.00449  0.0  0.066721  0.000295  0.098587  0.136638  0.000146  1.003251  0.0
H  H48  1  0.74113074  0.44112689  0.24967238  1  0.115726  1.2e-05  0.943206  0.0  0.137532  0.000102  1.003374  0.0  0.139112  -9e-06  1.003102  0.0  0.065944  0.000296  0.09865  0.136703  0.000147  1.003379  0.0
H  H49  1  0.55894987  0.25879066  0.25030772  1  0.115587  1.2e-05  0.943274  0.0  0.137451  0.000101  1.003374  0.0  0.139032  -8e-06  1.003122  0.0  0.066939  0.000296  0.098592  0.136711  0.000147  1.003317  0.0
Ru  Ru50  1  0.12167370  0.54166961  0.49737831  1  0.989121  1.452681  3.187908  1.367  0.930148  1.42041  3.758437  1.339  1.010404  1.540177  3.672846  1.457  1.269051  1.33187  0.780577  0.889315  1.401862  3.798284  1.312
Ru  Ru51  1  0.45830338  0.87836597  0.00262350  1  0.988017  1.452684  3.189569  1.367  0.928708  1.420556  3.760494  1.339  1.00996  1.541869  3.673988  1.458  1.268874  1.3318  0.780417  0.888765  1.401839  3.799426  1.312
Ru  Ru52  1  0.87832003  0.45832991  0.50261130  1  0.987765  1.445341  3.189048  1.36  0.92964  1.416639  3.759085  1.335  0.977967  1.342505  3.707812  1.278  1.272986  1.331768  0.780506  0.889224  1.401611  3.798327  1.312
Ru  Ru53  1  0.54170974  0.12164955  0.99738976  1  0.986614  1.446264  3.190653  1.361  0.928483  1.417397  3.76104  1.336  0.976157  1.342068  3.710234  1.277  1.27255  1.331855  0.780454  0.88883  1.401765  3.799467  1.312
C  C54  1  0.03450541  0.49219000  0.71722193  1  -0.181037  -0.001756  3.662414  -0.002  -0.144202  -0.001152  3.920347  -0.001  -0.152409  -0.000569  3.934942  0.0  -0.400641  3.9e-05  0.051528  -0.138783  -0.000912  3.911246  -0.001
C  C55  1  0.50778610  0.96553163  0.78278698  1  -0.181308  -0.001775  3.662746  -0.002  -0.144509  -0.001196  3.920431  -0.001  -0.152738  -0.000528  3.935012  0.0  -0.400791  3.9e-05  0.051437  -0.139222  -0.000911  3.912172  -0.001
C  C56  1  0.96548692  0.50780739  0.28277014  1  -0.181427  -0.00173  3.662454  -0.002  -0.144315  -0.001141  3.91987  -0.001  -0.151946  -0.000153  3.932814  0.0  -0.400324  3.6e-05  0.051566  -0.138905  -0.000911  3.910814  -0.001
C  C57  1  0.49221757  0.03447748  0.21722772  1  -0.181729  -0.001753  3.663341  -0.002  -0.14477  -0.001187  3.920755  -0.001  -0.152455  -0.000144  3.933697  0.0  -0.401319  3.8e-05  0.051335  -0.139479  -0.000911  3.912495  -0.001
C  C58  1  0.16040272  0.52879800  0.78342885  1  -0.299825  0.000575  3.695376  0.001  -0.386137  0.000789  3.941396  0.001  -0.388813  0.000194  3.95327  0.0  -0.104279  0.001236  -0.233783  -0.384836  0.000912  3.93523  0.001
C  C59  1  0.47112706  0.83964664  0.71658980  1  -0.2998  0.00058  3.695004  0.001  -0.386122  0.000794  3.940998  0.001  -0.388826  0.000201  3.952843  0.0  -0.10525  0.001237  -0.233865  -0.384848  0.000912  3.934699  0.001
C  C60  1  0.83958557  0.47120046  0.21656056  1  -0.299557  0.00059  3.694884  0.001  -0.385875  0.000795  3.940828  0.001  -0.386266  0.000409  3.948553  0.001  -0.104622  0.001237  -0.233729  -0.38462  0.000912  3.934747  0.001
C  C61  1  0.52886486  0.16036141  0.28342579  1  -0.299815  0.000593  3.695284  0.001  -0.386094  0.000799  3.941261  0.001  -0.38649  0.000418  3.948973  0.001  -0.104425  0.001237  -0.233737  -0.384861  0.000913  3.935034  0.001
O  O62  1  0.17933526  0.39779465  0.58033916  1  -0.732817  0.012577  2.040984  0.015  -0.671657  0.019642  2.312856  0.021  -0.689625  0.02529  2.279985  0.029  -1.34194  0.037128  -0.369508  -0.651741  0.022343  2.323659  0.023
O  O63  1  0.60219945  0.82070445  0.91964851  1  -0.733413  0.012703  2.041233  0.015  -0.672103  0.019741  2.313202  0.022  -0.690067  0.025406  2.280262  0.029  -1.341845  0.037078  -0.369537  -0.651771  0.022309  2.323391  0.023
O  O64  1  0.82066111  0.60220167  0.41964593  1  -0.7339  0.01175  2.041951  0.014  -0.672276  0.019253  2.313452  0.021  -0.714948  0.004489  2.311339  0.006  -1.341726  0.037109  -0.369636  -0.651939  0.022336  2.323734  0.023
O  O65  1  0.39780983  0.17930680  0.08036386  1  -0.734183  0.011972  2.042059  0.014  -0.672531  0.019398  2.313683  0.021  -0.715221  0.004545  2.311679  0.006  -1.341498  0.037075  -0.36959  -0.651835  0.02231  2.323425  0.023
O  O66  1  0.91263362  0.30529842  0.58527165  1  -0.769978  0.017435  2.115194  0.022  -0.702488  0.020625  2.388133  0.022  -0.744056  0.007742  2.382621  0.009  -1.349925  0.037232  -0.36764  -0.681406  0.023146  2.397697  0.023
O  O67  1  0.69475644  0.08732988  0.91472069  1  -0.769983  0.017376  2.115123  0.021  -0.702615  0.020513  2.388064  0.022  -0.74416  0.007744  2.382695  0.009  -1.349991  0.03725  -0.367636  -0.681283  0.023152  2.397535  0.023
O  O68  1  0.08736119  0.69469470  0.41471908  1  -0.769416  0.017924  2.114279  0.022  -0.702249  0.020936  2.387553  0.022  -0.724624  0.023073  2.359338  0.025  -1.350134  0.037257  -0.367703  -0.681506  0.02316  2.397515  0.023
O  O69  1  0.30524917  0.91267817  0.08528825  1  -0.769642  0.017803  2.11448  0.022  -0.702486  0.020783  2.387654  0.022  -0.724829  0.023021  2.359313  0.025  -1.350059  0.037263  -0.367759  -0.681447  0.023158  2.397469  0.023
O  O70  1  0.08973968  0.21996151  0.69121201  1  -0.873873  -0.0035  2.010714  -0.003  -0.808256  -0.002068  2.271051  -0.002  -0.834001  -0.001136  2.251674  -0.001  -1.445964  -0.001096  -0.43856  -0.790901  -0.001801  2.283449  -0.001
O  O71  1  0.78001262  0.91024375  0.80873525  1  -0.87457  -0.00353  2.010299  -0.003  -0.80918  -0.002005  2.270753  -0.002  -0.835151  -0.001506  2.251453  -0.001  -1.445659  -0.001095  -0.438647  -0.790823  -0.001799  2.283187  -0.001
O  O72  1  0.91026056  0.78003268  0.30878086  1  -0.873924  -0.003488  2.010723  -0.003  -0.808323  -0.002072  2.271086  -0.002  -0.833912  -0.001271  2.252808  -0.001  -1.445991  -0.001096  -0.438602  -0.790974  -0.001801  2.283474  -0.001
O  O73  1  0.22000146  0.08975790  0.19126924  1  -0.874343  -0.003505  2.010723  -0.003  -0.809005  -0.001997  2.271156  -0.002  -0.834567  -0.001301  2.252734  -0.001  -1.44604  -0.001094  -0.438627  -0.790657  -0.001797  2.283584  -0.001
O  O74  1  0.12159615  0.68924364  0.59829663  1  -0.763769  0.013434  2.092952  0.016  -0.698441  0.018412  2.366358  0.019  -0.722635  0.020552  2.341657  0.023  -1.347972  0.033955  -0.362543  -0.677269  0.020731  2.374825  0.021
O  O75  1  0.31068496  0.87848753  0.90170968  1  -0.764053  0.013415  2.093013  0.016  -0.698867  0.018417  2.366433  0.019  -0.723014  0.020606  2.341613  0.023  -1.347902  0.033942  -0.362321  -0.677084  0.020733  2.374489  0.021
O  O76  1  0.87840077  0.31074948  0.40169159  1  -0.764401  0.012927  2.093415  0.015  -0.69868  0.018143  2.36645  0.019  -0.739703  0.006949  2.362864  0.008  -1.347959  0.033936  -0.362452  -0.677203  0.02072  2.374551  0.021
O  O77  1  0.68932028  0.12152479  0.09830259  1  -0.764603  0.012973  2.093845  0.015  -0.699162  0.018184  2.366931  0.019  -0.740078  0.007021  2.363373  0.008  -1.347828  0.033919  -0.362353  -0.677121  0.020731  2.374667  0.021
O  O78  1  0.85463490  0.59378090  0.60474254  1  -0.724845  0.018074  2.013654  0.023  -0.668812  0.022474  2.28482  0.025  -0.710866  0.007496  2.281848  0.009  -1.32679  0.041663  -0.368482  -0.648167  0.025444  2.294263  0.027
O  O79  1  0.40622040  0.14538167  0.89527490  1  -0.724757  0.018169  2.013175  0.023  -0.66886  0.022567  2.284315  0.025  -0.710933  0.007565  2.281506  0.01  -1.326923  0.041685  -0.368566  -0.648068  0.025457  2.293832  0.027
O  O80  1  0.14536388  0.40622395  0.39524675  1  -0.724013  0.018791  2.012527  0.023  -0.668441  0.022875  2.284054  0.025  -0.68735  0.027604  2.253528  0.032  -1.326794  0.041686  -0.368437  -0.648198  0.025462  2.293973  0.027
O  O81  1  0.59377975  0.85463171  0.10473919  1  -0.724083  0.018799  2.012526  0.023  -0.668521  0.022917  2.283958  0.026  -0.687449  0.027608  2.253387  0.032  -1.326749  0.04169  -0.368535  -0.648085  0.025466  2.293897  0.027
O  O82  1  0.98473350  0.76768251  0.72467110  1  -0.875249  -0.003566  2.007097  -0.003  -0.818084  -0.002143  2.275601  -0.002  -0.84332  -0.00172  2.256697  -0.001  -1.442224  -0.001223  -0.454152  -0.801223  -0.001961  2.288734  -0.002
O  O83  1  0.23230667  0.01535508  0.77533340  1  -0.875954  -0.003577  2.008288  -0.003  -0.819115  -0.002128  2.276935  -0.002  -0.844473  -0.001759  2.257984  -0.001  -1.442915  -0.001219  -0.454061  -0.801387  -0.001956  2.289829  -0.002
O  O84  1  0.01526247  0.23232448  0.27532397  1  -0.875062  -0.003572  2.007847  -0.003  -0.818012  -0.00214  2.276442  -0.002  -0.841975  -0.00166  2.255254  -0.001  -1.442569  -0.001221  -0.454049  -0.801174  -0.001958  2.289622  -0.002
O  O85  1  0.76770118  0.98466044  0.22468356  1  -0.87591  -0.003588  2.00795  -0.003  -0.819082  -0.002128  2.27658  -0.002  -0.843105  -0.001718  2.2553  -0.001  -1.443042  -0.001218  -0.454164  -0.801378  -0.001955  2.289516  -0.002
O  O86  1  0.90797966  0.44385669  0.76369265  1  -0.490946  0.001365  2.051645  0.002  -0.43616  0.001864  2.238608  0.002  -0.449732  0.000698  2.228018  0.001  -1.086932  0.003621  -0.358303  -0.42629  0.002228  2.245774  0.003
O  O87  1  0.55612520  0.09200891  0.73630268  1  -0.490862  0.001372  2.051971  0.002  -0.436035  0.001865  2.238902  0.002  -0.449541  0.000702  2.228296  0.001  -1.086932  0.00362  -0.358223  -0.426153  0.002227  2.246283  0.003
O  O88  1  0.09201444  0.55613857  0.23629104  1  -0.491069  0.001349  2.052058  0.002  -0.436277  0.001862  2.238897  0.002  -0.451915  0.000724  2.230636  0.001  -1.086741  0.003622  -0.358351  -0.426365  0.002229  2.24602  0.003
O  O89  1  0.44387956  0.90799381  0.26370863  1  -0.490782  0.001357  2.051946  0.002  -0.435975  0.001863  2.23882  0.002  -0.45156  0.000728  2.230529  0.001  -1.087199  0.003619  -0.358224  -0.426056  0.002227  2.246156  0.003
O  O90  1  0.38162661  0.59702786  0.50619080  1  -0.746812  -0.000896  1.801418  -0.003  -0.705815  0.002139  1.965931  -0.002  -0.729627  0.001549  1.947966  -0.001  -1.18597  0.006246  -0.551488  -0.69265  0.002444  1.982497  -0.002
O  O91  1  0.40295265  0.61855057  0.99383876  1  -0.745806  -0.001395  1.802752  -0.004  -0.704185  0.001789  1.968282  -0.002  -0.728288  0.001108  1.950208  -0.001  -1.18523  0.006268  -0.551457  -0.692812  0.002455  1.982591  -0.002
O  O92  1  0.61839928  0.40292900  0.49381651  1  -0.746149  -0.000948  1.801413  -0.003  -0.705194  0.002136  1.966147  -0.002  -0.720032  0.001093  1.937176  -0.004  -1.185465  0.006248  -0.55142  -0.692218  0.002443  1.982882  -0.002
O  O93  1  0.59708778  0.38144469  0.00616506  1  -0.744986  -0.001439  1.803408  -0.004  -0.703424  0.001788  1.969092  -0.002  -0.718366  0.000697  1.939944  -0.004  -1.185844  0.006272  -0.551337  -0.692214  0.002455  1.983549  -0.002
O  O94  1  0.79969190  0.05949133  0.65554093  1  -0.920899  -0.000344  1.836753  0.0  -0.884135  -3.7e-05  2.008522  0.0  -0.901956  3.7e-05  1.974565  0.0  -1.293774  0.000293  -0.646883  -0.871733  0.000103  2.030846  0.0
O  O95  1  0.94051123  0.20026115  0.84433928  1  -0.920907  -0.000344  1.837832  0.0  -0.884025  0.0  2.00963  0.0  -0.901845  6.1e-05  1.975674  0.0  -1.291891  0.000292  -0.646875  -0.871291  0.000103  2.031462  0.0
O  O96  1  0.20030692  0.94050712  0.34446169  1  -0.920908  -0.000359  1.836775  0.0  -0.884151  -4.1e-05  2.008492  0.0  -0.901354  -0.000307  1.976576  0.0  -1.292471  0.000291  -0.646889  -0.871763  0.000102  2.030777  0.0
O  O97  1  0.05948739  0.79974263  0.15565255  1  -0.920731  -0.000357  1.838056  0.0  -0.883937  -4e-06  2.009679  0.0  -0.901181  -0.000315  1.977862  0.0  -1.291828  0.000291  -0.646852  -0.871213  0.000102  2.031473  0.0
O  O98  1  0.03689118  0.94294580  0.90157585  1  -0.881871  0.000175  1.838412  0.0  -0.845035  0.000131  2.015631  0.0  -0.859497  0.000644  1.983865  0.001  -1.230826  0.000499  -0.61493  -0.833622  0.000209  2.036579  0.0
O  O99  1  0.05714926  0.96301191  0.59837333  1  -0.882779  0.000187  1.837774  0.0  -0.84588  9.3e-05  2.01485  0.0  -0.860348  0.000636  1.982834  0.001  -1.229024  0.000499  -0.614906  -0.834171  0.000209  2.035994  0.0
O  O100  1  0.96310612  0.05704305  0.09841997  1  -0.881938  0.000158  1.838356  0.0  -0.845055  0.000119  2.015634  0.0  -0.863102  -0.000149  1.982938  0.0  -1.230979  0.000499  -0.614938  -0.833585  0.000209  2.036544  0.0
O  O101  1  0.94285799  0.03698655  0.40162698  1  -0.883034  0.000168  1.837329  0.0  -0.846056  8e-05  2.01456  0.0  -0.864036  -0.000102  1.981856  0.0  -1.229452  0.000498  -0.614852  -0.834277  0.000209  2.035605  0.0
