# generated using pymatgen
data_AgH19C23S(NO2)2
_symmetry_space_group_name_H-M   'P 1'
_cell_length_a   7.25597658
_cell_length_b   10.87770183
_cell_length_c   13.19076670
_cell_angle_alpha   103.13256024
_cell_angle_beta   104.60616235
_cell_angle_gamma   93.70577448
_symmetry_Int_Tables_number   1
_chemical_formula_structural   AgH19C23S(NO2)2
_chemical_formula_sum   'Ag2 H38 C46 S2 N4 O8'
_cell_volume   972.88304850
_cell_formula_units_Z   2
loop_
 _symmetry_equiv_pos_site_id
 _symmetry_equiv_pos_as_xyz
  1  'x, y, z'
loop_
 _atom_site_type_symbol
 _atom_site_label
 _atom_site_symmetry_multiplicity
 _atom_site_fract_x
 _atom_site_fract_y
 _atom_site_fract_z
 _atom_site_occupancy
 _atom_site_hle17_bader_spin_density
 _atom_site_hle17_ddec_charge
 _atom_site_hle17_ddec_spin_density
 _atom_site_hle17_ddec_sum_bond_order
 _atom_site_hle17_magmom
 _atom_site_hse06_10hf_bader_spin_density
 _atom_site_hse06_10hf_ddec_charge
 _atom_site_hse06_10hf_ddec_spin_density
 _atom_site_hse06_10hf_ddec_sum_bond_order
 _atom_site_hse06_10hf_magmom
 _atom_site_hse06_bader_spin_density
 _atom_site_hse06_ddec_charge
 _atom_site_hse06_ddec_spin_density
 _atom_site_hse06_ddec_sum_bond_order
 _atom_site_hse06_magmom
 _atom_site_pbe_bader_spin_density
 _atom_site_pbe_cm5_charge
 _atom_site_pbe_ddec_charge
 _atom_site_pbe_ddec_spin_density
 _atom_site_pbe_ddec_sum_bond_order
 _atom_site_pbe_magmom
Ag  Ag0  1  0.32294115  0.04572735  0.51975825  1  0  0.501174  0  1.483969  0  0  0.352914  0  1.942396  0  0  0.382853  0  1.896688  0  0  0.466273  0.332539  0  1.97369  0
Ag  Ag1  1  0.67704202  0.95427717  0.48023451  1  0  0.501218  0  1.483914  0  0  0.352949  0  1.942342  0  0  0.382888  0  1.896634  0  0  0.466279  0.332576  0  1.973645  0
H  H2  1  0.99598805  0.77894615  0.13830677  1  0  0.085469  0  0.925025  0  0  0.104624  0  0.986742  0  0  0.103944  0  0.988692  0  0  0.096446  0.104968  0  0.985391  0
H  H3  1  0.00402015  0.22105635  0.86169759  1  0  0.085529  0  0.924971  0  0  0.104673  0  0.986664  0  0  0.103995  0  0.98861  0  0  0.096433  0.105009  0  0.985326  0
H  H4  1  0.81722413  0.81994297  0.20355997  1  0  0.083415  0  0.927497  0  0  0.10636  0  0.981553  0  0  0.106507  0  0.98211  0  0  0.097589  0.106215  0  0.981019  0
H  H5  1  0.18278372  0.18005764  0.79644247  1  0  0.083504  0  0.927625  0  0  0.106344  0  0.981758  0  0  0.106489  0  0.98232  0  0  0.097578  0.106198  0  0.981221  0
H  H6  1  0.72084251  0.83866331  0.01352778  1  0  0.071007  0  0.977812  0  0  0.089162  0  1.041064  0  0  0.087836  0  1.045592  0  0  0.09065  0.090065  0  1.037826  0
H  H7  1  0.27917193  0.16133445  0.98647355  1  0  0.070928  0  0.977876  0  0  0.089149  0  1.041029  0  0  0.087823  0  1.045561  0  0  0.090625  0.09005  0  1.037799  0
H  H8  1  0.56157414  0.71968409  0.03016532  1  0  0.066479  0  0.958674  0  0  0.084978  0  1.022732  0  0  0.085313  0  1.023677  0  0  0.087619  0.084693  0  1.022126  0
H  H9  1  0.43843671  0.28031746  0.96983925  1  0  0.06651  0  0.958582  0  0  0.085011  0  1.022649  0  0  0.085346  0  1.023594  0  0  0.087646  0.084729  0  1.022038  0
H  H10  1  0.65422964  0.64730566  0.86096033  1  0  0.091904  0  0.940669  0  0  0.11089  0  0.997486  0  0  0.111772  0  0.997069  0  0  0.097748  0.110144  0  0.998009  0
H  H11  1  0.34577168  0.35269113  0.13904345  1  0  0.091893  0  0.940652  0  0  0.110934  0  0.997437  0  0  0.111811  0  0.997017  0  0  0.097754  0.110192  0  0.997966  0
H  H12  1  0.89959591  0.67617764  0.93218521  1  0  0.091563  0  0.927919  0  0  0.111257  0  0.987794  0  0  0.110685  0  0.989737  0  0  0.098662  0.111692  0  0.986306  0
H  H13  1  0.10040618  0.32381537  0.06781417  1  0  0.091542  0  0.927911  0  0  0.111236  0  0.987803  0  0  0.110663  0  0.989737  0  0  0.098666  0.111676  0  0.986322  0
H  H14  1  0.08412201  0.83960065  0.32682095  1  0  0.102045  0  0.983721  0  0  0.108803  0  1.050699  0  0  0.111398  0  1.048474  0  0  0.118018  0.106795  0  1.05239  0
H  H15  1  0.91586343  0.16040191  0.67317935  1  0  0.102147  0  0.983662  0  0  0.10882  0  1.05074  0  0  0.111397  0  1.048556  0  0  0.118048  0.106811  0  1.052428  0
H  H16  1  0.15794070  0.90226898  0.65597335  1  0  0.104155  0  0.943872  0  0  0.115262  0  1.0015  0  0  0.117506  0  0.99914  0  0  0.122875  0.113478  0  1.003312  0
H  H17  1  0.84205000  0.09773834  0.34402710  1  0  0.104158  0  0.943897  0  0  0.115293  0  1.001509  0  0  0.117539  0  0.999146  0  0  0.122851  0.113508  0  1.003323  0
H  H18  1  0.95379659  0.69780958  0.63347991  1  0  0.115285  0  0.9346  0  0  0.129086  0  0.985927  0  0  0.131645  0  0.985898  0  0  0.114836  0.127104  0  0.98637  0
H  H19  1  0.04619758  0.30219391  0.36652184  1  0  0.115301  0  0.934665  0  0  0.129077  0  0.986014  0  0  0.131635  0  0.985987  0  0  0.114826  0.127095  0  0.986463  0
H  H20  1  0.82807801  0.55133712  0.44568271  1  0  0.090476  0  0.951217  0  0  0.103183  0  1.010698  0  0  0.105682  0  1.009387  0  0  0.10509  0.101427  0  1.011579  0
H  H21  1  0.17192208  0.44866063  0.55432108  1  0  0.090461  0  0.951283  0  0  0.103149  0  1.010772  0  0  0.105647  0  1.00946  0  0  0.105142  0.101391  0  1.011649  0
H  H22  1  0.83644286  0.49709517  0.26253678  1  0  0.100938  0  0.953348  0  0  0.110124  0  1.017004  0  0  0.114368  0  1.013309  0  0  0.104031  0.107124  0  1.01953  0
H  H23  1  0.16354855  0.50290166  0.73746330  1  0  0.100977  0  0.9533  0  0  0.110146  0  1.016966  0  0  0.114397  0  1.013274  0  0  0.10401  0.10714  0  1.019498  0
H  H24  1  0.52537984  0.18801586  0.74215060  1  0  0.09574  0  0.962413  0  0  0.104391  0  1.027602  0  0  0.107058  0  1.024984  0  0  0.117709  0.10204  0  1.030022  0
H  H25  1  0.47459848  0.81198671  0.25784866  1  0  0.095783  0  0.962407  0  0  0.104388  0  1.027652  0  0  0.107047  0  1.025049  0  0  0.117706  0.102084  0  1.030016  0
H  H26  1  0.48621422  0.27865084  0.44914146  1  0  0.095703  0  0.963215  0  0  0.102509  0  1.030083  0  0  0.105585  0  1.026988  0  0  0.114799  0.100207  0  1.032313  0
H  H27  1  0.51377982  0.72135171  0.55085781  1  0  0.095662  0  0.963168  0  0  0.10246  0  1.03006  0  0  0.105537  0  1.026965  0  0  0.114804  0.100156  0  1.032297  0
H  H28  1  0.66818191  0.49518240  0.54393643  1  0  0.091364  0  0.977109  0  0  0.104712  0  1.035039  0  0  0.106601  0  1.036007  0  0  0.103865  0.103394  0  1.034465  0
H  H29  1  0.33180267  0.50482301  0.45606429  1  0  0.0914  0  0.977206  0  0  0.104698  0  1.035154  0  0  0.106577  0  1.03615  0  0  0.103804  0.103381  0  1.034579  0
H  H30  1  0.77455626  0.56210673  0.74441514  1  0  0.11567  0  0.941354  0  0  0.127597  0  0.998119  0  0  0.13054  0  0.995594  0  0  0.117533  0.125038  0  1.000639  0
H  H31  1  0.22542183  0.43789488  0.25558542  1  0  0.115679  0  0.941236  0  0  0.127616  0  0.997996  0  0  0.13056  0  0.995471  0  0  0.117508  0.125062  0  1.000519  0
H  H32  1  0.69726786  0.31854469  0.90885491  1  0  0.098053  0  0.97386  0  0  0.104129  0  1.047649  0  0  0.10735  0  1.045436  0  0  0.10431  0.10224  0  1.048432  0
H  H33  1  0.30272749  0.68145023  0.09114386  1  0  0.098036  0  0.973873  0  0  0.104122  0  1.047628  0  0  0.107334  0  1.045441  0  0  0.10433  0.10223  0  1.048408  0
H  H34  1  0.98100431  0.13064509  0.20413450  1  0  0.095782  0  0.980505  0  0  0.105988  0  1.04458  0  0  0.10916  0  1.04239  0  0  0.100899  0.103653  0  1.046252  0
H  H35  1  0.01900229  0.86935558  0.79586094  1  0  0.09577  0  0.980585  0  0  0.10597  0  1.044672  0  0  0.109145  0  1.042479  0  0  0.100912  0.103639  0  1.046335  0
H  H36  1  0.47860787  0.92118545  0.08739026  1  0  0.098654  0  0.982643  0  0  0.10799  0  1.048431  0  0  0.110714  0  1.047583  0  0  0.102632  0.105996  0  1.04894  0
H  H37  1  0.52139784  0.07881715  0.91260011  1  0  0.098777  0  0.982646  0  0  0.108103  0  1.048411  0  0  0.110827  0  1.047564  0  0  0.102708  0.106106  0  1.048927  0
H  H38  1  0.34602940  0.83415595  0.88735456  1  0  0.105712  0  0.927689  0  0  0.118078  0  0.980909  0  0  0.121376  0  0.979178  0  0  0.107908  0.115598  0  0.982493  0
H  H39  1  0.65398130  0.16585045  0.11263877  1  0  0.105772  0  0.927698  0  0  0.118157  0  0.980877  0  0  0.121454  0  0.979148  0  0  0.107971  0.115676  0  0.982464  0
C  C40  1  0.78434202  0.50194069  0.07108383  1  0  0.350535  0  3.719178  0  0  0.335729  0  3.976535  0  0  0.358395  0  3.982948  0  0  0.149505  0.320379  0  3.972224  0
C  C41  1  0.21567549  0.49805133  0.92891914  1  0  0.350582  0  3.719331  0  0  0.335833  0  3.976674  0  0  0.35866  0  3.982841  0  0  0.149595  0.320467  0  3.97238  0
C  C42  1  0.83711520  0.61928837  0.16296609  1  0  -0.007383  0  3.655297  0  0  0.011277  0  3.899737  0  0  0.002714  0  3.925672  0  0  -0.013249  0.016598  0  3.882516  0
C  C43  1  0.16289430  0.38071320  0.83703525  1  0  -0.007218  0  3.655609  0  0  0.011396  0  3.900012  0  0  0.002789  0  3.92592  0  0  -0.013204  0.016702  0  3.882819  0
C  C44  1  0.84831389  0.74765615  0.13893356  1  0  -0.140826  0  3.714901  0  0  -0.184823  0  3.965397  0  0  -0.184496  0  3.980228  0  0  -0.161264  -0.184661  0  3.954858  0
C  C45  1  0.15169973  0.25233778  0.86106920  1  0  -0.14124  0  3.715401  0  0  -0.185104  0  3.965775  0  0  -0.18478  0  3.980617  0  0  -0.161311  -0.184924  0  3.955225  0
C  C46  1  0.71070770  0.74422517  0.02950047  1  0  -0.102894  0  3.680305  0  0  -0.143639  0  3.936375  0  0  -0.144799  0  3.950648  0  0  -0.168447  -0.142864  0  3.926566  0
C  C47  1  0.28930097  0.25577258  0.97050306  1  0  -0.10275  0  3.680427  0  0  -0.143504  0  3.936415  0  0  -0.14468  0  3.950699  0  0  -0.168395  -0.142724  0  3.926605  0
C  C48  1  0.75484316  0.64696902  0.93858148  1  0  -0.148797  0  3.711813  0  0  -0.192324  0  3.960354  0  0  -0.192286  0  3.974627  0  0  -0.163182  -0.192175  0  3.950572  0
C  C49  1  0.24516818  0.35302777  0.06142150  1  0  -0.148709  0  3.711849  0  0  -0.192315  0  3.960528  0  0  -0.192252  0  3.974778  0  0  -0.163161  -0.192173  0  3.950764  0
C  C50  1  0.74674614  0.51596822  0.95735092  1  0  0.00395  0  3.640112  0  0  0.022744  0  3.884497  0  0  0.015445  0  3.908199  0  0  -0.007364  0.02756  0  3.868399  0
C  C51  1  0.25326087  0.48402856  0.04265370  1  0  0.003899  0  3.640088  0  0  0.022617  0  3.884585  0  0  0.015263  0  3.908255  0  0  -0.007452  0.027445  0  3.868483  0
C  C52  1  0.93751712  0.68400049  0.36932359  1  0  0.039218  0  3.828751  0  0  0.06407  0  4.063786  0  0  0.059204  0  4.08926  0  0  -0.008705  0.067086  0  4.046491  0
C  C53  1  0.06248192  0.31599917  0.63068041  1  0  0.039074  0  3.82876  0  0  0.063944  0  4.063741  0  0  0.059081  0  4.089211  0  0  -0.008744  0.066969  0  4.04643  0
C  C54  1  0.04799443  0.80269531  0.39045417  1  0  0.072267  0  3.630498  0  0  0.032614  0  3.877052  0  0  0.040206  0  3.893312  0  0  0.046284  0.027873  0  3.865969  0
C  C55  1  0.95199792  0.19730627  0.60954771  1  0  0.072341  0  3.630358  0  0  0.032763  0  3.876879  0  0  0.04035  0  3.893124  0  0  0.046341  0.028021  0  3.865789  0
C  C56  1  0.09079314  0.83897986  0.57645360  1  0  0.12935  0  3.663768  0  0  0.095527  0  3.912344  0  0  0.1039  0  3.929151  0  0  0.049529  0.089859  0  3.901244  0
C  C57  1  0.90919772  0.16102171  0.42355033  1  0  0.129337  0  3.663954  0  0  0.095468  0  3.912539  0  0  0.10384  0  3.929344  0  0  0.04949  0.089797  0  3.901441  0
C  C58  1  0.98110451  0.72341663  0.56295274  1  0  -0.114044  0  3.742476  0  0  -0.12562  0  3.99643  0  0  -0.13298  0  4.017621  0  0  -0.082694  -0.120989  0  3.982411  0
C  C59  1  0.01889425  0.27658874  0.43705231  1  0  -0.114165  0  3.742579  0  0  -0.125726  0  3.996562  0  0  -0.133083  0  4.017747  0  0  -0.082695  -0.121098  0  3.98255  0
C  C60  1  0.90885069  0.64451120  0.45941754  1  0  -0.063491  0  3.711904  0  0  -0.091002  0  3.962872  0  0  -0.088517  0  3.982419  0  0  -0.069645  -0.092492  0  3.949565  0
C  C61  1  0.09115060  0.35549228  0.54058524  1  0  -0.063298  0  3.711963  0  0  -0.090792  0  3.962911  0  0  -0.088304  0  3.982453  0  0  -0.069635  -0.092278  0  3.949596  0
C  C62  1  0.86743246  0.59706113  0.26274775  1  0  -0.118256  0  3.714938  0  0  -0.154036  0  3.970308  0  0  -0.153723  0  3.991755  0  0  -0.079959  -0.153774  0  3.955474  0
C  C63  1  0.13256728  0.40293472  0.73725411  1  0  -0.11831  0  3.715067  0  0  -0.15406  0  3.97041  0  0  -0.153758  0  3.991874  0  0  -0.079981  -0.153794  0  3.95557  0
C  C64  1  0.65314690  0.38208418  0.76237669  1  0  0.051122  0  3.793519  0  0  0.076138  0  4.026377  0  0  0.071249  0  4.051999  0  0  -0.000771  0.079164  0  4.009141  0
C  C65  1  0.34683320  0.61792028  0.23762394  1  0  0.05118  0  3.793426  0  0  0.07618  0  4.026319  0  0  0.071289  0  4.051948  0  0  -0.000621  0.079212  0  4.009089  0
C  C66  1  0.55639735  0.26095841  0.70182657  1  0  0.081619  0  3.621859  0  0  0.045769  0  3.860823  0  0  0.052026  0  3.880074  0  0  0.052103  0.041297  0  3.849022  0
C  C67  1  0.44358080  0.73904321  0.29817172  1  0  0.08147  0  3.622098  0  0  0.045646  0  3.861066  0  0  0.051915  0  3.880298  0  0  0.052061  0.041141  0  3.849244  0
C  C68  1  0.53605231  0.31040287  0.53746813  1  0  0.106886  0  3.687861  0  0  0.073311  0  3.938005  0  0  0.080411  0  3.957607  0  0  0.039154  0.068892  0  3.924538  0
C  C69  1  0.46393355  0.68960160  0.46253107  1  0  0.107124  0  3.687441  0  0  0.073501  0  3.937622  0  0  0.080604  0  3.957223  0  0  0.03922  0.069095  0  3.924138  0
C  C70  1  0.63622337  0.43068501  0.59103702  1  0  -0.12209  0  3.763326  0  0  -0.1325  0  4.013377  0  0  -0.140573  0  4.036828  0  0  -0.087219  -0.127442  0  3.997457  0
C  C71  1  0.36375510  0.56931850  0.40896395  1  0  -0.12232  0  3.763485  0  0  -0.132662  0  4.013546  0  0  -0.140741  0  4.036994  0  0  -0.087225  -0.127599  0  3.997626  0
C  C72  1  0.69487163  0.46829181  0.70360955  1  0  -0.035641  0  3.645148  0  0  -0.061171  0  3.885774  0  0  -0.056826  0  3.902367  0  0  -0.056469  -0.063604  0  3.874618  0
C  C73  1  0.30510805  0.53171074  0.29639217  1  0  -0.035622  0  3.644811  0  0  -0.061146  0  3.885418  0  0  -0.056799  0  3.902008  0  0  -0.056446  -0.06359  0  3.874278  0
C  C74  1  0.70256121  0.40454839  0.87923842  1  0  -0.115917  0  3.692054  0  0  -0.154432  0  3.952481  0  0  -0.154316  0  3.97424  0  0  -0.076379  -0.154296  0  3.937438  0
C  C75  1  0.29743188  0.59544940  0.12075981  1  0  -0.115883  0  3.691943  0  0  -0.154358  0  3.952417  0  0  -0.154247  0  3.974188  0  0  -0.076426  -0.154226  0  3.937369  0
C  C76  1  0.92277079  0.09392784  0.11711143  1  0  -0.097489  0  3.70282  0  0  -0.122921  0  3.957191  0  0  -0.122844  0  3.973734  0  0  -0.086763  -0.122854  0  3.945677  0
C  C77  1  0.07723171  0.90607378  0.88288435  1  0  -0.097478  0  3.703018  0  0  -0.122902  0  3.957337  0  0  -0.122824  0  3.973883  0  0  -0.086787  -0.122831  0  3.945814  0
C  C78  1  0.03791861  0.02517810  0.05772977  1  0  0.056494  0  3.740498  0  0  0.066423  0  3.96677  0  0  0.067146  0  3.990293  0  0  -0.001367  0.065886  0  3.951025  0
C  C79  1  0.96208936  0.97482255  0.94226814  1  0  0.056426  0  3.740583  0  0  0.066418  0  3.966766  0  0  0.067129  0  3.990304  0  0  -0.001392  0.065878  0  3.951019  0
C  C80  1  0.22769999  0.00299063  0.10757949  1  0  -0.164515  0  3.696632  0  0  -0.140759  0  3.941025  0  0  -0.147616  0  3.961692  0  0  -0.020366  -0.136317  0  3.926956  0
C  C81  1  0.77230745  0.99700717  0.89241628  1  0  -0.164416  0  3.696547  0  0  -0.140668  0  3.940855  0  0  -0.147522  0  3.961526  0  0  -0.020359  -0.136216  0  3.926779  0
C  C82  1  0.33403328  0.93467314  0.04686988  1  0  -0.078466  0  3.781512  0  0  -0.109459  0  4.041994  0  0  -0.107841  0  4.060151  0  0  -0.090215  -0.10973  0  4.028453  0
C  C83  1  0.66597441  0.06532562  0.95312384  1  0  -0.078713  0  3.781926  0  0  -0.109677  0  4.042359  0  0  -0.108059  0  4.060519  0  0  -0.090232  -0.10995  0  4.028824  0
C  C84  1  0.25905779  0.88657205  0.93398086  1  0  -0.0361  0  3.746619  0  0  -0.051902  0  4.009387  0  0  -0.052522  0  4.025697  0  0  -0.084325  -0.051749  0  3.99795  0
C  C85  1  0.74094743  0.11342863  0.06601286  1  0  -0.03614  0  3.746777  0  0  -0.051943  0  4.009514  0  0  -0.052562  0  4.025828  0  0  -0.084419  -0.051785  0  3.998082  0
S  S86  1  0.33900985  0.06547153  0.25011264  1  0  1.281036  0  5.694612  0  0  1.189947  0  6.213657  0  0  1.237691  0  6.189964  0  0  0.489161  1.156831  0  6.228767  0
S  S87  1  0.66100659  0.93452149  0.74988430  1  0  1.280848  0  5.695058  0  0  1.189778  0  6.214095  0  0  1.237516  0  6.190414  0  0  0.489028  1.156646  0  6.229224  0
N  N88  1  0.12587219  0.87602366  0.49141082  1  0  -0.291064  0  3.368692  0  0  -0.199048  0  3.645251  0  0  -0.219902  0  3.66377  0  0  -0.349644  -0.185178  0  3.632582  0
N  N89  1  0.87411615  0.12397890  0.50858762  1  0  -0.291191  0  3.368927  0  0  -0.199152  0  3.645475  0  0  -0.219993  0  3.66398  0  0  -0.349655  -0.185278  0  3.632799  0
N  N90  1  0.49703003  0.22664323  0.59317792  1  0  -0.299646  0  3.400271  0  0  -0.205572  0  3.67694  0  0  -0.226914  0  3.69685  0  0  -0.352332  -0.19113  0  3.662932  0
N  N91  1  0.50295015  0.77336126  0.40681970  1  0  -0.299652  0  3.40004  0  0  -0.205523  0  3.676659  0  0  -0.22687  0  3.696576  0  0  -0.352395  -0.191092  0  3.66268  0
O  O92  1  0.77592790  0.39469197  0.08907158  1  0  -0.477298  0  1.978403  0  0  -0.433994  0  2.193972  0  0  -0.454314  0  2.193044  0  0  -0.265463  -0.420347  0  2.194342  0
O  O93  1  0.22410960  0.60530672  0.91092951  1  0  -0.477408  0  1.978491  0  0  -0.434087  0  2.193999  0  0  -0.454461  0  2.192988  0  0  -0.265519  -0.420431  0  2.19437  0
O  O94  1  0.21203444  0.00972530  0.30457830  1  0  -0.70198  0  2.008997  0  0  -0.647024  0  2.286908  0  0  -0.669602  0  2.271304  0  0  -0.358771  -0.630604  0  2.296751  0
O  O95  1  0.78797649  0.99026868  0.69541802  1  0  -0.701848  0  2.008983  0  0  -0.64695  0  2.286979  0  0  -0.669519  0  2.271378  0  0  -0.358752  -0.630528  0  2.296832  0
O  O96  1  0.34872914  0.20478101  0.27217877  1  0  -0.670433  0  1.896436  0  0  -0.627359  0  2.13798  0  0  -0.647754  0  2.124437  0  0  -0.359554  -0.612667  0  2.147038  0
O  O97  1  0.65130309  0.79521291  0.72782291  1  0  -0.67041  0  1.896801  0  0  -0.62728  0  2.138249  0  0  -0.647679  0  2.124721  0  0  -0.359458  -0.612578  0  2.147304  0
O  O98  1  0.52852357  0.02035359  0.26975312  1  0  -0.686655  0  1.988352  0  0  -0.637998  0  2.25185  0  0  -0.658437  0  2.235784  0  0  -0.35107  -0.622981  0  2.262267  0
O  O99  1  0.47148781  0.97962802  0.73023863  1  0  -0.686635  0  1.988415  0  0  -0.637993  0  2.251895  0  0  -0.65843  0  2.235827  0  0  -0.351086  -0.622964  0  2.262312  0
