# generated using pymatgen
data_CuH8C10(NO2)2
_symmetry_space_group_name_H-M   'P 1'
_cell_length_a   9.47910133
_cell_length_b   10.19802796
_cell_length_c   11.15513426
_cell_angle_alpha   90.00196124
_cell_angle_beta   89.99984839
_cell_angle_gamma   108.12847743
_symmetry_Int_Tables_number   1
_chemical_formula_structural   CuH8C10(NO2)2
_chemical_formula_sum   'Cu4 H32 C40 N8 O16'
_cell_volume   1024.81827877
_cell_formula_units_Z   4
loop_
 _symmetry_equiv_pos_site_id
 _symmetry_equiv_pos_as_xyz
  1  'x, y, z'
loop_
 _atom_site_type_symbol
 _atom_site_label
 _atom_site_symmetry_multiplicity
 _atom_site_fract_x
 _atom_site_fract_y
 _atom_site_fract_z
 _atom_site_occupancy
 _atom_site_pbe_cm5_charge
 _atom_site_pbe_ddec_charge
 _atom_site_pbe_ddec_spin_density
 _atom_site_pbe_ddec_sum_bond_order
 _atom_site_pbe_magmom
Cu  Cu0  1  0.27696012  0.75198600  0.25543458  1  0.6847  0.810063  -0.100477  2.24158  -0.081
Cu  Cu1  1  0.22292948  0.74806144  0.75546531  1  0.684325  0.810171  0.100416  2.240159  0.081
Cu  Cu2  1  0.72276109  0.24791130  0.74454184  1  0.700769  0.84116  0.685902  2.217714  0.538
Cu  Cu3  1  0.77722461  0.25206396  0.24453083  1  0.70087  0.841156  -0.68582  2.217915  -0.538
H  H4  1  0.25408692  0.82049342  0.00508906  1  0.118089  0.028943  -1.1e-05  1.054965  0.0
H  H5  1  0.24589392  0.67949639  0.50501990  1  0.118046  0.028659  9e-06  1.055155  0.0
H  H6  1  0.74045206  0.17972462  0.99556598  1  0.117697  0.028264  -9.2e-05  1.055682  0.0
H  H7  1  0.75956574  0.32027015  0.49554637  1  0.117776  0.028563  9e-05  1.055353  0.0
H  H8  1  0.98738782  0.52950662  0.17486565  1  0.11644  0.032412  -0.000598  1.01281  -0.001
H  H9  1  0.51266609  0.97052067  0.67483921  1  0.116266  0.032418  0.000599  1.012231  0.001
H  H10  1  0.01255347  0.47107064  0.82553569  1  0.116326  0.032209  0.000493  1.011771  0.001
H  H11  1  0.48740997  0.02887633  0.32549309  1  0.116512  0.032123  -0.000492  1.012737  -0.001
H  H12  1  0.31391975  0.47011573  0.21080945  1  0.113447  0.089438  -9e-06  1.030442  0.0
H  H13  1  0.18608102  0.02990705  0.71083796  1  0.113418  0.089386  9e-06  1.03028  0.0
H  H14  1  0.68618344  0.52932769  0.78920641  1  0.113807  0.089634  -6.7e-05  1.031003  0.0
H  H15  1  0.81383392  0.97066401  0.28919046  1  0.11384  0.089716  6.7e-05  1.030972  0.0
H  H16  1  0.46950670  0.31218629  0.23220594  1  0.111912  0.081661  0.000165  1.011113  0.0
H  H17  1  0.03048171  0.18782498  0.73223253  1  0.111842  0.081563  -0.000165  1.011125  0.0
H  H18  1  0.53060118  0.68729325  0.76767903  1  0.111774  0.081368  -7e-06  1.011118  0.0
H  H19  1  0.96941063  0.81270686  0.26765963  1  0.111815  0.081419  7e-06  1.011179  0.0
H  H20  1  0.86062159  0.54312581  0.48095824  1  0.108702  0.131105  2e-05  1.014967  0.0
H  H21  1  0.63935553  0.95687988  0.98095172  1  0.108704  0.131133  -2e-05  1.014968  0.0
H  H22  1  0.13956220  0.45636302  0.51891777  1  0.108891  0.13113  -5.4e-05  1.013991  0.0
H  H23  1  0.36048127  0.04364679  0.01893865  1  0.10893  0.131253  5.4e-05  1.013828  0.0
H  H24  1  0.93259032  0.76817078  0.58409623  1  0.101336  0.109569  2e-06  1.017688  0.0
H  H25  1  0.56738501  0.73183836  0.08408953  1  0.101371  0.109587  -2e-06  1.017802  0.0
H  H26  1  0.06766011  0.23129022  0.41578695  1  0.101206  0.109871  1.3e-05  1.017787  0.0
H  H27  1  0.43235110  0.26870583  0.91579905  1  0.101246  0.10991  -1.3e-05  1.017768  0.0
H  H28  1  0.77809789  0.92758404  0.56050525  1  0.10032  0.109552  0.000174  1.018427  0.0
H  H29  1  0.72187825  0.57242413  0.06050223  1  0.100341  0.1096  -0.000174  1.018285  0.0
H  H30  1  0.22201666  0.07184288  0.43946309  1  0.099969  0.108668  -2.8e-05  1.019835  0.0
H  H31  1  0.27796190  0.42812833  0.93945717  1  0.099914  0.108597  2.8e-05  1.020107  0.0
H  H32  1  0.55246845  0.85844985  0.43486900  1  0.10428  0.111883  -8e-06  1.03508  0.0
H  H33  1  0.94752536  0.64156428  0.93488249  1  0.1043  0.111874  8e-06  1.035106  0.0
H  H34  1  0.44798927  0.14115460  0.56482862  1  0.104223  0.112025  -8.4e-05  1.035071  0.0
H  H35  1  0.05201014  0.35883748  0.06481962  1  0.104188  0.112013  8.4e-05  1.034881  0.0
C  C36  1  0.24011237  0.70936458  0.00440425  1  0.150637  0.481876  -9e-06  4.13549  0.0
C  C37  1  0.25991058  0.79063759  0.50431431  1  0.15062  0.482459  6e-06  4.135716  0.0
C  C38  1  0.75795101  0.29153724  0.99586711  1  0.150784  0.486556  2e-05  4.134305  0.0
C  C39  1  0.74205971  0.20846476  0.49579835  1  0.150617  0.486229  -2.1e-05  4.133484  0.0
C  C40  1  0.01208573  0.51168014  0.26895584  1  0.151814  0.489835  -4.8e-05  4.139919  0.002
C  C41  1  0.48793200  0.98831526  0.76900154  1  0.15226  0.489957  5e-05  4.139025  -0.002
C  C42  1  0.98837502  0.48900246  0.73125097  1  0.152496  0.489482  0.000663  4.14056  -0.002
C  C43  1  0.51156277  0.01096502  0.23128146  1  0.152374  0.489951  -0.000657  4.141931  0.002
C  C44  1  0.41397851  0.50071541  0.26579795  1  0.055888  0.066476  6e-05  3.932684  0.0
C  C45  1  0.08601446  0.99929740  0.76582065  1  0.056028  0.066789  -6e-05  3.932374  0.0
C  C46  1  0.58617057  0.49875794  0.73416591  1  0.056259  0.067584  -0.000163  3.933313  0.0
C  C47  1  0.91383744  0.00123341  0.23415130  1  0.05613  0.067348  0.000163  3.93376  0.0
C  C48  1  0.50205709  0.41181136  0.27812891  1  0.053996  0.055115  0.00011  3.970484  0.0
C  C49  1  0.99793754  0.08820034  0.77816035  1  0.054006  0.054991  -0.00011  3.970332  0.0
C  C50  1  0.49812183  0.58766922  0.72176055  1  0.05472  0.056765  -6.9e-05  3.969339  0.0
C  C51  1  0.00189009  0.91233045  0.22174346  1  0.054694  0.056627  6.9e-05  3.970007  0.0
C  C52  1  0.79388703  0.61207708  0.47077932  1  -0.085891  -0.143085  1e-05  3.920438  0.0
C  C53  1  0.70610927  0.88793852  0.97079113  1  -0.085782  -0.142784  -9e-06  3.920454  0.0
C  C54  1  0.20632748  0.38739319  0.52904291  1  -0.085702  -0.142721  -8.9e-05  3.920863  0.0
C  C55  1  0.29369642  0.11261496  0.02905980  1  -0.08579  -0.142949  8.9e-05  3.921035  0.0
C  C56  1  0.83345994  0.73824603  0.52810999  1  -0.086994  -0.06794  -2.6e-05  3.968178  0.0
C  C57  1  0.66652532  0.76176702  0.02811566  1  -0.087011  -0.068057  2.6e-05  3.968479  0.0
C  C58  1  0.16676851  0.26118710  0.47176871  1  -0.086702  -0.068051  -3.2e-05  3.968974  0.0
C  C59  1  0.33323973  0.23881638  0.97177919  1  -0.08676  -0.068172  3.2e-05  3.969003  0.0
C  C60  1  0.74627405  0.82768367  0.51541418  1  -0.085549  -0.06639  0.000129  3.983151  0.0
C  C61  1  0.75371915  0.67233093  0.01542047  1  -0.085568  -0.066441  -0.000128  3.983005  0.0
C  C62  1  0.25397460  0.17178145  0.48446900  1  -0.08592  -0.066376  -3.8e-05  3.983743  0.0
C  C63  1  0.24603208  0.32821430  0.98447169  1  -0.085805  -0.06607  3.7e-05  3.983746  0.0
C  C64  1  0.61992689  0.79020239  0.44538141  1  -0.090914  -0.158579  -0.000105  3.961014  0.0
C  C65  1  0.88007196  0.70981114  0.94539538  1  -0.090903  -0.158475  0.000106  3.961081  0.0
C  C66  1  0.38038786  0.20926481  0.55444260  1  -0.091372  -0.159743  -7.9e-05  3.960618  0.0
C  C67  1  0.11961775  0.29072994  0.05444389  1  -0.09131  -0.159783  8e-05  3.960226  0.0
C  C68  1  0.57591632  0.66128182  0.38581047  1  0.107508  0.16062  2.4e-05  3.993248  0.0
C  C69  1  0.92409419  0.83873445  0.88582925  1  0.107592  0.160748  -2.4e-05  3.993551  0.0
C  C70  1  0.42436844  0.33814616  0.61404402  1  0.108125  0.162674  -0.000104  3.995363  0.0
C  C71  1  0.07564414  0.16184791  0.11404230  1  0.108245  0.162867  0.000103  3.995441  0.0
C  C72  1  0.66451244  0.57045271  0.39858335  1  0.107493  0.158455  -6.8e-05  3.984807  0.0
C  C73  1  0.83549472  0.92955686  0.89860245  1  0.107502  0.15813  6.8e-05  3.985038  0.0
C  C74  1  0.33575382  0.42895154  0.60124335  1  0.106767  0.156995  -8.4e-05  3.985867  0.0
C  C75  1  0.16427050  0.07105543  0.10125475  1  0.106752  0.156902  8.3e-05  3.986275  0.0
N  N76  1  0.44962929  0.62324553  0.31763245  1  -0.300161  -0.279309  -0.001056  3.414579  -0.001
N  N77  1  0.05037193  0.87677352  0.81765859  1  -0.300412  -0.279569  0.001055  3.41505  0.001
N  N78  1  0.55057152  0.37622165  0.68232066  1  -0.301575  -0.283154  -0.002372  3.41806  -0.002
N  N79  1  0.94943562  0.12376346  0.18231425  1  -0.301645  -0.283167  0.002367  3.418441  0.002
N  N80  1  0.62474755  0.44466857  0.34280623  1  -0.294815  -0.278971  0.001738  3.354716  0.002
N  N81  1  0.87524073  0.05534370  0.84284051  1  -0.294727  -0.278593  -0.001737  3.354581  -0.002
N  N82  1  0.37548933  0.55476766  0.65699896  1  -0.294423  -0.278075  0.00015  3.35213  0.0
N  N83  1  0.12452998  0.94523454  0.15699697  1  -0.294334  -0.277949  -0.000152  3.352727  0.0
O  O84  1  0.24555549  0.64793601  0.10246307  1  -0.306473  -0.473657  -0.00668  2.434022  -0.009
O  O85  1  0.25447757  0.85207841  0.60238223  1  -0.306532  -0.474274  0.00667  2.432758  0.009
O  O86  1  0.75402280  0.35231616  0.89719242  1  -0.314122  -0.487627  0.046197  2.439094  0.065
O  O87  1  0.74597302  0.14770658  0.39712445  1  -0.313878  -0.487069  -0.046157  2.439191  -0.065
O  O88  1  0.11187533  0.60350214  0.32528817  1  -0.315726  -0.489401  -0.010131  2.457236  -0.014
O  O89  1  0.38815069  0.89644603  0.82528910  1  -0.315893  -0.489634  0.010107  2.45784  0.014
O  O90  1  0.88860209  0.39732491  0.67487472  1  -0.316713  -0.494618  0.048865  2.457631  0.069
O  O91  1  0.61131330  0.10258456  0.17487915  1  -0.316667  -0.494788  -0.048907  2.45799  -0.069
O  O92  1  0.21737827  0.64312583  0.90580701  1  -0.310376  -0.478811  0.006771  2.411396  0.009
O  O93  1  0.28267373  0.85685348  0.40573919  1  -0.310245  -0.478534  -0.006776  2.413209  -0.009
O  O94  1  0.78264843  0.35734724  0.09471983  1  -0.317149  -0.491188  -0.049033  2.413722  -0.069
O  O95  1  0.71736528  0.14261882  0.59466125  1  -0.317304  -0.49159  0.049074  2.41245  0.069
O  O96  1  0.93894541  0.39986805  0.31965980  1  -0.310139  -0.485018  -0.04988  2.457554  -0.07
O  O97  1  0.56110570  0.10018044  0.81968539  1  -0.310531  -0.485285  0.049881  2.457305  0.07
O  O98  1  0.06193492  0.60081053  0.68058736  1  -0.309599  -0.478848  0.011755  2.459198  0.017
O  O99  1  0.43802799  0.89919674  0.18057340  1  -0.309487  -0.478781  -0.011773  2.459079  -0.017
