# generated using pymatgen
data_KHCN4O
_symmetry_space_group_name_H-M   'P 1'
_cell_length_a   4.09382330
_cell_length_b   8.05435485
_cell_length_c   13.10312602
_cell_angle_alpha   90.00030706
_cell_angle_beta   90.00028215
_cell_angle_gamma   101.90438615
_symmetry_Int_Tables_number   1
_chemical_formula_structural   KHCN4O
_chemical_formula_sum   'K4 H4 C4 N16 O4'
_cell_volume   422.75872726
_cell_formula_units_Z   4
loop_
 _symmetry_equiv_pos_site_id
 _symmetry_equiv_pos_as_xyz
  1  'x, y, z'
loop_
 _atom_site_type_symbol
 _atom_site_label
 _atom_site_symmetry_multiplicity
 _atom_site_fract_x
 _atom_site_fract_y
 _atom_site_fract_z
 _atom_site_occupancy
 _atom_site_hle17_bader_spin_density
 _atom_site_hle17_ddec_charge
 _atom_site_hle17_ddec_spin_density
 _atom_site_hle17_ddec_sum_bond_order
 _atom_site_hle17_magmom
 _atom_site_hse06_10hf_bader_spin_density
 _atom_site_hse06_10hf_ddec_charge
 _atom_site_hse06_10hf_ddec_spin_density
 _atom_site_hse06_10hf_ddec_sum_bond_order
 _atom_site_hse06_10hf_magmom
 _atom_site_hse06_bader_spin_density
 _atom_site_hse06_ddec_charge
 _atom_site_hse06_ddec_spin_density
 _atom_site_hse06_ddec_sum_bond_order
 _atom_site_hse06_magmom
 _atom_site_pbe_bader_spin_density
 _atom_site_pbe_cm5_charge
 _atom_site_pbe_ddec_charge
 _atom_site_pbe_ddec_spin_density
 _atom_site_pbe_ddec_sum_bond_order
 _atom_site_pbe_magmom
K  K0  1  0.81152360  0.22389750  0.00293236  1  0  0.883352  0  0.507098  0  0  0.80627  0  0.72148  0  0  0.821838  0  0.698166  0  0  0.854963  0.794675  0  0.737959  0
K  K1  1  0.68848321  0.27610205  0.50293212  1  0  0.883374  0  0.507058  0  0  0.806266  0  0.721488  0  0  0.821866  0  0.698117  0  0  0.854973  0.794674  0  0.737967  0
K  K2  1  0.18848432  0.77610452  0.99706656  1  0  0.883387  0  0.507039  0  0  0.806279  0  0.721472  0  0  0.821885  0  0.69809  0  0  0.854954  0.794685  0  0.73795  0
K  K3  1  0.31150802  0.72389487  0.49706603  1  0  0.883369  0  0.507072  0  0  0.806276  0  0.721474  0  0  0.82186  0  0.698132  0  0  0.854964  0.794683  0  0.737953  0
H  H4  1  0.07019660  0.63801974  0.76002051  1  0  0.286567  0  0.962346  0  0  0.253645  0  1.042337  0  0  0.26441  0  1.033979  0  0  0.313406  0.246129  0  1.048189  0
H  H5  1  0.42980372  0.86197838  0.26002063  1  0  0.286568  0  0.962337  0  0  0.253649  0  1.04232  0  0  0.264414  0  1.033963  0  0  0.313397  0.246134  0  1.048172  0
H  H6  1  0.92980298  0.36197973  0.23997840  1  0  0.286654  0  0.962185  0  0  0.253656  0  1.042313  0  0  0.264421  0  1.033954  0  0  0.3134  0.246139  0  1.048167  0
H  H7  1  0.57019830  0.13802109  0.73997905  1  0  0.286625  0  0.962241  0  0  0.253674  0  1.042287  0  0  0.264438  0  1.033929  0  0  0.313418  0.246157  0  1.04814  0
C  C8  1  0.27545769  0.42167713  0.70352158  1  0  0.627995  0  3.919284  0  0  0.569502  0  4.223917  0  0  0.597427  0  4.225256  0  0  0.299254  0.550639  0  4.222569  0
C  C9  1  0.22454272  0.07832226  0.20352120  1  0  0.627996  0  3.919165  0  0  0.569562  0  4.223721  0  0  0.597489  0  4.225054  0  0  0.299258  0.5507  0  4.222371  0
C  C10  1  0.72453944  0.57832234  0.29647886  1  0  0.628017  0  3.919153  0  0  0.56959  0  4.223696  0  0  0.597515  0  4.225035  0  0  0.299311  0.550726  0  4.22235  0
C  C11  1  0.77545930  0.92167721  0.79648000  1  0  0.628109  0  3.91941  0  0  0.569647  0  4.223999  0  0  0.597574  0  4.225342  0  0  0.299346  0.550783  0  4.222652  0
N  N12  1  0.40450312  0.30906654  0.76110394  1  0  -0.396416  0  2.997454  0  0  -0.359578  0  3.280675  0  0  -0.376881  0  3.290471  0  0  -0.24262  -0.348009  0  3.273952  0
N  N13  1  0.09549549  0.19093220  0.26110450  1  0  -0.396424  0  2.997467  0  0  -0.359586  0  3.280668  0  0  -0.376888  0  3.290465  0  0  -0.242616  -0.348016  0  3.273945  0
N  N14  1  0.59549645  0.69093293  0.23889650  1  0  -0.396389  0  2.997441  0  0  -0.359598  0  3.280645  0  0  -0.376902  0  3.290446  0  0  -0.242631  -0.348029  0  3.273921  0
N  N15  1  0.90450948  0.80906855  0.73889671  1  0  -0.3964  0  2.997453  0  0  -0.35959  0  3.28066  0  0  -0.376894  0  3.290459  0  0  -0.24262  -0.34802  0  3.273938  0
N  N16  1  0.38746570  0.35446466  0.85975527  1  0  -0.155945  0  3.131739  0  0  -0.145413  0  3.449333  0  0  -0.14188  0  3.457422  0  0  -0.207589  -0.147331  0  3.443655  0
N  N17  1  0.11253541  0.14553641  0.35975570  1  0  -0.155982  0  3.131757  0  0  -0.145447  0  3.449343  0  0  -0.141921  0  3.457438  0  0  -0.207609  -0.147365  0  3.443668  0
N  N18  1  0.61253438  0.64553609  0.14024441  1  0  -0.155941  0  3.131704  0  0  -0.145401  0  3.449306  0  0  -0.141876  0  3.457399  0  0  -0.207571  -0.147319  0  3.443627  0
N  N19  1  0.88745877  0.85446178  0.64024474  1  0  -0.155979  0  3.13178  0  0  -0.145443  0  3.449382  0  0  -0.141913  0  3.457474  0  0  -0.207607  -0.14736  0  3.443706  0
N  N20  1  0.25518275  0.48831889  0.86799235  1  0  -0.164894  0  3.053398  0  0  -0.160697  0  3.357927  0  0  -0.160005  0  3.367812  0  0  -0.199904  -0.160865  0  3.351153  0
N  N21  1  0.24481312  0.01168099  0.36799255  1  0  -0.164866  0  3.053361  0  0  -0.160666  0  3.357887  0  0  -0.159974  0  3.367776  0  0  -0.199901  -0.160835  0  3.351115  0
N  N22  1  0.74481438  0.51168058  0.13200809  1  0  -0.164878  0  3.053402  0  0  -0.160674  0  3.357903  0  0  -0.159981  0  3.367792  0  0  -0.199891  -0.160844  0  3.35113  0
N  N23  1  0.75517811  0.98831593  0.63200789  1  0  -0.16486  0  3.053447  0  0  -0.160658  0  3.357959  0  0  -0.159967  0  3.367846  0  0  -0.199907  -0.160828  0  3.351187  0
N  N24  1  0.18369060  0.53175396  0.77250447  1  0  -0.308828  0  3.377651  0  0  -0.246984  0  3.631128  0  0  -0.265534  0  3.642976  0  0  -0.278359  -0.234719  0  3.6232  0
N  N25  1  0.31631047  0.96824557  0.27250476  1  0  -0.308842  0  3.377569  0  0  -0.247019  0  3.631032  0  0  -0.26557  0  3.642878  0  0  -0.278355  -0.234755  0  3.623104  0
N  N26  1  0.81630653  0.46824551  0.22749597  1  0  -0.308915  0  3.377514  0  0  -0.247056  0  3.63103  0  0  -0.265604  0  3.642874  0  0  -0.278395  -0.23479  0  3.623103  0
N  N27  1  0.68369745  0.03175645  0.72749568  1  0  -0.30891  0  3.377521  0  0  -0.247058  0  3.631012  0  0  -0.265607  0  3.642859  0  0  -0.278385  -0.234792  0  3.623086  0
O  O28  1  0.24499144  0.42571889  0.60708122  1  0  -0.771863  0  1.94012  0  0  -0.71675  0  2.185132  0  0  -0.739399  0  2.173968  0  0  -0.539153  -0.700526  0  2.192236  0
O  O29  1  0.25500948  0.07427946  0.10708087  1  0  -0.771851  0  1.940087  0  0  -0.716762  0  2.185073  0  0  -0.739406  0  2.173908  0  0  -0.539152  -0.700537  0  2.192175  0
O  O30  1  0.75499582  0.57427422  0.39291999  1  0  -0.771882  0  1.94009  0  0  -0.71679  0  2.185075  0  0  -0.739437  0  2.173913  0  0  -0.539179  -0.700566  0  2.192181  0
O  O31  1  0.74500881  0.92573018  0.89291728  1  0  -0.771946  0  1.940394  0  0  -0.716846  0  2.185392  0  0  -0.739496  0  2.174234  0  0  -0.5392  -0.70062  0  2.192496  0
