# generated using pymatgen
data_CaH12(CO)6
_symmetry_space_group_name_H-M   'P 1'
_cell_length_a   7.63321156
_cell_length_b   14.56225419
_cell_length_c   15.35424494
_cell_angle_alpha   89.99997172
_cell_angle_beta   89.99983612
_cell_angle_gamma   95.87651728
_symmetry_Int_Tables_number   1
_chemical_formula_structural   CaH12(CO)6
_chemical_formula_sum   'Ca4 H48 C24 O24'
_cell_volume   1697.75913595
_cell_formula_units_Z   4
loop_
 _symmetry_equiv_pos_site_id
 _symmetry_equiv_pos_as_xyz
  1  'x, y, z'
loop_
 _atom_site_type_symbol
 _atom_site_label
 _atom_site_symmetry_multiplicity
 _atom_site_fract_x
 _atom_site_fract_y
 _atom_site_fract_z
 _atom_site_occupancy
 _atom_site_pbe_bader_charge
 _atom_site_pbe_bader_spin_density
 _atom_site_pbe_cm5_charge
 _atom_site_pbe_ddec_charge
 _atom_site_pbe_ddec_spin_density
 _atom_site_pbe_ddec_sum_bond_order
 _atom_site_pbe_magmom
Ca  Ca0  1  0.55104356  0.22061083  0.71662938  1  1.638093  0  0.878214  1.37593  0  1.508412  0
Ca  Ca1  1  0.94895099  0.77938772  0.21663110  1  1.638141  0  0.878213  1.375817  0  1.508576  0
Ca  Ca2  1  0.44895057  0.77939048  0.28337133  1  1.638138  0  0.878169  1.375823  0  1.508495  0
Ca  Ca3  1  0.05105195  0.22061210  0.78336765  1  1.638085  0  0.878214  1.375864  0  1.508488  0
H  H4  1  0.79266506  0.03676000  0.95253728  1  0.012893  0  0.099925  0.106565  0  0.989059  0
H  H5  1  0.76691504  0.14815397  0.99003831  1  0.035352  0  0.109642  0.12509  0  0.960067  0
H  H6  1  0.56203032  0.90438867  0.98439690  1  -0.000889  0  0.087972  0.078675  0  0.994284  0
H  H7  1  0.41478306  0.95776492  0.91691860  1  0.042552  0  0.086822  0.078674  0  0.998168  0
H  H8  1  0.28440863  0.37735159  0.96164323  1  0.027366  0  0.100382  0.110284  0  0.99174  0
H  H9  1  0.47854423  0.33556180  0.00177173  1  0.057728  0  0.104135  0.11784  0  0.96108  0
H  H10  1  0.47448010  0.51878990  0.90265807  1  0.011352  0  0.088313  0.077701  0  0.972436  0
H  H11  1  0.66110350  0.47521348  0.94810596  1  -0.013184  0  0.087993  0.077175  0  0.99305  0
H  H12  1  0.49173434  0.60363507  0.37563050  1  0.596378  0  0.324423  0.392627  0  0.89904  0
H  H13  1  0.68176360  0.65809924  0.36973687  1  0.645497  0  0.295808  0.392506  0  0.950001  0
H  H14  1  0.21827193  0.89274214  0.37762815  1  0.642842  0  0.300122  0.396143  0  0.94492  0
H  H15  1  0.40398122  0.95134751  0.38496669  1  0.624573  0  0.325557  0.394573  0  0.895587  0
H  H16  1  0.70732934  0.96324315  0.45253540  1  0.012751  0  0.099934  0.106559  0  0.989241  0
H  H17  1  0.73308079  0.85185051  0.49003317  1  0.035379  0  0.109688  0.125185  0  0.960152  0
H  H18  1  0.93796732  0.09561233  0.48439822  1  -0.000582  0  0.087978  0.07873  0  0.994222  0
H  H19  1  0.08521151  0.04223486  0.41691916  1  0.042601  0  0.086838  0.07871  0  0.998112  0
H  H20  1  0.21558864  0.62264949  0.46163559  1  0.027445  0  0.100337  0.110107  0  0.991678  0
H  H21  1  0.02145739  0.66443625  0.50176925  1  0.057785  0  0.104166  0.117851  0  0.960988  0
H  H22  1  0.02552058  0.48120774  0.40265728  1  0.011498  0  0.088329  0.077717  0  0.97247  0
H  H23  1  0.83889808  0.52478128  0.44810663  1  -0.013199  0  0.088017  0.077228  0  0.992967  0
H  H24  1  0.00827438  0.39637357  0.87562293  1  0.596193  0  0.324314  0.392483  0  0.89905  0
H  H25  1  0.81823895  0.34190874  0.86973600  1  0.645482  0  0.295767  0.392389  0  0.950156  0
H  H26  1  0.28172236  0.10725561  0.87762156  1  0.642861  0  0.300142  0.39619  0  0.944873  0
H  H27  1  0.09600864  0.04865375  0.88496236  1  0.624574  0  0.325597  0.394573  0  0.895623  0
H  H28  1  0.20733233  0.96323851  0.04746278  1  0.012885  0  0.099926  0.106566  0  0.989103  0
H  H29  1  0.23308023  0.85184664  0.00996109  1  0.035293  0  0.109687  0.125172  0  0.960126  0
H  H30  1  0.43795923  0.09560993  0.01559599  1  -0.000595  0  0.087996  0.078751  0  0.99422  0
H  H31  1  0.58520778  0.04223366  0.08307690  1  0.042632  0  0.086797  0.078669  0  0.998207  0
H  H32  1  0.71559982  0.62263847  0.03836399  1  0.027271  0  0.100333  0.110284  0  0.991714  0
H  H33  1  0.52146964  0.66443442  0.99823289  1  0.057782  0  0.104119  0.117807  0  0.960951  0
H  H34  1  0.52551481  0.48120379  0.09734785  1  0.011115  0  0.088296  0.077685  0  0.972518  0
H  H35  1  0.33889372  0.52478434  0.05189736  1  -0.013189  0  0.087999  0.07717  0  0.992965  0
H  H36  1  0.50827221  0.39636886  0.62437021  1  0.596266  0  0.324384  0.392538  0  0.899129  0
H  H37  1  0.31823675  0.34190615  0.63026645  1  0.645479  0  0.295823  0.392532  0  0.949978  0
H  H38  1  0.78172431  0.10725708  0.62237386  1  0.642866  0  0.30014  0.396239  0  0.944804  0
H  H39  1  0.59601208  0.04865036  0.61503988  1  0.624554  0  0.325568  0.394559  0  0.895616  0
H  H40  1  0.29266512  0.03675954  0.54745945  1  0.012853  0  0.099929  0.106572  0  0.989171  0
H  H41  1  0.26691629  0.14815216  0.50996103  1  0.035324  0  0.109695  0.125206  0  0.960108  0
H  H42  1  0.06202566  0.90438969  0.51559923  1  -0.000615  0  0.087983  0.078676  0  0.99423  0
H  H43  1  0.91477806  0.95776929  0.58307634  1  0.042673  0  0.08681  0.078624  0  0.9982  0
H  H44  1  0.78441580  0.37735654  0.53836252  1  0.027428  0  0.100306  0.110117  0  0.991759  0
H  H45  1  0.97855258  0.33556556  0.49823341  1  0.057818  0  0.104108  0.117776  0  0.960968  0
H  H46  1  0.97448858  0.51879616  0.59734669  1  0.011143  0  0.08831  0.077689  0  0.972538  0
H  H47  1  0.16111451  0.47522049  0.55189669  1  -0.013309  0  0.087992  0.077159  0  0.992902  0
H  H48  1  0.99173134  0.60362690  0.12437583  1  0.596254  0  0.324339  0.392519  0  0.899026  0
H  H49  1  0.18176791  0.65809103  0.13026861  1  0.645517  0  0.295785  0.392474  0  0.95004  0
H  H50  1  0.71827797  0.89274424  0.12237263  1  0.642938  0  0.300159  0.396232  0  0.944788  0
H  H51  1  0.90399333  0.95134747  0.11503835  1  0.624559  0  0.32558  0.39456  0  0.895647  0
C  C52  1  0.64878680  0.11750231  0.86815941  1  1.572349  0  0.22218  0.653961  0  4.14542  0
C  C53  1  0.69498596  0.08709415  0.95925927  1  0.009707  0  -0.15861  -0.297363  0  3.941175  0
C  C54  1  0.54041857  0.04752094  0.01530545  1  -0.026117  0  -0.170317  -0.129032  0  3.9667  0
C  C55  1  0.45716442  0.33317329  0.86388382  1  1.554761  0  0.222519  0.656577  0  4.154843  0
C  C56  1  0.42682868  0.37866123  0.95061230  1  -0.027122  0  -0.159684  -0.296489  0  3.937362  0
C  C57  1  0.51828313  0.47692504  0.95683590  1  0.04782  0  -0.163373  -0.120198  0  3.972071  0
C  C58  1  0.85120643  0.88249956  0.36816319  1  1.572691  0  0.222228  0.653872  0  4.145427  0
C  C59  1  0.80500351  0.91291044  0.45926116  1  0.009867  0  -0.158618  -0.297417  0  3.941578  0
C  C60  1  0.95956880  0.95248137  0.51530482  1  -0.026158  0  -0.170355  -0.128904  0  3.966804  0
C  C61  1  0.04282553  0.66682245  0.36388685  1  1.554072  0  0.222506  0.656513  0  4.154825  0
C  C62  1  0.07316061  0.62133373  0.45061073  1  -0.02672  0  -0.159654  -0.296262  0  3.937355  0
C  C63  1  0.98172217  0.52307451  0.45683310  1  0.047584  0  -0.163426  -0.120298  0  3.972252  0
C  C64  1  0.35121433  0.88249545  0.13183218  1  1.572562  0  0.222127  0.653815  0  4.145627  0
C  C65  1  0.30500767  0.91290510  0.04073688  1  0.009967  0  -0.158614  -0.297396  0  3.941628  0
C  C66  1  0.45956737  0.95247355  0.98468940  1  -0.00112  0  -0.170373  -0.129005  0  3.966868  0
C  C67  1  0.54284177  0.66682372  0.13612405  1  1.554766  0  0.222535  0.656621  0  4.154848  0
C  C68  1  0.57317407  0.62133236  0.04939297  1  -0.02692  0  -0.15966  -0.296549  0  3.937236  0
C  C69  1  0.48171815  0.52306788  0.04316741  1  0.0232  0  -0.163378  -0.120101  0  3.972045  0
C  C70  1  0.14879098  0.11750449  0.63183100  1  1.572624  0  0.222146  0.653799  0  4.14527  0
C  C71  1  0.19499193  0.08709085  0.54073304  1  0.009958  0  -0.158614  -0.297434  0  3.941608  0
C  C72  1  0.04042633  0.04752409  0.48469133  1  -0.001457  0  -0.170394  -0.129119  0  3.966904  0
C  C73  1  0.95717675  0.33317461  0.63612298  1  1.554243  0  0.222568  0.656565  0  4.154683  0
C  C74  1  0.92683760  0.37866822  0.54939128  1  -0.02685  0  -0.159593  -0.296269  0  3.937045  0
C  C75  1  0.01828685  0.47693423  0.54316631  1  0.023258  0  -0.163349  -0.120087  0  3.971911  0
O  O76  1  0.77398358  0.14613983  0.81692397  1  -1.252671  0  -0.39629  -0.679049  0  2.268723  0
O  O77  1  0.48911152  0.11672267  0.84390956  1  -1.213027  0  -0.336171  -0.608458  0  2.237967  0
O  O78  1  0.61413515  0.33386617  0.83477514  1  -1.215359  0  -0.348189  -0.627284  0  2.231482  0
O  O79  1  0.32715505  0.29496017  0.82116936  1  -1.237922  0  -0.381872  -0.657376  0  2.266658  0
O  O80  1  0.55426317  0.66470908  0.38220127  1  -1.255738  0  -0.610858  -0.812234  0  1.959583  0
O  O81  1  0.34712964  0.88867636  0.38777639  1  -1.277556  0  -0.608603  -0.806868  0  1.961468  0
O  O82  1  0.72602252  0.85386539  0.31692144  1  -1.252765  0  -0.396271  -0.678911  0  2.268749  0
O  O83  1  0.01088018  0.88327445  0.34390995  1  -1.213402  0  -0.336265  -0.60847  0  2.237944  0
O  O84  1  0.88585938  0.66612949  0.33476918  1  -1.215366  0  -0.348247  -0.627333  0  2.231504  0
O  O85  1  0.17283516  0.70504115  0.32116501  1  -1.237732  0  -0.381803  -0.657292  0  2.266488  0
O  O86  1  0.94574307  0.33529815  0.88219826  1  -1.255577  0  -0.610714  -0.811969  0  1.959651  0
O  O87  1  0.15286590  0.11132136  0.88776869  1  -1.277564  0  -0.608649  -0.806904  0  1.96142  0
O  O88  1  0.22602833  0.85385918  0.18307349  1  -1.252656  0  -0.396264  -0.67891  0  2.268593  0
O  O89  1  0.51088225  0.88327173  0.15608594  1  -1.21344  0  -0.336151  -0.608441  0  2.238139  0
O  O90  1  0.38586401  0.66612885  0.16522817  1  -1.215213  0  -0.348201  -0.627346  0  2.231491  0
O  O91  1  0.67286127  0.70503533  0.17883461  1  -1.238112  0  -0.381875  -0.657341  0  2.266589  0
O  O92  1  0.44573685  0.33529493  0.61780075  1  -1.255624  0  -0.610823  -0.812154  0  1.959608  0
O  O93  1  0.65286268  0.11132290  0.61222627  1  -1.277563  0  -0.608623  -0.806953  0  1.961323  0
O  O94  1  0.27397766  0.14613931  0.68307276  1  -1.252702  0  -0.396291  -0.678898  0  2.268564  0
O  O95  1  0.98911542  0.11672754  0.65608555  1  -1.213365  0  -0.33616  -0.608457  0  2.237853  0
O  O96  1  0.11414848  0.33387442  0.66523022  1  -1.215111  0  -0.348215  -0.627283  0  2.231516  0
O  O97  1  0.82714982  0.29496028  0.67883440  1  -1.237859  0  -0.381928  -0.657441  0  2.266453  0
O  O98  1  0.05426542  0.66470299  0.11780245  1  -1.255633  0  -0.610743  -0.812072  0  1.959541  0
O  O99  1  0.84713785  0.88867637  0.11222746  1  -1.277658  0  -0.608663  -0.806939  0  1.961412  0
