# generated using pymatgen
data_AgH23C26S(N3O2)2
_symmetry_space_group_name_H-M   'P 1'
_cell_length_a   7.09613275
_cell_length_b   13.61271469
_cell_length_c   15.45260000
_cell_angle_alpha   110.31370145
_cell_angle_beta   101.75393470
_cell_angle_gamma   98.62923167
_symmetry_Int_Tables_number   1
_chemical_formula_structural   AgH23C26S(N3O2)2
_chemical_formula_sum   'Ag2 H46 C52 S2 N12 O8'
_cell_volume   1330.29031242
_cell_formula_units_Z   2
loop_
 _symmetry_equiv_pos_site_id
 _symmetry_equiv_pos_as_xyz
  1  'x, y, z'
loop_
 _atom_site_type_symbol
 _atom_site_label
 _atom_site_symmetry_multiplicity
 _atom_site_fract_x
 _atom_site_fract_y
 _atom_site_fract_z
 _atom_site_occupancy
 _atom_site_hle17_bader_spin_density
 _atom_site_hle17_ddec_charge
 _atom_site_hle17_ddec_spin_density
 _atom_site_hle17_ddec_sum_bond_order
 _atom_site_hle17_magmom
 _atom_site_hse06_10hf_bader_spin_density
 _atom_site_hse06_10hf_ddec_charge
 _atom_site_hse06_10hf_ddec_spin_density
 _atom_site_hse06_10hf_ddec_sum_bond_order
 _atom_site_hse06_10hf_magmom
 _atom_site_hse06_bader_spin_density
 _atom_site_hse06_ddec_charge
 _atom_site_hse06_ddec_spin_density
 _atom_site_hse06_ddec_sum_bond_order
 _atom_site_hse06_magmom
 _atom_site_pbe_bader_charge
 _atom_site_pbe_bader_spin_density
 _atom_site_pbe_cm5_charge
 _atom_site_pbe_ddec_charge
 _atom_site_pbe_ddec_spin_density
 _atom_site_pbe_ddec_sum_bond_order
 _atom_site_pbe_magmom
Ag  Ag0  1  0.79036064  0.47155672  0.43033148  1  0  0.515207  0  1.418312  0  0  0.368227  0  1.861779  0  0  0.396483  0  1.818524  0  0.570648  0  0.474664  0.349817  0  1.891427  0
Ag  Ag1  1  0.20964062  0.52844296  0.56966951  1  0  0.515259  0  1.418327  0  0  0.368224  0  1.861762  0  0  0.396486  0  1.818503  0  0.570695  0  0.474642  0.349812  0  1.891413  0
H  H2  1  0.85037834  0.35259040  0.23484390  1  0  0.082744  0  0.967072  0  0  0.091888  0  1.033004  0  0  0.093166  0  1.032031  0  0.125992  0  0.115219  0.090892  0  1.033733  0
H  H3  1  0.14965456  0.64741573  0.76516461  1  0  0.082618  0  0.967155  0  0  0.09178  0  1.033057  0  0  0.093035  0  1.032144  0  0.126063  0  0.115178  0.090784  0  1.033787  0
H  H4  1  0.82028243  0.37016121  0.07733131  1  0  0.117724  0  0.942444  0  0  0.124179  0  1.006785  0  0  0.127821  0  1.004623  0  0.123868  0  0.114474  0.121526  0  1.008548  0
H  H5  1  0.17974402  0.62984008  0.92267383  1  0  0.11772  0  0.94244  0  0  0.124193  0  1.006764  0  0  0.127837  0  1.004598  0  0.123959  0  0.114505  0.121545  0  1.008515  0
H  H6  1  0.74809132  0.69268440  0.21374725  1  0  0.107102  0  0.944852  0  0  0.124382  0  0.994208  0  0  0.12669  0  0.994571  0  0.079849  0  0.112661  0.122706  0  0.994162  0
H  H7  1  0.25189592  0.30731286  0.78625169  1  0  0.107111  0  0.944813  0  0  0.124395  0  0.994157  0  0  0.126702  0  0.994522  0  0.079672  0  0.11265  0.12272  0  0.994113  0
H  H8  1  0.77209471  0.65968213  0.36421683  1  0  0.097913  0  0.935032  0  0  0.108519  0  0.993202  0  0  0.110986  0  0.99102  0  0.154494  0  0.121064  0.106631  0  0.994901  0
H  H9  1  0.22790044  0.34031673  0.63578269  1  0  0.097925  0  0.935014  0  0  0.108528  0  0.993188  0  0  0.110996  0  0.991006  0  0.154496  0  0.121075  0.10664  0  0.994886  0
H  H10  1  0.87300252  0.71917417  0.09167200  1  0  0.124229  0  0.943843  0  0  0.146652  0  1.003369  0  0  0.1475  0  1.003321  0  0.069342  0  0.097799  0.145962  0  1.003497  0
H  H11  1  0.12699190  0.28082631  0.90833054  1  0  0.124284  0  0.943795  0  0  0.146705  0  1.003309  0  0  0.147547  0  1.003265  0  0.069261  0  0.097846  0.146015  0  1.003436  0
H  H12  1  0.61070654  0.67616430  0.05249759  1  0  0.128366  0  0.941417  0  0  0.149633  0  1.002478  0  0  0.150629  0  1.002833  0  0.078497  0  0.09913  0.148885  0  1.002251  0
H  H13  1  0.38928682  0.32383053  0.94750312  1  0  0.128422  0  0.941356  0  0  0.149699  0  1.002392  0  0  0.150698  0  1.00275  0  0.07853  0  0.099135  0.14895  0  1.002167  0
H  H14  1  0.74967062  0.65537598  0.96640319  1  0  0.132856  0  0.97015  0  0  0.145417  0  1.040645  0  0  0.148086  0  1.038861  0  0.082142  0  0.098655  0.143444  0  1.041971  0
H  H15  1  0.25032524  0.34462450  0.03359819  1  0  0.132879  0  0.970139  0  0  0.145456  0  1.040614  0  0  0.148125  0  1.03883  0  0.082085  0  0.098682  0.143483  0  1.04194  0
H  H16  1  0.68116935  0.27588666  0.87414764  1  0  0.128752  0  0.969467  0  0  0.142837  0  1.03765  0  0  0.145061  0  1.036831  0  0.104252  0  0.097228  0.141168  0  1.038311  0
H  H17  1  0.31882398  0.72411463  0.12585052  1  0  0.128708  0  0.969493  0  0  0.142808  0  1.037665  0  0  0.145032  0  1.036846  0  0.104215  0  0.097216  0.141139  0  1.038324  0
H  H18  1  0.80663862  0.24261325  0.78330393  1  0  0.118951  0  0.950019  0  0  0.141633  0  1.010219  0  0  0.141928  0  1.011458  0  0.063323  0  0.0982  0.141378  0  1.009374  0
H  H19  1  0.19335363  0.75738885  0.21669437  1  0  0.118905  0  0.950001  0  0  0.141584  0  1.010215  0  0  0.14188  0  1.011452  0  0.063266  0  0.098171  0.141329  0  1.009371  0
H  H20  1  0.54798089  0.22130925  0.74951739  1  0  0.126609  0  0.934008  0  0  0.150952  0  0.987892  0  0  0.151885  0  0.988468  0  0.064061  0  0.10081  0.150178  0  0.987606  0
H  H21  1  0.45201101  0.77869204  0.25048063  1  0  0.12662  0  0.933953  0  0  0.150947  0  0.987855  0  0  0.151883  0  0.988424  0  0.064137  0  0.100825  0.150172  0  0.987569  0
H  H22  1  0.66478800  0.56515984  0.76340084  1  0  0.113381  0  0.953214  0  0  0.119643  0  1.020417  0  0  0.122261  0  1.02061  0  0.124919  0  0.109667  0.117789  0  1.020364  0
H  H23  1  0.33521181  0.43484306  0.23659777  1  0  0.113361  0  0.953162  0  0  0.119602  0  1.020388  0  0  0.122218  0  1.020585  0  0.12492  0  0.109672  0.117749  0  1.020334  0
H  H24  1  0.67553456  0.58320839  0.60880086  1  0  0.070885  0  1.017581  0  0  0.076778  0  1.089842  0  0  0.078412  0  1.088492  0  0.126495  0  0.107283  0.075544  0  1.090971  0
H  H25  1  0.32446777  0.41679370  0.39119709  1  0  0.070849  0  1.017668  0  0  0.076723  0  1.089961  0  0  0.078353  0  1.088616  0  0.1263  0  0.107275  0.075489  0  1.09109  0
H  H26  1  0.74948052  0.27366176  0.48876541  1  0  0.092497  0  0.957567  0  0  0.099283  0  1.023461  0  0  0.102004  0  1.020601  0  0.149592  0  0.119721  0.097155  0  1.025758  0
H  H27  1  0.25051822  0.72633872  0.51123495  1  0  0.092492  0  0.957554  0  0  0.099226  0  1.023491  0  0  0.101947  0  1.020632  0  0.14961  0  0.119716  0.097099  0  1.025787  0
H  H28  1  0.72739424  0.23856130  0.63364044  1  0  0.11537  0  0.933368  0  0  0.131788  0  0.98057  0  0  0.134617  0  0.980175  0  0.090607  0  0.11787  0.129691  0  0.981089  0
H  H29  1  0.27260341  0.76143999  0.36636006  1  0  0.115412  0  0.93333  0  0  0.131821  0  0.98054  0  0  0.13465  0  0.980146  0  0.090508  0  0.117874  0.129723  0  0.98106  0
H  H30  1  0.46512251  0.25459316  0.37353517  1  0  0.103691  0  0.96246  0  0  0.109589  0  1.031491  0  0  0.113394  0  1.028592  0  0.10268  0  0.104168  0.106798  0  1.033677  0
H  H31  1  0.53487660  0.74540490  0.62646383  1  0  0.103655  0  0.962458  0  0  0.109542  0  1.031507  0  0  0.113352  0  1.028601  0  0.102678  0  0.104156  0.106751  0  1.033694  0
H  H32  1  0.87955263  0.17083544  0.18059071  1  0  0.108026  0  0.968885  0  0  0.110683  0  1.046401  0  0  0.114663  0  1.042759  0  0.061828  0  0.105855  0.107728  0  1.049163  0
H  H33  1  0.12045115  0.82916343  0.81940703  1  0  0.108063  0  0.968766  0  0  0.110731  0  1.046259  0  0  0.114711  0  1.042615  0  0.061841  0  0.10588  0.107769  0  1.049027  0
H  H34  1  0.39074388  0.18172994  0.07209308  1  0  0.098763  0  0.956433  0  0  0.107873  0  1.021614  0  0  0.111477  0  1.018434  0  0.076431  0  0.104097  0.105217  0  1.024025  0
H  H35  1  0.60925774  0.81827054  0.92790624  1  0  0.098771  0  0.956445  0  0  0.107913  0  1.021587  0  0  0.111514  0  1.018415  0  0.076378  0  0.10411  0.105255  0  1.024  0
H  H36  1  0.61214129  0.23235143  0.23819954  1  0  0.097028  0  0.983464  0  0  0.10643  0  1.047157  0  0  0.10954  0  1.045223  0  0.117817  0  0.098843  0.104159  0  1.048643  0
H  H37  1  0.38785960  0.76765066  0.76179956  1  0  0.096998  0  0.983463  0  0  0.106423  0  1.047135  0  0  0.109536  0  1.045198  0  0.117808  0  0.098876  0.10416  0  1.0486  0
H  H38  1  0.44414513  0.06986683  0.95040305  1  0  0.097566  0  0.960471  0  0  0.104956  0  1.029367  0  0  0.107797  0  1.026624  0  0.076549  0  0.103085  0.102758  0  1.031558  0
H  H39  1  0.55585614  0.93013284  0.04959794  1  0  0.097594  0  0.960431  0  0  0.104936  0  1.029369  0  0  0.107816  0  1.026583  0  0.076543  0  0.103106  0.10274  0  1.031558  0
H  H40  1  0.22530446  0.99454274  0.78236977  1  0  0.112273  0  0.965357  0  0  0.123742  0  1.023759  0  0  0.126578  0  1.023495  0  0.062823  0  0.101826  0.121702  0  1.024084  0
H  H41  1  0.77469104  0.00545693  0.21763197  1  0  0.112329  0  0.965288  0  0  0.12376  0  1.023721  0  0  0.126596  0  1.023456  0  0.062917  0  0.101854  0.121721  0  1.024046  0
H  H42  1  0.74263376  0.99291744  0.67624734  1  0  0.126856  0  0.931023  0  0  0.136265  0  0.986719  0  0  0.140815  0  0.984125  0  0.106753  0  0.108395  0.13297  0  0.988711  0
H  H43  1  0.25735670  0.00708385  0.32374990  1  0  0.126856  0  0.931014  0  0  0.136269  0  0.986708  0  0  0.14082  0  0.984114  0  0.106668  0  0.108372  0.132973  0  0.988701  0
H  H44  1  0.96025061  0.07096112  0.84506515  1  0  0.095545  0  0.960344  0  0  0.101447  0  1.029424  0  0  0.104875  0  1.026305  0  0.06004  0  0.102833  0.098971  0  1.031664  0
H  H45  1  0.03974993  0.92904017  0.15493238  1  0  0.095542  0  0.960433  0  0  0.101402  0  1.029558  0  0  0.104828  0  1.026436  0  0.060033  0  0.102814  0.098928  0  1.031795  0
H  H46  1  0.21646691  0.92366877  0.62224523  1  0  0.393367  0  0.896796  0  0  0.367796  0  0.969431  0  0  0.378531  0  0.957026  0  0.649366  0  0.299442  0.360184  0  0.977482  0
H  H47  1  0.78352248  0.07633009  0.37775505  1  0  0.393457  0  0.896777  0  0  0.367878  0  0.969423  0  0  0.378613  0  0.956936  0  0.649497  0  0.299485  0.360266  0  0.977475  0
C  C48  1  0.82314673  0.42556418  0.22588192  1  0  0.111809  0  3.696825  0  0  0.085289  0  3.936416  0  0  0.090951  0  3.958656  0  0.459024  0  0.04288  0.081595  0  3.921458  0
C  C49  1  0.17687935  0.57443953  0.77412262  1  0  0.112111  0  3.696837  0  0  0.085533  0  3.936417  0  0  0.091193  0  3.958644  0  0.459009  0  0.042924  0.081834  0  3.921463  0
C  C50  1  0.80763293  0.43611328  0.13880058  1  0  -0.119619  0  3.677892  0  0  -0.141307  0  3.927738  0  0  -0.148135  0  3.948607  0  -0.011771  0  -0.070701  -0.137135  0  3.914101  0
C  C51  1  0.19239243  0.56388882  0.86120469  1  0  -0.119675  0  3.677859  0  0  -0.141408  0  3.92779  0  0  -0.148231  0  3.948644  0  -0.012002  0  -0.070745  -0.137234  0  3.914158  0
C  C52  1  0.77744076  0.53270069  0.13078753  1  0  0.059065  0  3.714484  0  0  0.069095  0  3.951619  0  0  0.072313  0  3.973347  0  -0.005776  0  0.013803  0.067107  0  3.937031  0
C  C53  1  0.22256699  0.46729737  0.86921422  1  0  0.059101  0  3.714509  0  0  0.069152  0  3.95173  0  0  0.072371  0  3.973455  0  -0.005542  0  0.013846  0.067161  0  3.937141  0
C  C54  1  0.76886694  0.61520110  0.21418940  1  0  -0.145309  0  3.694816  0  0  -0.165967  0  3.943583  0  0  -0.173568  0  3.965819  0  -0.052802  0  -0.081501  -0.161093  0  3.92874  0
C  C55  1  0.23112606  0.38479615  0.78581202  1  0  -0.145399  0  3.694864  0  0  -0.166038  0  3.943631  0  0  -0.17364  0  3.965865  0  -0.052758  0  -0.081551  -0.161166  0  3.928792  0
C  C56  1  0.78220781  0.59799748  0.29873919  1  0  0.115044  0  3.699202  0  0  0.084351  0  3.948131  0  0  0.091432  0  3.967464  0  0.455787  0  0.044876  0.079769  0  3.935017  0
C  C57  1  0.21779454  0.40200139  0.70126165  1  0  0.115234  0  3.699058  0  0  0.084477  0  3.947934  0  0  0.091558  0  3.967267  0  0.455817  0  0.044948  0.079894  0  3.934822  0
C  C58  1  0.75763173  0.54740342  0.03896850  1  0  0.277435  0  3.631859  0  0  0.277578  0  3.892981  0  0  0.286288  0  3.907545  0  0.619036  0  0.153726  0.27142  0  3.883191  0
C  C59  1  0.24236845  0.45259706  0.96103329  1  0  0.277642  0  3.631754  0  0  0.277624  0  3.89311  0  0  0.286336  0  3.907673  0  0.61903  0  0.15374  0.271478  0  3.883298  0
C  C60  1  0.74780034  0.65558661  0.03695907  1  0  -0.385681  0  3.702978  0  0  -0.468672  0  3.939813  0  0  -0.470916  0  3.945639  0  -0.096735  0  -0.240635  -0.466745  0  3.935851  0
C  C61  1  0.25219265  0.34441387  0.96304268  1  0  -0.385899  0  3.702964  0  0  -0.468835  0  3.939814  0  0  -0.471079  0  3.945637  0  -0.096733  0  -0.240713  -0.466909  0  3.935849  0
C  C62  1  0.70695053  0.38750122  0.80490523  1  0  0.260421  0  3.675288  0  0  0.261757  0  3.935659  0  0  0.270103  0  3.950631  0  0.672072  0  0.148329  0.255857  0  3.925519  0
C  C63  1  0.29305143  0.61250330  0.19509666  1  0  0.260403  0  3.675428  0  0  0.261831  0  3.935682  0  0  0.270177  0  3.950653  0  0.672142  0  0.148343  0.25593  0  3.925543  0
C  C64  1  0.68339740  0.27636199  0.80388419  1  0  -0.390763  0  3.740155  0  0  -0.476459  0  3.98131  0  0  -0.479813  0  3.990086  0  -0.120557  0  -0.241867  -0.473736  0  3.975247  0
C  C65  1  0.31659414  0.72363850  0.19611355  1  0  -0.3907  0  3.74018  0  0  -0.476416  0  3.981326  0  0  -0.479772  0  3.990092  0  -0.120596  0  -0.24186  -0.473693  0  3.975262  0
C  C66  1  0.70235509  0.40118551  0.71376498  1  0  0.048061  0  3.739491  0  0  0.060892  0  3.970387  0  0  0.063668  0  3.992372  0  -0.029733  0  0.011022  0.059152  0  3.95548  0
C  C67  1  0.29764760  0.59881739  0.28623454  1  0  0.047998  0  3.739718  0  0  0.060815  0  3.970585  0  0  0.06359  0  3.992572  0  -0.029505  0  0.011023  0.059075  0  3.955678  0
C  C68  1  0.68367468  0.49852747  0.70430988  1  0  -0.129099  0  3.702571  0  0  -0.149985  0  3.952896  0  0  -0.156714  0  3.97461  0  0.012263  0  -0.075463  -0.145525  0  3.938422  0
C  C69  1  0.31632261  0.50147624  0.29569003  1  0  -0.12898  0  3.702738  0  0  -0.149838  0  3.953055  0  0  -0.156572  0  3.974779  0  0.012007  0  -0.075439  -0.145378  0  3.938578  0
C  C70  1  0.68959567  0.50926379  0.61887550  1  0  0.099176  0  3.722348  0  0  0.068787  0  3.972474  0  0  0.075113  0  3.9912  0  0.424796  0  0.034445  0.063935  0  3.961054  0
C  C71  1  0.31040487  0.49073750  0.38112204  1  0  0.099204  0  3.722487  0  0  0.068806  0  3.972638  0  0  0.075147  0  3.991342  0  0.425029  0  0.034415  0.06395  0  3.961228  0
C  C72  1  0.72864932  0.33551186  0.55087263  1  0  0.133853  0  3.677501  0  0  0.100951  0  3.927808  0  0  0.108383  0  3.945229  0  0.457824  0  0.049741  0.095878  0  3.916319  0
C  C73  1  0.27135158  0.66448701  0.44912549  1  0  0.133926  0  3.677641  0  0  0.101097  0  3.927909  0  0  0.108528  0  3.945335  0  0.457801  0  0.049753  0.096025  0  3.916418  0
C  C74  1  0.71812057  0.31743828  0.63309557  1  0  -0.12857  0  3.666869  0  0  -0.148043  0  3.908208  0  0  -0.154659  0  3.92897  0  -0.018268  0  -0.07386  -0.143856  0  3.894495  0
C  C75  1  0.28188391  0.68256543  0.36690824  1  0  -0.12866  0  3.666939  0  0  -0.148156  0  3.9083  0  0  -0.154773  0  3.929061  0  -0.018255  0  -0.073889  -0.14397  0  3.894588  0
C  C76  1  0.37088723  0.23361439  0.30167654  1  0  -0.068482  0  3.742231  0  0  -0.091895  0  3.990769  0  0  -0.090774  0  4.008721  0  -0.033374  0  -0.086523  -0.092543  0  3.978767  0
C  C77  1  0.62911044  0.76638367  0.69832362  1  0  -0.068466  0  3.742442  0  0  -0.091874  0  3.990974  0  0  -0.090756  0  4.008923  0  -0.033384  0  -0.086524  -0.092522  0  3.978976  0
C  C78  1  0.16519727  0.21732913  0.28569961  1  0  -0.115768  0  3.76307  0  0  -0.085198  0  4.00139  0  0  -0.092243  0  4.024272  0  -0.188269  0  -0.02138  -0.080635  0  3.986081  0
C  C79  1  0.83479789  0.78266651  0.71429828  1  0  -0.115693  0  3.763171  0  0  -0.085138  0  4.001506  0  0  -0.092184  0  4.024394  0  -0.188144  0  -0.021365  -0.080575  0  3.986194  0
C  C80  1  0.03997889  0.18649205  0.19394881  1  0  -0.134212  0  3.699001  0  0  -0.165986  0  3.945074  0  0  -0.166462  0  3.964944  0  0.014045  0  -0.084353  -0.165479  0  3.931834  0
C  C81  1  0.96001628  0.81350359  0.80604779  1  0  -0.1343  0  3.69887  0  0  -0.166062  0  3.94496  0  0  -0.166537  0  3.964824  0  0.014077  0  -0.084359  -0.16555  0  3.931728  0
C  C82  1  0.12250945  0.17301676  0.11631853  1  0  0.166649  0  3.808645  0  0  0.175395  0  4.057153  0  0  0.175252  0  4.081133  0  0.366639  0  0.084886  0.175314  0  4.040967  0
C  C83  1  0.87748858  0.82698211  0.88367932  1  0  0.166719  0  3.808382  0  0  0.175439  0  4.056926  0  0  0.175298  0  4.080902  0  0.366678  0  0.08487  0.175356  0  4.040741  0
C  C84  1  0.32946874  0.19225968  0.13295309  1  0  -0.116102  0  3.702701  0  0  -0.140018  0  3.951335  0  0  -0.141487  0  3.971204  0  -0.017562  0  -0.081536  -0.138844  0  3.937853  0
C  C85  1  0.67052603  0.80774161  0.86704326  1  0  -0.116175  0  3.702877  0  0  -0.140129  0  3.951565  0  0  -0.141601  0  3.971438  0  -0.017497  0  -0.081553  -0.138955  0  3.938087  0
C  C86  1  0.45232759  0.22142465  0.22484479  1  0  -0.062501  0  3.76713  0  0  -0.075292  0  4.019033  0  0  -0.077555  0  4.039986  0  -0.082091  0  -0.090577  -0.073806  0  4.004948  0
C  C87  1  0.54767692  0.77857260  0.77515512  1  0  -0.062436  0  3.767432  0  0  -0.075256  0  4.019372  0  0  -0.077521  0  4.040325  0  -0.082181  0  -0.090608  -0.073765  0  4.005281  0
C  C88  1  0.71581074  0.07848801  0.90855100  1  0  0.119472  0  3.855111  0  0  0.123127  0  4.108859  0  0  0.117171  0  4.137475  0  0.295834  0  0.067517  0.127032  0  4.089392  0
C  C89  1  0.28418657  0.92150924  0.09144694  1  0  0.11942  0  3.855108  0  0  0.123195  0  4.108695  0  0  0.117237  0  4.137321  0  0.29587  0  0.067539  0.1271  0  4.089228  0
C  C90  1  0.50804176  0.05599208  0.88999162  1  0  -0.093638  0  3.754754  0  0  -0.115527  0  4.007338  0  0  -0.114767  0  4.030078  0  -0.000502  0  -0.082645  -0.115701  0  3.991792  0
C  C91  1  0.49195916  0.94400356  0.11000875  1  0  -0.09366  0  3.754729  0  0  -0.115545  0  4.007274  0  0  -0.114818  0  4.030005  0  -0.000461  0  -0.08272  -0.115719  0  3.991729  0
C  C92  1  0.38617018  0.01366170  0.79669823  1  0  -0.22517  0  3.759841  0  0  -0.242621  0  4.00694  0  0  -0.252356  0  4.030175  0  -0.073529  0  -0.115389  -0.235983  0  3.991153  0
C  C93  1  0.61382352  0.98633717  0.20330310  1  0  -0.225133  0  3.75978  0  0  -0.242517  0  4.006879  0  0  -0.252254  0  4.03013  0  -0.073518  0  -0.115323  -0.235879  0  3.991089  0
C  C94  1  0.47083052  0.99146484  0.71901627  1  0  0.364298  0  3.807358  0  0  0.356612  0  4.066626  0  0  0.371274  0  4.082031  0  0.589704  0  0.095404  0.346402  0  4.056044  0
C  C95  1  0.52916281  0.00853645  0.28098447  1  0  0.364295  0  3.807443  0  0  0.356538  0  4.066799  0  0  0.371197  0  4.082207  0  0.58961  0  0.095381  0.346329  0  4.056215  0
C  C96  1  0.67960098  0.01356486  0.73714968  1  0  -0.183345  0  3.723054  0  0  -0.197823  0  3.969723  0  0  -0.20647  0  3.990245  0  -0.017633  0  -0.099782  -0.191911  0  3.955816  0
C  C97  1  0.32039632  0.98643562  0.26285118  1  0  -0.183408  0  3.723207  0  0  -0.197872  0  3.969902  0  0  -0.206521  0  3.990422  0  -0.061884  0  -0.099775  -0.19196  0  3.955993  0
C  C98  1  0.79947477  0.05596061  0.83022246  1  0  -0.096106  0  3.745139  0  0  -0.116422  0  3.993579  0  0  -0.115309  0  4.015919  0  -0.042132  0  -0.081874  -0.116834  0  3.978194  0
C  C99  1  0.20052396  0.94404310  0.16977694  1  0  -0.095982  0  3.745256  0  0  -0.1163  0  3.993659  0  0  -0.115184  0  4.015998  0  0.002184  0  -0.081805  -0.116713  0  3.978273  0
S  S100  1  0.06360063  0.23427129  0.38540209  1  0  1.291088  0  5.652477  0  0  1.196435  0  6.171394  0  0  1.243882  0  6.147999  0  3.168533  0  0.50159  1.163731  0  6.186314  0
S  S101  1  0.93639561  0.76572355  0.61459371  1  0  1.291019  0  5.652439  0  0  1.19633  0  6.171395  0  0  1.243778  0  6.147996  0  3.167935  0  0.501579  1.163626  0  6.186315  0
N  N102  1  0.80684246  0.50405219  0.30467379  1  0  -0.291188  0  3.339434  0  0  -0.198568  0  3.609868  0  0  -0.219032  0  3.629685  0  -1.196633  0  -0.344755  -0.184761  0  3.59619  0
N  N103  1  0.19317210  0.49595152  0.69532968  1  0  -0.291573  0  3.339503  0  0  -0.19875  0  3.60976  0  0  -0.219211  0  3.629574  0  -1.196547  0  -0.344809  -0.184942  0  3.596084  0
N  N104  1  0.74923544  0.46136592  0.96493744  1  0  -0.240692  0  3.028786  0  0  -0.214183  0  3.30993  0  0  -0.224308  0  3.327603  0  -0.732292  0  -0.204703  -0.207114  0  3.297888  0
N  N105  1  0.25076762  0.53863456  0.03506332  1  0  -0.24075  0  3.028707  0  0  -0.214189  0  3.309922  0  0  -0.224315  0  3.32759  0  -0.732198  0  -0.204669  -0.207124  0  3.297877  0
N  N106  1  0.73665557  0.47603718  0.88039041  1  0  -0.236062  0  3.028169  0  0  -0.209653  0  3.308187  0  0  -0.219693  0  3.326201  0  -0.770483  0  -0.202271  -0.202581  0  3.295892  0
N  N107  1  0.26334641  0.52396411  0.11961179  1  0  -0.236053  0  3.028062  0  0  -0.209686  0  3.308039  0  0  -0.219725  0  3.326052  0  -0.770477  0  -0.202305  -0.202614  0  3.295748  0
N  N108  1  0.71830622  0.43066522  0.54411476  1  0  -0.294351  0  3.353741  0  0  -0.199546  0  3.624751  0  0  -0.219843  0  3.642604  0  -1.201861  0  -0.347185  -0.185811  0  3.612624  0
N  N109  1  0.28169431  0.56933607  0.45588537  1  0  -0.294402  0  3.353771  0  0  -0.199591  0  3.624725  0  0  -0.219894  0  3.642583  0  -1.201843  0  -0.34716  -0.185858  0  3.612599  0
N  N110  1  0.01249916  0.13766290  0.01949988  1  0  -0.183464  0  3.011394  0  0  -0.162814  0  3.298057  0  0  -0.16327  0  3.305438  0  -0.485098  0  -0.169829  -0.162276  0  3.292989  0
N  N111  1  0.98750354  0.86233678  0.98049930  1  0  -0.183428  0  3.011374  0  0  -0.162751  0  3.298032  0  0  -0.163207  0  3.305414  0  -0.485009  0  -0.169809  -0.162212  0  3.292967  0
N  N112  1  0.82493690  0.11911885  0.00494058  1  0  -0.163766  0  3.040483  0  0  -0.140101  0  3.327061  0  0  -0.135661  0  3.333658  0  -0.516375  0  -0.160454  -0.142822  0  3.322404  0
N  N113  1  0.17506292  0.88088083  0.99505769  1  0  -0.163877  0  3.040618  0  0  -0.140266  0  3.327186  0  0  -0.135828  0  3.333786  0  -0.51645  0  -0.160517  -0.142987  0  3.322529  0
O  O114  1  0.88724562  0.27575028  0.36360043  1  0  -0.693239  0  2.008293  0  0  -0.638235  0  2.285777  0  0  -0.659838  0  2.269521  0  -1.344542  0  -0.350371  -0.62286  0  2.296389  0
O  O115  1  0.11275422  0.72424294  0.63639651  1  0  -0.693243  0  2.008221  0  0  -0.638192  0  2.285665  0  0  -0.659794  0  2.269406  0  -1.344389  0  -0.350382  -0.622821  0  2.296276  0
O  O116  1  0.21957142  0.30992592  0.47120776  1  0  -0.672671  0  1.966098  0  0  -0.623657  0  2.229114  0  0  -0.644023  0  2.213377  0  -1.340005  0  -0.350999  -0.60915  0  2.239372  0
O  O117  1  0.78042733  0.69007133  0.52879096  1  0  -0.672632  0  1.966249  0  0  -0.623586  0  2.229232  0  0  -0.643948  0  2.213492  0  -1.339792  0  -0.350992  -0.60908  0  2.239491  0
O  O118  1  0.01204767  0.12539488  0.38700317  1  0  -0.667066  0  1.930029  0  0  -0.616123  0  2.158877  0  0  -0.636153  0  2.142985  0  -1.324098  0  -0.349427  -0.601886  0  2.169169  0
O  O119  1  0.98794532  0.87460237  0.61299371  1  0  -0.66703  0  1.929903  0  0  -0.616087  0  2.158757  0  0  -0.636117  0  2.14288  0  -1.323926  0  -0.349407  -0.601851  0  2.169049  0
O  O120  1  0.36138975  0.94795544  0.62693222  1  0  -0.515223  0  2.071002  0  0  -0.46679  0  2.265006  0  0  -0.487999  0  2.255755  0  -1.155964  0  -0.353127  -0.451384  0  2.270341  0
O  O121  1  0.63860540  0.05204343  0.37306795  1  0  -0.515332  0  2.071037  0  0  -0.46687  0  2.265064  0  0  -0.488077  0  2.255746  0  -1.156021  0  -0.353198  -0.451465  0  2.270402  0
