# generated using pymatgen
data_CuH15C27IN3
_symmetry_space_group_name_H-M   'P 1'
_cell_length_a   9.71558804
_cell_length_b   9.94525672
_cell_length_c   15.15135923
_cell_angle_alpha   107.04085737
_cell_angle_beta   98.14229920
_cell_angle_gamma   98.13907490
_symmetry_Int_Tables_number   1
_chemical_formula_structural   CuH15C27IN3
_chemical_formula_sum   'Cu2 H30 C54 I2 N6'
_cell_volume   1359.42957301
_cell_formula_units_Z   2
loop_
 _symmetry_equiv_pos_site_id
 _symmetry_equiv_pos_as_xyz
  1  'x, y, z'
loop_
 _atom_site_type_symbol
 _atom_site_label
 _atom_site_symmetry_multiplicity
 _atom_site_fract_x
 _atom_site_fract_y
 _atom_site_fract_z
 _atom_site_occupancy
 _atom_site_hle17_bader_spin_density
 _atom_site_hle17_ddec_charge
 _atom_site_hle17_ddec_spin_density
 _atom_site_hle17_ddec_sum_bond_order
 _atom_site_hle17_magmom
 _atom_site_hse06_10hf_bader_spin_density
 _atom_site_hse06_10hf_ddec_charge
 _atom_site_hse06_10hf_ddec_spin_density
 _atom_site_hse06_10hf_ddec_sum_bond_order
 _atom_site_hse06_10hf_magmom
 _atom_site_hse06_bader_spin_density
 _atom_site_hse06_ddec_charge
 _atom_site_hse06_ddec_spin_density
 _atom_site_hse06_ddec_sum_bond_order
 _atom_site_hse06_magmom
 _atom_site_pbe_bader_spin_density
 _atom_site_pbe_cm5_charge
 _atom_site_pbe_ddec_charge
 _atom_site_pbe_ddec_spin_density
 _atom_site_pbe_ddec_sum_bond_order
 _atom_site_pbe_magmom
Cu  Cu0  1  0.08551002  0.61673763  0.00752963  1  0  0.300014  0  2.184892  0  0  0.201828  0  2.683506  0  0  0.203568  0  2.635082  0  0  0.352225  0.204016  0  2.713712  0
Cu  Cu1  1  0.91449275  0.38325904  0.99247230  1  0  0.29996  0  2.184914  0  0  0.201729  0  2.683545  0  0  0.203441  0  2.635119  0  0  0.352208  0.203924  0  2.713758  0
H  H2  1  0.14230295  0.79175658  0.20563780  1  0  0.067329  0  1.008172  0  0  0.071564  0  1.082192  0  0  0.074185  0  1.080639  0  0  0.093482  0.06938  0  1.083837  0
H  H3  1  0.85769987  0.20824546  0.79436120  1  0  0.067283  0  1.008234  0  0  0.071514  0  1.082249  0  0  0.074134  0  1.080696  0  0  0.093445  0.069331  0  1.083889  0
H  H4  1  0.34973840  0.94437886  0.32885834  1  0  0.112334  0  0.967062  0  0  0.118215  0  1.03534  0  0  0.121298  0  1.034794  0  0  0.106491  0.116104  0  1.035724  0
H  H5  1  0.65026527  0.05562747  0.67114091  1  0  0.112318  0  0.967016  0  0  0.118214  0  1.035303  0  0  0.121296  0  1.034756  0  0  0.106465  0.1161  0  1.035683  0
H  H6  1  0.61763466  0.80353025  0.12804288  1  0  0.113116  0  0.964478  0  0  0.123072  0  1.024262  0  0  0.126843  0  1.023197  0  0  0.098167  0.120036  0  1.025857  0
H  H7  1  0.38236940  0.19647286  0.87195777  1  0  0.11315  0  0.964498  0  0  0.123134  0  1.024255  0  0  0.126878  0  1.023218  0  0  0.098161  0.120095  0  1.025846  0
H  H8  1  0.39862227  0.65735240  0.01411392  1  0  0.080467  0  0.933791  0  0  0.08641  0  0.998469  0  0  0.090496  0  0.994448  0  0  0.109426  0.083259  0  1.001609  0
H  H9  1  0.60138449  0.34264854  0.98588590  1  0  0.080442  0  0.933813  0  0  0.086408  0  0.998473  0  0  0.090495  0  0.994455  0  0  0.109429  0.083256  0  1.001614  0
H  H10  1  0.75730878  0.95052989  0.52488163  1  0  0.109725  0  1.004525  0  0  0.106739  0  1.084372  0  0  0.112326  0  1.079782  0  0  0.101255  0.102655  0  1.087961  0
H  H11  1  0.24269256  0.04946465  0.47511448  1  0  0.109746  0  1.004626  0  0  0.106788  0  1.084418  0  0  0.112363  0  1.079837  0  0  0.101297  0.1027  0  1.088013  0
H  H12  1  0.13017817  0.27181903  0.67708315  1  0  0.113331  0  0.950326  0  0  0.120637  0  1.013927  0  0  0.12486  0  1.011109  0  0  0.102094  0.117828  0  1.015526  0
H  H13  1  0.86982771  0.72817226  0.32291408  1  0  0.113376  0  0.950273  0  0  0.12069  0  1.013871  0  0  0.124898  0  1.011074  0  0  0.1021  0.117879  0  1.015472  0
H  H14  1  0.91896050  0.27176237  0.40590059  1  0  0.105583  0  0.948174  0  0  0.114816  0  1.010819  0  0  0.117907  0  1.009375  0  0  0.1057  0.11273  0  1.011561  0
H  H15  1  0.08104188  0.72823753  0.59409994  1  0  0.105597  0  0.948113  0  0  0.114833  0  1.010762  0  0  0.117923  0  1.009319  0  0  0.105709  0.112748  0  1.011499  0
H  H16  1  0.47224264  0.61275182  0.67714713  1  0  0.110329  0  0.931786  0  0  0.124769  0  0.980204  0  0  0.128538  0  0.978913  0  0  0.111238  0.122028  0  0.98128  0
H  H17  1  0.52776766  0.38726734  0.32286444  1  0  0.110318  0  0.931825  0  0  0.124747  0  0.980256  0  0  0.128519  0  0.978959  0  0  0.111197  0.122003  0  0.981334  0
H  H18  1  0.67413209  0.79125839  0.66764988  1  0  0.063053  0  0.947358  0  0  0.070715  0  1.014156  0  0  0.072815  0  1.013116  0  0  0.106448  0.069283  0  1.014868  0
H  H19  1  0.32587287  0.20875437  0.33234809  1  0  0.062997  0  0.947444  0  0  0.070727  0  1.014163  0  0  0.072827  0  1.013125  0  0  0.106452  0.069291  0  1.014884  0
H  H20  1  0.48135184  0.78325392  0.40432337  1  0  0.068332  0  0.953014  0  0  0.077082  0  1.016997  0  0  0.079094  0  1.016052  0  0  0.107897  0.075786  0  1.017359  0
H  H21  1  0.51862848  0.21673970  0.59567586  1  0  0.068344  0  0.953035  0  0  0.077085  0  1.017034  0  0  0.079096  0  1.01609  0  0  0.107886  0.075793  0  1.017398  0
H  H22  1  0.27045473  0.60549334  0.40185659  1  0  0.105954  0  0.938935  0  0  0.119897  0  0.991626  0  0  0.123031  0  0.991187  0  0  0.107016  0.117723  0  0.991977  0
H  H23  1  0.72953029  0.39450345  0.59815624  1  0  0.105954  0  0.938902  0  0  0.119935  0  0.991555  0  0  0.12307  0  0.991113  0  0  0.107031  0.117757  0  0.991909  0
H  H24  1  0.89133450  0.67576305  0.69192737  1  0  0.107489  0  0.95314  0  0  0.117747  0  1.013816  0  0  0.120943  0  1.012998  0  0  0.107217  0.115151  0  1.014803  0
H  H25  1  0.10865681  0.32423370  0.30807746  1  0  0.107506  0  0.953148  0  0  0.117753  0  1.013831  0  0  0.120949  0  1.013014  0  0  0.107187  0.115157  0  1.014822  0
H  H26  1  0.94531468  0.54337439  0.80641232  1  0  0.077736  0  0.942127  0  0  0.084053  0  1.009252  0  0  0.087643  0  1.005422  0  0  0.107215  0.081471  0  1.012089  0
H  H27  1  0.05467893  0.45662342  0.19359227  1  0  0.077754  0  0.942231  0  0  0.08406  0  1.009362  0  0  0.087651  0  1.005531  0  0  0.107226  0.081463  0  1.012218  0
H  H28  1  0.15522607  0.91730024  0.01531429  1  0  0.078948  0  0.928066  0  0  0.089833  0  0.985892  0  0  0.092191  0  0.984418  0  0  0.115152  0.087897  0  0.987144  0
H  H29  1  0.84477192  0.08269861  0.98468827  1  0  0.078956  0  0.928104  0  0  0.089839  0  0.985935  0  0  0.092198  0  0.984459  0  0  0.115145  0.087908  0  0.987181  0
H  H30  1  0.11333499  0.06621717  0.91011931  1  0  0.113654  0  0.97267  0  0  0.1217  0  1.036764  0  0  0.125353  0  1.035753  0  0  0.095474  0.116231  0  1.042127  0
H  H31  1  0.88666632  0.93377736  0.08988075  1  0  0.113628  0  0.972591  0  0  0.121664  0  1.036712  0  0  0.125319  0  1.035701  0  0  0.095457  0.116215  0  1.042049  0
C  C32  1  0.24980871  0.79817237  0.19186019  1  0  0.106843  0  3.725853  0  0  0.079839  0  3.970491  0  0  0.086682  0  3.985679  0  0  0.026883  0.075256  0  3.961048  0
C  C33  1  0.75019514  0.20182966  0.80813892  1  0  0.10683  0  3.72589  0  0  0.079827  0  3.970575  0  0  0.086679  0  3.985753  0  0  0.026887  0.075235  0  3.961127  0
C  C34  1  0.36495552  0.88271508  0.25980559  1  0  -0.170003  0  3.70443  0  0  -0.184418  0  3.945316  0  0  -0.192354  0  3.965114  0  0  -0.084417  -0.179433  0  3.932205  0
C  C35  1  0.63504876  0.11728910  0.74019397  1  0  -0.169837  0  3.704308  0  0  -0.184321  0  3.945124  0  0  -0.192253  0  3.964926  0  0  -0.084343  -0.179331  0  3.932011  0
C  C36  1  0.50215426  0.88806860  0.23877926  1  0  0.161835  0  3.889868  0  0  0.1719  0  4.116709  0  0  0.181146  0  4.133625  0  0  0.009949  0.165858  0  4.105163  0
C  C37  1  0.49784753  0.11193345  0.76121833  1  0  0.161635  0  3.890148  0  0  0.171891  0  4.11671  0  0  0.181125  0  4.133639  0  0  0.009908  0.165838  0  4.105174  0
C  C38  1  0.51421704  0.80610757  0.14792721  1  0  -0.159208  0  3.688915  0  0  -0.173158  0  3.921214  0  0  -0.180589  0  3.939432  0  0  -0.082884  -0.168461  0  3.909276  0
C  C39  1  0.48578475  0.19389448  0.85207039  1  0  -0.159321  0  3.688895  0  0  -0.173356  0  3.921165  0  0  -0.180755  0  3.939399  0  0  -0.082952  -0.168653  0  3.909222  0
C  C40  1  0.39273979  0.72416148  0.08439591  1  0  0.118038  0  3.706046  0  0  0.08942  0  3.954937  0  0  0.096364  0  3.969795  0  0  0.036304  0.084859  0  3.94531  0
C  C41  1  0.60726385  0.27583949  0.91560296  1  0  0.118135  0  3.705974  0  0  0.08949  0  3.954914  0  0  0.096437  0  3.969763  0  0  0.036341  0.084922  0  3.945278  0
C  C42  1  0.62064387  0.96949143  0.30936823  1  0  -0.109298  0  3.822581  0  0  -0.107089  0  4.072899  0  0  -0.111925  0  4.09992  0  0  -0.038703  -0.103946  0  4.054775  0
C  C43  1  0.37936123  0.03051167  0.69063120  1  0  -0.109325  0  3.822547  0  0  -0.107177  0  4.072813  0  0  -0.112011  0  4.099837  0  0  -0.038714  -0.104028  0  4.054692  0
C  C44  1  0.71550754  0.03773057  0.37604073  1  0  -0.060475  0  3.817272  0  0  -0.06075  0  4.068416  0  0  -0.061603  0  4.098262  0  0  -0.024395  -0.060262  0  4.048783  0
C  C45  1  0.28449360  0.96226826  0.62395685  1  0  -0.060355  0  3.817038  0  0  -0.060646  0  4.068171  0  0  -0.061496  0  4.098024  0  0  -0.024351  -0.060157  0  4.048539  0
C  C46  1  0.82459821  0.10541248  0.45651974  1  0  0.11231  0  3.922543  0  0  0.127952  0  4.151945  0  0  0.12833  0  4.173422  0  0  -0.001728  0.12713  0  4.137969  0
C  C47  1  0.17540604  0.89458633  0.54347944  1  0  0.11228  0  3.922631  0  0  0.127974  0  4.151974  0  0  0.128348  0  4.173459  0  0  -0.00171  0.127156  0  4.13799  0
C  C48  1  0.83443062  0.04510784  0.52964013  1  0  -0.126316  0  3.605518  0  0  -0.149464  0  3.844738  0  0  -0.151153  0  3.861755  0  0  -0.068809  -0.148621  0  3.834493  0
C  C49  1  0.16557343  0.95488990  0.47035751  1  0  -0.126375  0  3.60554  0  0  -0.149569  0  3.844782  0  0  -0.151245  0  3.861805  0  0  -0.068858  -0.148726  0  3.834544  0
C  C50  1  0.94502987  0.10444143  0.60863708  1  0  0.109471  0  3.912838  0  0  0.123928  0  4.145102  0  0  0.123421  0  4.168831  0  0  -0.001308  0.124115  0  4.12941  0
C  C51  1  0.05497207  0.89555096  0.39136065  1  0  0.109551  0  3.912755  0  0  0.123994  0  4.145059  0  0  0.123484  0  4.168778  0  0  -0.0013  0.124181  0  4.129373  0
C  C52  1  0.04449407  0.22646757  0.61584944  1  0  -0.125797  0  3.611405  0  0  -0.15255  0  3.849256  0  0  -0.152559  0  3.864711  0  0  -0.067961  -0.152336  0  3.839226  0
C  C53  1  0.95551016  0.77352587  0.38414805  1  0  -0.125883  0  3.611358  0  0  -0.15267  0  3.849196  0  0  -0.152664  0  3.864659  0  0  -0.067966  -0.152449  0  3.839166  0
C  C54  1  0.03537096  0.28602679  0.54206437  1  0  0.116871  0  3.909868  0  0  0.132161  0  4.142731  0  0  0.132686  0  4.164388  0  0  -0.000506  0.131598  0  4.128532  0
C  C55  1  0.96463162  0.71396881  0.45793404  1  0  0.116832  0  3.909811  0  0  0.132192  0  4.142592  0  0  0.132715  0  4.164245  0  0  -0.000517  0.131625  0  4.1284  0
C  C56  1  0.92504233  0.22560672  0.46279688  1  0  -0.124897  0  3.636391  0  0  -0.153737  0  3.880104  0  0  -0.153808  0  3.896906  0  0  -0.065764  -0.152593  0  3.868017  0
C  C57  1  0.07496235  0.77439424  0.53720209  1  0  -0.124875  0  3.636384  0  0  -0.153769  0  3.880081  0  0  -0.15384  0  3.896887  0  0  -0.06576  -0.152619  0  3.867985  0
C  C58  1  0.14193979  0.40046522  0.54401692  1  0  -0.078224  0  3.842418  0  0  -0.076235  0  4.091796  0  0  -0.078616  0  4.12164  0  0  -0.030676  -0.074898  0  4.071999  0
C  C59  1  0.85806213  0.59953253  0.45598712  1  0  -0.078152  0  3.842136  0  0  -0.076171  0  4.091481  0  0  -0.078548  0  4.121315  0  0  -0.030663  -0.074838  0  4.071685  0
C  C60  1  0.23826142  0.49196474  0.54197109  1  0  -0.111098  0  3.853771  0  0  -0.112371  0  4.109371  0  0  -0.116639  0  4.138456  0  0  -0.040445  -0.109263  0  4.089546  0
C  C61  1  0.76174047  0.50803837  0.45804123  1  0  -0.111137  0  3.853757  0  0  -0.112466  0  4.109332  0  0  -0.11673  0  4.138416  0  0  -0.040497  -0.109361  0  4.089501  0
C  C62  1  0.35406973  0.59362406  0.53974507  1  0  0.162101  0  3.894082  0  0  0.171661  0  4.12575  0  0  0.177819  0  4.145915  0  0  0.012583  0.16748  0  4.112101  0
C  C63  1  0.64593198  0.40638335  0.46026674  1  0  0.162055  0  3.894363  0  0  0.171762  0  4.125803  0  0  0.177907  0  4.146014  0  0  0.012665  0.167589  0  4.112113  0
C  C64  1  0.47065026  0.64800735  0.61546222  1  0  -0.162143  0  3.698032  0  0  -0.17882  0  3.938598  0  0  -0.185279  0  3.958102  0  0  -0.078401  -0.174423  0  3.925336  0
C  C65  1  0.52935484  0.35200648  0.38454652  1  0  -0.161976  0  3.698099  0  0  -0.178695  0  3.938624  0  0  -0.185155  0  3.958133  0  0  -0.078305  -0.17429  0  3.925359  0
C  C66  1  0.58262683  0.74695036  0.60977919  1  0  0.114194  0  3.773046  0  0  0.086998  0  4.038058  0  0  0.092058  0  4.056297  0  0  0.04206  0.083735  0  4.025394  0
C  C67  1  0.41737560  0.25306028  0.39022275  1  0  0.114169  0  3.773084  0  0  0.086915  0  4.038102  0  0  0.091974  0  4.056341  0  0  0.041985  0.083651  0  4.025442  0
C  C68  1  0.47575085  0.74259585  0.46360650  1  0  0.117039  0  3.753572  0  0  0.091992  0  4.011574  0  0  0.097448  0  4.028991  0  0  0.041474  0.08859  0  3.999039  0
C  C69  1  0.52423904  0.25740414  0.53639552  1  0  0.117137  0  3.753309  0  0  0.092089  0  4.011325  0  0  0.097547  0  4.028737  0  0  0.04157  0.088686  0  3.998794  0
C  C70  1  0.35847932  0.64313876  0.46184788  1  0  -0.165237  0  3.707  0  0  -0.182515  0  3.952033  0  0  -0.189706  0  3.972966  0  0  -0.080612  -0.177704  0  3.937987  0
C  C71  1  0.64151283  0.35686228  0.53816050  1  0  -0.165356  0  3.706913  0  0  -0.182732  0  3.951966  0  0  -0.189923  0  3.972895  0  0  -0.080796  -0.177916  0  3.937914  0
C  C72  1  0.95997068  0.03254229  0.67639261  1  0  -0.055052  0  3.826583  0  0  -0.05179  0  4.076304  0  0  -0.05263  0  4.105514  0  0  -0.019631  -0.051354  0  4.056935  0
C  C73  1  0.04003147  0.96745116  0.32360601  1  0  -0.054993  0  3.826608  0  0  -0.05172  0  4.07632  0  0  -0.052555  0  4.105527  0  0  -0.019576  -0.051283  0  4.056967  0
C  C74  1  0.97427365  0.96275285  0.73000412  1  0  -0.113614  0  3.82285  0  0  -0.114639  0  4.077954  0  0  -0.119828  0  4.105043  0  0  -0.038969  -0.111693  0  4.060464  0
C  C75  1  0.02573016  0.03724382  0.26999659  1  0  -0.113695  0  3.822909  0  0  -0.114722  0  4.078022  0  0  -0.119914  0  4.105108  0  0  -0.039028  -0.111774  0  4.060546  0
C  C76  1  0.99826446  0.88301125  0.79191345  1  0  0.165101  0  3.890495  0  0  0.174912  0  4.119098  0  0  0.183483  0  4.137441  0  0  0.01223  0.169271  0  4.106185  0
C  C77  1  0.00173291  0.11698439  0.20808712  1  0  0.16509  0  3.890549  0  0  0.174887  0  4.119178  0  0  0.183464  0  4.137514  0  0  0.012241  0.169247  0  4.106267  0
C  C78  1  0.94974854  0.73320455  0.76323712  1  0  -0.17667  0  3.709354  0  0  -0.190205  0  3.945434  0  0  -0.198051  0  3.964913  0  0  -0.085036  -0.184887  0  3.932584  0
C  C79  1  0.05024299  0.26679328  0.23676728  1  0  -0.176663  0  3.709279  0  0  -0.190182  0  3.94535  0  0  -0.198029  0  3.96483  0  0  -0.085014  -0.184863  0  3.932496  0
C  C80  1  0.97896635  0.65949884  0.82632843  1  0  0.12238  0  3.720902  0  0  0.094489  0  3.964891  0  0  0.101332  0  3.980775  0  0  0.038677  0.089818  0  3.955068  0
C  C81  1  0.02102623  0.34049898  0.17367409  1  0  0.122335  0  3.721044  0  0  0.09444  0  3.965004  0  0  0.101286  0  3.980893  0  0  0.038686  0.08979  0  3.955181  0
C  C82  1  0.09768709  0.86794618  0.94289973  1  0  0.116419  0  3.716798  0  0  0.086697  0  3.967451  0  0  0.093036  0  3.984174  0  0  0.036558  0.082235  0  3.956578  0
C  C83  1  0.90231049  0.13205054  0.05710106  1  0  0.116295  0  3.716648  0  0  0.086543  0  3.967323  0  0  0.092888  0  3.984044  0  0  0.036482  0.08205  0  3.956504  0
C  C84  1  0.07461498  0.95044846  0.88475759  1  0  -0.158419  0  3.688352  0  0  -0.17207  0  3.923954  0  0  -0.179669  0  3.943181  0  0  -0.080097  -0.166388  0  3.913317  0
C  C85  1  0.92538280  0.04954932  0.11524475  1  0  -0.158279  0  3.688104  0  0  -0.171922  0  3.923712  0  0  -0.179525  0  3.942941  0  0  -0.080008  -0.166247  0  3.913046  0
I  I86  1  0.86241729  0.62950625  0.09265034  1  0  -0.513833  0  1.319615  0  0  -0.470006  0  1.690101  0  0  -0.489327  0  1.658608  0  0  -0.258979  -0.453552  0  1.711907  0
I  I87  1  0.13758340  0.37049044  0.90735140  1  0  -0.513857  0  1.319633  0  0  -0.470042  0  1.690112  0  0  -0.48936  0  1.658611  0  0  -0.258997  -0.453588  0  1.711919  0
N  N88  1  0.26135580  0.71909927  0.10491537  1  0  -0.268873  0  3.35542  0  0  -0.197002  0  3.643326  0  0  -0.206056  0  3.649895  0  0  -0.361458  -0.191802  0  3.638382  0
N  N89  1  0.73864949  0.28089953  0.89508390  1  0  -0.268799  0  3.355483  0  0  -0.196943  0  3.643398  0  0  -0.205996  0  3.649966  0  0  -0.361428  -0.191723  0  3.638445  0
N  N90  1  0.05135737  0.72460415  0.91536819  1  0  -0.263343  0  3.359529  0  0  -0.191069  0  3.644433  0  0  -0.200603  0  3.652342  0  0  -0.358054  -0.184915  0  3.640184  0
N  N91  1  0.94864018  0.27539256  0.08463524  1  0  -0.263288  0  3.359531  0  0  -0.19095  0  3.644377  0  0  -0.200492  0  3.652291  0  0  -0.358049  -0.184792  0  3.640123  0
N  N92  1  0.58653770  0.79485020  0.53590696  1  0  -0.307488  0  3.103264  0  0  -0.263095  0  3.367407  0  0  -0.274453  0  3.383352  0  0  -0.314374  -0.254958  0  3.355678  0
N  N93  1  0.41345390  0.20515299  0.46409187  1  0  -0.307514  0  3.103216  0  0  -0.263119  0  3.367366  0  0  -0.274473  0  3.383304  0  0  -0.314335  -0.254986  0  3.355646  0
