# generated using pymatgen
data_CuH11C8SN5O3
_symmetry_space_group_name_H-M   'P 1'
_cell_length_a   9.16287040
_cell_length_b   11.21017772
_cell_length_c   11.42600000
_cell_angle_alpha   90.00000000
_cell_angle_beta   91.26075178
_cell_angle_gamma   90.00000000
_symmetry_Int_Tables_number   1
_chemical_formula_structural   CuH11C8SN5O3
_chemical_formula_sum   'Cu4 H44 C32 S4 N20 O12'
_cell_volume   1173.36495471
_cell_formula_units_Z   4
loop_
 _symmetry_equiv_pos_site_id
 _symmetry_equiv_pos_as_xyz
  1  'x, y, z'
loop_
 _atom_site_type_symbol
 _atom_site_label
 _atom_site_symmetry_multiplicity
 _atom_site_fract_x
 _atom_site_fract_y
 _atom_site_fract_z
 _atom_site_occupancy
 _atom_site_hle17_ddec_charge
 _atom_site_hle17_ddec_spin_density
 _atom_site_hle17_ddec_sum_bond_order
 _atom_site_hle17_magmom
 _atom_site_hse06_10hf_ddec_charge
 _atom_site_hse06_10hf_ddec_spin_density
 _atom_site_hse06_10hf_ddec_sum_bond_order
 _atom_site_hse06_10hf_magmom
 _atom_site_hse06_ddec_charge
 _atom_site_hse06_ddec_spin_density
 _atom_site_hse06_ddec_sum_bond_order
 _atom_site_hse06_magmom
 _atom_site_pbe_bader_charge
 _atom_site_pbe_bader_spin_density
 _atom_site_pbe_cm5_charge
 _atom_site_pbe_ddec_charge
 _atom_site_pbe_ddec_spin_density
 _atom_site_pbe_ddec_sum_bond_order
 _atom_site_pbe_magmom
Cu  Cu0  1  0.83342319  0.56315432  0.30698697  1  0.817408  -0.676289  1.847248  -0.456  0.805595  -0.785596  2.241334  -0.592  0.895652  -0.873586  2.171176  -0.683  1.045555  -0.536783  0.752833  0.753357  -0.725009  2.289649  -0.535
Cu  Cu1  1  0.66658682  0.06315600  0.69302975  1  0.817498  0.676209  1.846713  0.456  0.805695  0.785535  2.240647  0.592  0.895699  0.873561  2.170638  0.683  1.045354  0.536729  0.752842  0.753478  0.724971  2.289007  0.535
Cu  Cu2  1  0.16658421  0.43684142  0.69302681  1  0.817578  0.676255  1.846576  0.456  0.805834  0.785594  2.240506  0.592  0.895758  0.873574  2.170501  0.683  1.04529  0.536737  0.752823  0.753543  0.72498  2.288836  0.535
Cu  Cu3  1  0.33342167  0.93684688  0.30698318  1  0.817382  -0.676265  1.847285  -0.456  0.805625  -0.785592  2.24133  -0.592  0.895625  -0.873573  2.171233  -0.683  1.045438  -0.536755  0.752858  0.753354  -0.724985  2.289637  -0.535
H  H4  1  0.87643541  0.37721257  0.55379351  1  0.148244  3.1e-05  0.951943  0.0  0.157071  3.6e-05  1.014103  0.0  0.160165  7e-06  1.013262  0.0  0.126636  0.000112  0.114328  0.154745  6.4e-05  1.014919  0.0
H  H5  1  0.62351783  0.87722784  0.44623971  1  0.148345  -3.1e-05  0.951756  0.0  0.157071  -3.7e-05  1.013904  0.0  0.160161  -7e-06  1.013076  0.0  0.126263  -0.000112  0.114344  0.154749  -6.4e-05  1.014715  0.0
H  H6  1  0.12351522  0.62277246  0.44623940  1  0.148263  -3.1e-05  0.951825  0.0  0.156982  -3.7e-05  1.014012  0.0  0.160072  -7e-06  1.013186  0.0  0.126242  -0.000112  0.114324  0.154657  -6.4e-05  1.014824  0.0
H  H7  1  0.37643608  0.12278664  0.55379151  1  0.148264  3.1e-05  0.95192  0.0  0.157083  3.6e-05  1.01409  0.0  0.160176  8e-06  1.013252  0.0  0.126628  0.000112  0.11433  0.154757  6.4e-05  1.014909  0.0
H  H8  1  0.72978647  0.39837549  0.65172233  1  0.127563  4.4e-05  0.928679  0.0  0.145052  3.2e-05  0.982533  0.0  0.146788  6.3e-05  0.983126  0.0  0.070676  7.5e-05  0.112447  0.143807  -8e-06  0.982308  0.0
H  H9  1  0.77012748  0.89837113  0.34828482  1  0.127562  -4.4e-05  0.928607  0.0  0.144939  -3.3e-05  0.98242  0.0  0.146715  -6.2e-05  0.982964  0.0  0.069961  -7.4e-05  0.112502  0.143672  8e-06  0.982223  0.0
H  H10  1  0.27012269  0.60162739  0.34828097  1  0.12755  -4.4e-05  0.928525  0.0  0.144917  -3.3e-05  0.982385  0.0  0.146693  -6.2e-05  0.98293  0.0  0.069966  -7.5e-05  0.112485  0.143648  8e-06  0.982188  0.0
H  H11  1  0.22978713  0.10162283  0.65172208  1  0.127578  4.4e-05  0.928686  0.0  0.145072  3.3e-05  0.982532  0.0  0.14681  6.3e-05  0.983123  0.0  0.070691  7.4e-05  0.112458  0.143829  -8e-06  0.982306  0.0
H  H12  1  0.60699608  0.32290389  0.48291564  1  0.08966  -0.005002  0.93313  -0.007  0.102312  -0.003567  0.996777  -0.005  0.102492  -0.002474  0.996689  -0.004  0.12916  -0.008003  0.108048  0.102116  -0.004267  0.996413  -0.006
H  H13  1  0.89295607  0.82288080  0.51705455  1  0.08943  0.005004  0.933132  0.007  0.102124  0.003569  0.996879  0.005  0.102296  0.002475  0.996807  0.004  0.129219  0.008004  0.10806  0.101927  0.004269  0.996511  0.006
H  H14  1  0.39295455  0.67711772  0.51705076  1  0.089377  0.005004  0.933135  0.007  0.102122  0.003569  0.996837  0.005  0.102298  0.002475  0.996769  0.004  0.129058  0.008006  0.108057  0.101925  0.004269  0.99647  0.006
H  H15  1  0.10699675  0.17709532  0.48291451  1  0.089673  -0.005003  0.933111  -0.007  0.102324  -0.003568  0.996767  -0.005  0.102504  -0.002474  0.996674  -0.004  0.129117  -0.008004  0.108044  0.102129  -0.004267  0.996402  -0.006
H  H16  1  0.58257424  0.47908429  0.46783130  1  0.069848  -0.000797  0.978375  -0.001  0.084709  -0.000649  1.044772  -0.001  0.084979  -0.000431  1.044803  -0.001  0.074139  -0.001631  0.107616  0.084504  -0.000801  1.044375  -0.001
H  H17  1  0.91740084  0.97905138  0.53216379  1  0.069749  0.000795  0.978357  0.001  0.084596  0.000648  1.044939  0.001  0.084871  0.000431  1.044963  0.001  0.074922  0.001628  0.107514  0.084386  0.000799  1.044542  0.001
H  H18  1  0.41739823  0.52094625  0.53215911  1  0.069752  0.000796  0.978277  0.001  0.084615  0.000648  1.044857  0.001  0.084892  0.000431  1.044885  0.001  0.07487  0.001628  0.107519  0.0844  0.000799  1.044457  0.001
H  H19  1  0.08257381  0.02091581  0.46782841  1  0.069822  -0.000798  0.97841  -0.001  0.084686  -0.00065  1.044807  -0.001  0.084957  -0.000431  1.044834  -0.001  0.074112  -0.001631  0.107612  0.08448  -0.000801  1.044411  -0.001
H  H20  1  0.52207964  0.42404859  0.27974658  1  0.103861  0.00013  0.928766  0.0  0.119226  1.7e-05  0.991633  0.0  0.119995  7.2e-05  0.991246  0.0  0.111786  -0.000239  0.117171  0.118369  -3.3e-05  0.99201  0.0
H  H21  1  0.97789871  0.92407991  0.72023545  1  0.103915  -0.000129  0.928811  0.0  0.119305  -1.7e-05  0.991626  0.0  0.120072  -7.2e-05  0.991244  0.0  0.111627  0.000241  0.117231  0.118447  3.4e-05  0.992009  0.0
H  H22  1  0.47790047  0.57591861  0.72023172  1  0.103892  -0.00013  0.928811  0.0  0.11929  -1.7e-05  0.991629  0.0  0.120056  -7.2e-05  0.991252  0.0  0.111606  0.00024  0.117224  0.118431  3.4e-05  0.992013  0.0
H  H23  1  0.02208140  0.07595330  0.27974372  1  0.103877  0.00013  0.928684  0.0  0.119247  1.7e-05  0.991554  0.0  0.120013  7.2e-05  0.991173  0.0  0.111857  -0.00024  0.117205  0.11839  -3.3e-05  0.991937  0.0
H  H24  1  0.59965599  0.28119358  0.26183216  1  0.102332  -0.003218  0.93371  -0.004  0.116454  -0.002211  0.993075  -0.003  0.117904  -0.001517  0.991224  -0.002  0.13208  -0.004695  0.111501  0.114964  -0.002659  0.994793  -0.003
H  H25  1  0.90040750  0.78119725  0.73816275  1  0.102475  0.003217  0.933682  0.004  0.116576  0.002211  0.993024  0.003  0.118034  0.001517  0.991161  0.002  0.131822  0.004695  0.111563  0.115085  0.002658  0.994745  0.003
H  H26  1  0.40040599  0.71880127  0.73816071  1  0.102468  0.003217  0.933698  0.004  0.116575  0.00221  0.993048  0.003  0.11803  0.001517  0.991194  0.002  0.131845  0.004695  0.11158  0.115084  0.002658  0.994768  0.003
H  H27  1  0.09965557  0.21880920  0.26183276  1  0.10234  -0.003218  0.933709  -0.004  0.116457  -0.002211  0.993076  -0.003  0.117911  -0.001517  0.991219  -0.002  0.132074  -0.004694  0.111521  0.11497  -0.002658  0.994793  -0.003
H  H28  1  0.91186630  0.61731046  0.05590738  1  0.076677  -0.000854  0.980146  -0.002  0.082958  -0.000766  1.05083  -0.002  0.08533  -0.000421  1.048789  -0.001  0.118955  -0.002551  0.113714  0.081507  -0.001115  1.051308  -0.002
H  H29  1  0.58816991  0.11730501  0.94409755  1  0.076818  0.000855  0.979761  0.002  0.082973  0.000766  1.050573  0.002  0.085358  0.00042  1.048519  0.001  0.118925  0.00255  0.113692  0.081521  0.001115  1.051055  0.002
H  H30  1  0.08817167  0.38269777  0.94409732  1  0.076837  0.000855  0.979835  0.002  0.08299  0.000766  1.050642  0.002  0.085373  0.000421  1.048595  0.001  0.118967  0.002551  0.113706  0.081535  0.001115  1.051124  0.002
H  H31  1  0.41186260  0.88268984  0.05590705  1  0.076614  -0.000854  0.980143  -0.002  0.08291  -0.000766  1.05082  -0.002  0.085274  -0.000421  1.048784  -0.001  0.119004  -0.002551  0.113679  0.08146  -0.001115  1.051299  -0.002
H  H32  1  0.83216782  0.53798790  0.85661824  1  0.122214  -0.000699  0.962686  0.0  0.129327  -0.000828  1.024419  -0.001  0.132932  -0.000619  1.023105  0.0  0.15744  -0.00166  0.107037  0.126388  -0.000989  1.025912  -0.001
H  H33  1  0.66783236  0.03795926  0.14338342  1  0.122212  0.000699  0.962758  0.0  0.129397  0.000828  1.024394  0.001  0.133008  0.000619  1.023073  0.0  0.157321  0.00166  0.10706  0.126461  0.000989  1.025885  0.001
H  H34  1  0.16783630  0.46204263  0.14337973  1  0.122179  0.000699  0.962797  0.0  0.129355  0.000828  1.024447  0.001  0.132967  0.000619  1.023122  0.0  0.157333  0.00166  0.107059  0.126407  0.000989  1.025947  0.001
H  H35  1  0.33216631  0.96200973  0.85661795  1  0.122213  -0.000699  0.962702  0.0  0.129312  -0.000828  1.024452  -0.001  0.132916  -0.00062  1.023142  0.0  0.15743  -0.00166  0.107044  0.126389  -0.000989  1.025931  -0.001
H  H36  1  0.64427836  0.37284601  0.85089799  1  0.090616  -0.00028  0.97661  0.0  0.102119  4e-06  1.038036  0.0  0.104311  1.5e-05  1.036384  0.0  0.144267  -2.9e-05  0.106575  0.100228  -1.1e-05  1.039564  0.0
H  H37  1  0.85570763  0.87280151  0.14909730  1  0.090731  0.00028  0.976608  0.0  0.102138  -3e-06  1.03812  0.0  0.104381  -1.5e-05  1.036402  0.0  0.144142  2.9e-05  0.106625  0.100215  1.1e-05  1.039697  0.0
H  H38  1  0.35571157  0.62719791  0.14909361  1  0.090675  0.00028  0.97673  0.0  0.102132  -4e-06  1.03817  0.0  0.104372  -1.5e-05  1.036457  0.0  0.144177  2.9e-05  0.106616  0.100208  1.2e-05  1.039746  0.0
H  H39  1  0.14427903  0.12715499  0.85089598  1  0.090674  -0.00028  0.976629  0.0  0.102138  4e-06  1.038086  0.0  0.10433  1.6e-05  1.036433  0.0  0.144228  -2.8e-05  0.106589  0.100227  -1.1e-05  1.039639  0.0
H  H40  1  0.54539021  0.29733605  0.03851689  1  0.113923  -0.000727  0.933898  -0.001  0.129082  -0.000801  0.983407  -0.001  0.132048  -0.000574  0.983261  0.0  0.071562  -0.001895  0.112769  0.127018  -0.000967  0.983228  -0.001
H  H41  1  0.95462417  0.79731475  0.96147803  1  0.113951  0.000727  0.933898  0.001  0.129107  0.000801  0.983423  0.001  0.132077  0.000574  0.983268  0.0  0.071254  0.001894  0.112776  0.127047  0.000967  0.983242  0.001
H  H42  1  0.45463138  0.70268288  0.96147352  1  0.113934  0.000727  0.93402  0.001  0.129103  0.000801  0.983524  0.001  0.132073  0.000574  0.983369  0.0  0.07122  0.001895  0.112761  0.127039  0.000967  0.983344  0.001
H  H43  1  0.04539196  0.20266940  0.03851315  1  0.11396  -0.000727  0.933954  -0.001  0.129131  -0.000801  0.983437  -0.001  0.132101  -0.000574  0.983285  0.0  0.071818  -0.001894  0.112784  0.127068  -0.000967  0.983259  -0.001
H  H44  1  0.81402173  0.34520862  0.35430699  1  0.280891  0.000433  0.876615  0.001  0.274795  -0.000441  0.9287  0.0  0.28063  -0.000111  0.926393  0.0  0.457423  -0.000404  0.304009  0.27051  -0.000674  0.93078  -0.001
H  H45  1  0.68597517  0.84518464  0.64569987  1  0.280798  -0.000432  0.87677  -0.001  0.274666  0.000443  0.928952  0.0  0.280513  0.000111  0.92662  0.0  0.457056  0.000407  0.303915  0.270377  0.000676  0.931037  0.001
H  H46  1  0.18597475  0.65481388  0.64569785  1  0.280715  -0.000432  0.876845  -0.001  0.274593  0.000443  0.928986  0.0  0.280436  0.000112  0.926663  0.0  0.457069  0.000408  0.303899  0.270303  0.000676  0.931067  0.001
H  H47  1  0.31402240  0.15479237  0.35430674  1  0.280933  0.000433  0.876564  0.001  0.274822  -0.000441  0.92868  0.0  0.280663  -0.000111  0.926361  0.0  0.4574  -0.000404  0.303997  0.270538  -0.000674  0.930761  -0.001
C  C48  1  0.77484985  0.42629476  0.56796905  1  -0.335567  0.000184  3.61668  0.0  -0.372991  -3.3e-05  3.870434  0.0  -0.38017  9.3e-05  3.879473  0.0  -0.161435  -0.000566  -0.158636  -0.368377  -0.000159  3.864918  0.0
C  C49  1  0.72510448  0.92630021  0.43203968  1  -0.33627  -0.000182  3.617451  0.0  -0.372881  3.9e-05  3.870324  0.0  -0.380096  -9.1e-05  3.879375  0.0  -0.160162  0.000567  -0.158756  -0.368252  0.00016  3.8648  0.0
C  C50  1  0.22510188  0.57369831  0.43203762  1  -0.336085  -0.000182  3.61726  0.0  -0.372756  4e-05  3.870293  0.0  -0.379965  -8.7e-05  3.879343  0.0  -0.160057  0.000567  -0.158712  -0.368123  0.00016  3.864764  0.0
C  C51  1  0.27485161  0.07370534  0.56796882  1  -0.335573  0.000184  3.616642  0.0  -0.37301  -3.7e-05  3.870417  0.0  -0.380193  8.5e-05  3.879455  0.0  -0.161433  -0.000567  -0.158642  -0.368395  -0.00016  3.864899  0.0
C  C52  1  0.66400403  0.40782047  0.46925146  1  0.047794  0.001307  3.640412  0.004  -0.010378  -0.00122  3.905087  0.001  -0.00444  -0.000278  3.91908  0.002  0.25251  -0.001966  -0.075543  -0.013736  -0.002012  3.895343  0.0
C  C53  1  0.83595904  0.90780095  0.53073555  1  0.048654  -0.001311  3.640132  -0.004  -0.009968  0.001218  3.90526  -0.001  -0.00402  0.000278  3.91923  -0.002  0.252378  0.001967  -0.075429  -0.013308  0.00201  3.895484  0.0
C  C54  1  0.33595643  0.59219757  0.53073349  1  0.048688  -0.001311  3.640102  -0.004  -0.010003  0.001218  3.905335  -0.001  -0.00402  0.00028  3.919206  -0.002  0.252449  0.001965  -0.07548  -0.013343  0.00201  3.895555  0.0
C  C55  1  0.16400470  0.09217873  0.46925034  1  0.047827  0.001307  3.640415  0.004  -0.010314  -0.001217  3.905029  0.001  -0.004381  -0.000279  3.919036  0.002  0.252597  -0.001965  -0.075531  -0.01367  -0.002012  3.895279  0.0
C  C56  1  0.62444135  0.37729910  0.26070988  1  -0.066924  0.000961  3.649613  0.003  -0.125595  -0.001327  3.902905  0.001  -0.12192  -0.000604  3.913967  0.001  0.223296  -0.001889  -0.066983  -0.127557  -0.001896  3.895877  0.0
C  C57  1  0.87556975  0.87729296  0.73929023  1  -0.067293  -0.000961  3.650089  -0.003  -0.12592  0.001326  3.903271  -0.001  -0.122252  0.000606  3.914342  -0.001  0.223311  0.001887  -0.067088  -0.127885  0.001896  3.896244  0.0
C  C58  1  0.37557042  0.62270556  0.73928647  1  -0.067146  -0.000961  3.650166  -0.003  -0.125825  0.00133  3.903397  -0.001  -0.122168  0.000607  3.914495  -0.001  0.223278  0.001888  -0.067071  -0.127797  0.001897  3.896372  0.0
C  C59  1  0.12444092  0.12270457  0.26070611  1  -0.066834  0.000962  3.649605  0.003  -0.125502  -0.001328  3.902891  0.001  -0.121827  -0.000605  3.913955  0.001  0.222937  -0.00189  -0.06701  -0.127468  -0.001896  3.895867  0.0
C  C60  1  0.67767991  0.41624139  0.14392826  1  0.25054  0.004989  3.708561  0.005  0.25186  -2e-06  3.954414  0.001  0.262009  0.001281  3.975517  0.002  0.480894  -0.000281  0.124945  0.24479  -0.00097  3.94065  0.0
C  C61  1  0.82234319  0.91622544  0.85607381  1  0.25067  -0.00499  3.708967  -0.005  0.251997  4e-06  3.954811  -0.001  0.26215  -0.00128  3.975907  -0.002  0.480924  0.00028  0.12495  0.244949  0.000971  3.941018  0.0
C  C62  1  0.32234495  0.58377219  0.85606920  1  0.250473  -0.004992  3.709242  -0.005  0.251831  3e-06  3.955071  -0.001  0.261983  -0.001281  3.976172  -0.002  0.480886  0.000281  0.124893  0.24478  0.000971  3.941277  0.0
C  C63  1  0.17768058  0.08376228  0.14392451  1  0.250563  0.004991  3.708521  0.005  0.251874  -2e-06  3.95439  0.001  0.262022  0.001281  3.975493  0.002  0.481131  -0.000283  0.124969  0.244809  -0.00097  3.94062  0.0
C  C64  1  0.83069740  0.54684146  0.04517973  1  0.127319  0.007013  3.715837  0.008  0.101166  0.001069  3.964232  0.003  0.110417  0.002238  3.983704  0.004  0.375545  0.001294  0.046357  0.095632  0.00012  3.94997  0.002
C  C65  1  0.66934535  0.04683333  0.95482006  1  0.127188  -0.007022  3.714722  -0.008  0.101136  -0.00107  3.963151  -0.003  0.11038  -0.00224  3.982614  -0.004  0.375641  -0.001298  0.046316  0.095601  -0.000121  3.948898  -0.002
C  C66  1  0.16934711  0.45316855  0.95482158  1  0.127062  -0.007022  3.714791  -0.008  0.101014  -0.001069  3.963231  -0.003  0.110253  -0.002239  3.982692  -0.004  0.375883  -0.001296  0.046261  0.095477  -0.00012  3.948973  -0.002
C  C67  1  0.33069370  0.95315973  0.04517853  1  0.127445  0.007017  3.715698  0.008  0.101274  0.001069  3.964086  0.003  0.110532  0.002237  3.983561  0.004  0.375074  0.001293  0.046425  0.09574  0.00012  3.949829  0.002
C  C68  1  0.78533382  0.50294832  0.93656468  1  -0.127979  -0.01039  3.720025  -0.01  -0.140684  -0.004638  3.9683  -0.005  -0.149314  -0.004254  3.988845  -0.005  0.017505  -0.006755  -0.086074  -0.13523  -0.004893  3.953464  -0.005
C  C69  1  0.71469256  0.00291432  0.06344095  1  -0.128013  0.010397  3.719861  0.01  -0.140772  0.00464  3.968058  0.005  -0.149405  0.004257  3.988609  0.005  0.018427  0.006758  -0.085969  -0.135315  0.004896  3.95322  0.005
C  C70  1  0.21469541  0.49708757  0.06343899  1  -0.127904  0.010398  3.719875  0.01  -0.140656  0.004638  3.968094  0.005  -0.149287  0.004255  3.988643  0.005  0.018466  0.006757  -0.085963  -0.13519  0.004895  3.953253  0.005
C  C71  1  0.28533121  0.99705288  0.93656262  1  -0.128057  -0.010393  3.720085  -0.01  -0.14076  -0.004638  3.968367  -0.005  -0.149391  -0.004255  3.98891  -0.005  0.01799  -0.006755  -0.086105  -0.135312  -0.004894  3.953524  -0.005
C  C72  1  0.68130193  0.41184004  0.93352394  1  0.009074  0.008656  3.725302  0.008  -0.008975  0.003009  3.971915  0.003  -0.002727  0.003285  3.988759  0.003  -0.060118  0.004032  -0.066  -0.012977  0.002817  3.960092  0.003
C  C73  1  0.81871026  0.91180089  0.06647269  1  0.009136  -0.00866  3.725597  -0.008  -0.008813  -0.003009  3.972206  -0.003  -0.002595  -0.003284  3.989021  -0.003  -0.061393  -0.004031  -0.066045  -0.012795  -0.002817  3.960397  -0.003
C  C74  1  0.31871311  0.58820120  0.06646810  1  0.009128  -0.008661  3.725643  -0.008  -0.00886  -0.003008  3.972238  -0.003  -0.002639  -0.003283  3.989054  -0.003  -0.061763  -0.004032  -0.066069  -0.012843  -0.002817  3.960423  -0.003
C  C75  1  0.18130150  0.08816185  0.93352192  1  0.009121  0.008659  3.72547  0.008  -0.008883  0.003009  3.972058  0.003  -0.002633  0.003285  3.988901  0.003  -0.060314  0.004031  -0.065985  -0.012869  0.002817  3.960251  0.003
C  C76  1  0.62686039  0.36818685  0.03803770  1  -0.166481  -0.008128  3.712757  -0.008  -0.183309  -0.003513  3.95588  -0.004  -0.192323  -0.003503  3.97685  -0.004  0.008991  -0.004596  -0.083535  -0.176981  -0.003489  3.940816  -0.003
C  C77  1  0.87316054  0.86816465  0.96195733  1  -0.166463  0.008132  3.712808  0.008  -0.183349  0.003513  3.955983  0.004  -0.192367  0.003502  3.976962  0.004  0.010159  0.004596  -0.083463  -0.177025  0.00349  3.940907  0.003
C  C78  1  0.37316557  0.63183476  0.96195278  1  -0.16638  0.008135  3.712952  0.008  -0.183285  0.003515  3.956123  0.004  -0.192303  0.003503  3.977104  0.004  0.010532  0.004596  -0.083399  -0.176962  0.00349  3.941048  0.003
C  C79  1  0.12685996  0.13181771  0.03803481  1  -0.166631  -0.008131  3.712948  -0.008  -0.183468  -0.003514  3.956056  -0.004  -0.192485  -0.003503  3.977027  -0.004  0.008952  -0.004595  -0.083573  -0.177139  -0.003489  3.940988  -0.003
S  S80  1  0.82442274  0.57970713  0.58627504  1  1.345393  -0.002599  5.515795  0.0  1.260475  -0.004186  6.038944  -0.002  1.308684  -0.00332  6.016644  -0.002  3.124567  -0.003253  0.50745  1.227162  -0.004983  6.053542  -0.002
S  S81  1  0.67555343  0.07971417  0.41373408  1  1.345403  0.002597  5.516012  0.0  1.260319  0.004181  6.039173  0.002  1.308508  0.003319  6.016904  0.002  3.124081  0.003251  0.507414  1.227015  0.004981  6.053753  0.002
S  S82  1  0.17555082  0.42028593  0.41373027  1  1.345392  0.002598  5.516189  0.0  1.260377  0.004185  6.039288  0.002  1.308579  0.003319  6.017003  0.002  3.124518  0.003252  0.507413  1.227071  0.004983  6.053865  0.002
S  S83  1  0.32442122  0.92029139  0.58627212  1  1.345425  -0.002598  5.515791  0.0  1.260484  -0.004183  6.038965  -0.002  1.308701  -0.003322  6.016657  -0.002  3.124574  -0.003253  0.507443  1.227172  -0.004984  6.053567  -0.002
N  N84  1  0.95402487  0.68991056  0.23756233  1  -0.502772  -0.07125  2.702766  -0.083  -0.553211  -0.029566  3.05048  -0.037  -0.589391  -0.015663  3.059619  -0.022  -0.252852  -0.052743  -0.314304  -0.530273  -0.039109  3.044955  -0.047
N  N85  1  0.54599606  0.18993276  0.76248784  1  -0.502786  0.071268  2.702492  0.083  -0.553212  0.02957  3.050297  0.037  -0.589353  0.015662  3.059381  0.022  -0.252319  0.052751  -0.314461  -0.530269  0.039114  3.044755  0.047
N  N86  1  0.04599563  0.31006734  0.76248757  1  -0.502908  0.071342  2.702107  0.083  -0.553339  0.029589  3.049928  0.037  -0.589474  0.015679  3.058997  0.022  -0.252689  0.052788  -0.314487  -0.530361  0.039137  3.044345  0.047
N  N87  1  0.45402553  0.81008974  0.23756032  1  -0.502825  -0.071238  2.702746  -0.083  -0.553276  -0.029562  3.050502  -0.037  -0.58944  -0.015659  3.059635  -0.022  -0.252908  -0.052741  -0.314331  -0.530328  -0.039107  3.044962  -0.047
N  N88  1  0.01951499  0.76860958  0.28662124  1  0.383937  0.029305  4.195342  0.044  0.442355  0.002891  4.507457  0.009  0.46319  0.004006  4.542092  0.009  -0.369436  -0.00184  0.081347  0.429386  0.000853  4.483187  0.007
N  N89  1  0.48051928  0.26862197  0.71340150  1  0.383584  -0.029323  4.195423  -0.044  0.441869  -0.002896  4.507691  -0.009  0.462711  -0.004014  4.542329  -0.009  -0.36926  0.001833  0.081273  0.428902  -0.000859  4.483429  -0.007
N  N90  1  0.98051425  0.23137011  0.71339467  1  0.383696  -0.0293  4.195388  -0.044  0.441997  -0.002884  4.507625  -0.009  0.462839  -0.004005  4.542257  -0.009  -0.369166  0.001848  0.081312  0.429031  -0.000849  4.483358  -0.007
N  N91  1  0.51951323  0.73139251  0.28661885  1  0.383965  0.029311  4.195299  0.044  0.442364  0.002894  4.507448  0.009  0.463199  0.004009  4.542086  0.009  -0.369425  -0.001837  0.081321  0.429395  0.000856  4.483174  0.007
N  N92  1  0.08437827  0.84840671  0.32906802  1  -0.374034  -0.130767  2.477495  -0.141  -0.418271  -0.055026  2.764192  -0.063  -0.436554  -0.044524  2.773774  -0.053  -0.041353  -0.092406  -0.198384  -0.407259  -0.062102  2.758524  -0.069
N  N93  1  0.41567783  0.34840304  0.67089998  1  -0.373637  0.130823  2.477348  0.141  -0.417807  0.055056  2.764087  0.063  -0.436101  0.044548  2.773683  0.054  -0.04183  0.092458  -0.198127  -0.406786  0.06213  2.7584  0.069
N  N94  1  0.91567825  0.15159617  0.67090200  1  -0.373633  0.130711  2.47772  0.141  -0.417821  0.055019  2.76445  0.063  -0.436107  0.044522  2.774048  0.053  -0.041538  0.092407  -0.198131  -0.406834  0.062098  2.758807  0.069
N  N95  1  0.58437760  0.65159360  0.32906827  1  -0.373995  -0.130794  2.477437  -0.141  -0.418224  -0.055033  2.764135  -0.063  -0.43652  -0.044532  2.773725  -0.053  -0.041315  -0.092422  -0.198333  -0.407208  -0.062113  2.758467  -0.069
N  N96  1  0.73233323  0.40835392  0.35366819  1  -0.368431  -0.097421  3.246204  -0.114  -0.322009  -0.070697  3.524902  -0.09  -0.35505  -0.057787  3.543823  -0.078  -1.028645  -0.111045  -0.489749  -0.303029  -0.076217  3.514406  -0.093
N  N97  1  0.76765386  0.90833618  0.64633499  1  -0.368375  0.09744  3.245914  0.114  -0.321888  0.070718  3.524724  0.09  -0.354924  0.057804  3.543648  0.078  -1.028657  0.111058  -0.4896  -0.302917  0.076229  3.514248  0.093
N  N98  1  0.26765452  0.59166323  0.64633387  1  -0.368391  0.097435  3.245943  0.114  -0.321867  0.070703  3.524766  0.09  -0.354883  0.057794  3.543676  0.078  -1.028692  0.111057  -0.489554  -0.302872  0.076228  3.514252  0.093
N  N99  1  0.23233280  0.09164708  0.35366530  1  -0.368585  -0.097425  3.246307  -0.114  -0.322178  -0.070702  3.525053  -0.09  -0.355207  -0.057793  3.543961  -0.078  -1.028673  -0.111052  -0.489776  -0.303189  -0.076222  3.51455  -0.093
N  N100  1  0.77788129  0.50443625  0.14572690  1  -0.334523  -0.078537  3.312692  -0.092  -0.281398  -0.06312  3.587417  -0.081  -0.313102  -0.054583  3.608951  -0.073  -1.239678  -0.095818  -0.34172  -0.263374  -0.06689  3.575894  -0.082
N  N101  1  0.72214945  0.00442990  0.85426918  1  -0.334734  0.078534  3.312885  0.092  -0.281608  0.063116  3.58761  0.081  -0.313312  0.054581  3.609148  0.073  -1.239672  0.095811  -0.341887  -0.263597  0.066883  3.576111  0.082
N  N102  1  0.22215121  0.49557020  0.85426807  1  -0.334626  0.078541  3.312816  0.092  -0.281518  0.063115  3.587542  0.081  -0.313202  0.054581  3.609059  0.073  -1.239878  0.095815  -0.341879  -0.26349  0.066885  3.576013  0.082
N  N103  1  0.27788196  0.99556673  0.14572577  1  -0.334539  -0.078535  3.31259  -0.092  -0.281407  -0.063118  3.58733  -0.081  -0.313099  -0.054584  3.60886  -0.073  -1.23958  -0.095818  -0.341749  -0.263374  -0.066889  3.575795  -0.082
O  O104  1  0.88539547  0.61730868  0.47061448  1  -0.690411  -0.041388  2.093904  -0.051  -0.639047  -0.032255  2.389176  -0.043  -0.672018  -0.026412  2.374432  -0.036  -1.294816  -0.052803  -0.360306  -0.617499  -0.035921  2.399926  -0.046
O  O105  1  0.61459489  0.11732731  0.52939839  1  -0.690407  0.041378  2.093787  0.051  -0.638905  0.032247  2.388847  0.043  -0.671867  0.026402  2.374137  0.036  -1.294467  0.052792  -0.360137  -0.617363  0.035913  2.399607  0.046
O  O106  1  0.11459664  0.38266922  0.52939378  1  -0.690416  0.041378  2.093846  0.051  -0.638953  0.032243  2.388948  0.043  -0.671894  0.0264  2.374208  0.036  -1.294769  0.05279  -0.360151  -0.617397  0.035912  2.399686  0.046
O  O107  1  0.38539723  0.88269252  0.47061250  1  -0.690325  -0.041386  2.09389  -0.051  -0.639001  -0.032253  2.389239  -0.043  -0.671964  -0.026409  2.374504  -0.036  -1.294845  -0.052803  -0.360241  -0.617444  -0.035921  2.399975  -0.046
O  O108  1  0.69233935  0.64577567  0.61512513  1  -0.655714  -0.001761  1.900458  -0.002  -0.600262  -0.001619  2.135326  -0.002  -0.619954  -0.001092  2.122643  -0.002  -1.336062  -0.003464  -0.340894  -0.585617  -0.002184  2.142741  -0.003
O  O109  1  0.80765101  0.14575951  0.38488336  1  -0.655609  0.001762  1.900323  0.002  -0.600279  0.001621  2.135319  0.002  -0.619933  0.001088  2.12262  0.002  -1.336396  0.003467  -0.340965  -0.585638  0.002186  2.142734  0.003
O  O110  1  0.30764622  0.35424059  0.38487864  1  -0.65575  0.001764  1.900599  0.002  -0.600365  0.001621  2.135522  0.002  -0.620052  0.001089  2.122835  0.002  -1.336356  0.003467  -0.341026  -0.58573  0.002186  2.142939  0.003
O  O111  1  0.19233456  0.85422553  0.61511953  1  -0.65569  -0.001762  1.900508  -0.002  -0.600237  -0.00162  2.135371  -0.002  -0.619932  -0.00109  2.122689  -0.002  -1.3361  -0.003465  -0.340887  -0.585588  -0.002184  2.142785  -0.003
O  O112  1  0.93961541  0.58524407  0.67778856  1  -0.684503  -0.008661  1.949172  -0.009  -0.64849  -0.006238  2.215826  -0.007  -0.670639  -0.00483  2.198461  -0.006  -1.33877  -0.011206  -0.346072  -0.632638  -0.007509  2.226841  -0.008
O  O113  1  0.56037058  0.08525556  0.32221110  1  -0.684527  0.008657  1.949269  0.009  -0.648483  0.006236  2.215928  0.007  -0.670643  0.00483  2.19858  0.006  -1.33839  0.011199  -0.346091  -0.632638  0.007506  2.226952  0.008
O  O114  1  0.06036361  0.41474365  0.32220984  1  -0.68439  0.008656  1.949192  0.009  -0.648432  0.006234  2.215871  0.007  -0.670624  0.004823  2.198573  0.006  -1.338568  0.011201  -0.346002  -0.632584  0.007506  2.226882  0.008
O  O115  1  0.43961280  0.91475445  0.67778825  1  -0.684612  -0.008662  1.949063  -0.009  -0.648551  -0.006239  2.215691  -0.007  -0.670709  -0.004824  2.19833  -0.006  -1.338701  -0.011208  -0.34613  -0.632712  -0.007511  2.226725  -0.008
