# generated using pymatgen
data_Cd2H18C10O13
_symmetry_space_group_name_H-M   'P 1'
_cell_length_a   8.70341939
_cell_length_b   9.35280580
_cell_length_c   10.89717622
_cell_angle_alpha   88.43175139
_cell_angle_beta   83.46276204
_cell_angle_gamma   67.74306755
_symmetry_Int_Tables_number   1
_chemical_formula_structural   Cd2H18C10O13
_chemical_formula_sum   'Cd4 H36 C20 O26'
_cell_volume   815.49819667
_cell_formula_units_Z   2
loop_
 _symmetry_equiv_pos_site_id
 _symmetry_equiv_pos_as_xyz
  1  'x, y, z'
loop_
 _atom_site_type_symbol
 _atom_site_label
 _atom_site_symmetry_multiplicity
 _atom_site_fract_x
 _atom_site_fract_y
 _atom_site_fract_z
 _atom_site_occupancy
 _atom_site_hle17_bader_spin_density
 _atom_site_hle17_ddec_charge
 _atom_site_hle17_ddec_spin_density
 _atom_site_hle17_ddec_sum_bond_order
 _atom_site_hle17_magmom
 _atom_site_hse06_10hf_bader_spin_density
 _atom_site_hse06_10hf_ddec_charge
 _atom_site_hse06_10hf_ddec_spin_density
 _atom_site_hse06_10hf_ddec_sum_bond_order
 _atom_site_hse06_10hf_magmom
 _atom_site_hse06_bader_spin_density
 _atom_site_hse06_ddec_charge
 _atom_site_hse06_ddec_spin_density
 _atom_site_hse06_ddec_sum_bond_order
 _atom_site_hse06_magmom
 _atom_site_pbe_bader_spin_density
 _atom_site_pbe_cm5_charge
 _atom_site_pbe_ddec_charge
 _atom_site_pbe_ddec_spin_density
 _atom_site_pbe_ddec_sum_bond_order
 _atom_site_pbe_magmom
Cd  Cd0  1  0.32133728  0.94968320  0.01145027  1  0  1.24115  0  1.567799  0  0  1.071499  0  1.999197  0  0  1.130774  0  1.939345  0  0  0.773423  1.024796  0  2.042921  0
Cd  Cd1  1  0.67866207  0.05031302  0.98855111  1  0  1.241123  0  1.567843  0  0  1.071482  0  1.999265  0  0  1.130763  0  1.939394  0  0  0.77342  1.02475  0  2.043048  0
Cd  Cd2  1  0.69736084  0.20644993  0.51600594  1  0  1.231973  0  1.514926  0  0  1.058345  0  1.935709  0  0  1.118976  0  1.876467  0  0  0.765153  1.014958  0  1.9757  0
Cd  Cd3  1  0.30263741  0.79355674  0.48399331  1  0  1.232006  0  1.514924  0  0  1.05835  0  1.935741  0  0  1.119002  0  1.876475  0  0  0.765161  1.014962  0  1.975735  0
H  H4  1  0.16174185  0.87065572  0.83797926  1  0  0.42856  0  0.856794  0  0  0.395735  0  0.932442  0  0  0.405818  0  0.917929  0  0  0.298522  0.388353  0  0.943074  0
H  H5  1  0.83825879  0.12934284  0.16202008  1  0  0.428504  0  0.856903  0  0  0.395673  0  0.932517  0  0  0.405755  0  0.918005  0  0  0.298497  0.388294  0  0.943144  0
H  H6  1  0.34852330  0.80615198  0.77506779  1  0  0.447305  0  0.836736  0  0  0.419114  0  0.893939  0  0  0.429399  0  0.879046  0  0  0.30129  0.411539  0  0.904937  0
H  H7  1  0.65147507  0.19384648  0.22493085  1  0  0.447212  0  0.836846  0  0  0.419076  0  0.893969  0  0  0.429361  0  0.879076  0  0  0.301272  0.411501  0  0.904969  0
H  H8  1  0.30036109  0.68610379  0.08648832  1  0  0.447781  0  0.812605  0  0  0.422386  0  0.876206  0  0  0.431803  0  0.864238  0  0  0.315785  0.415681  0  0.883899  0
H  H9  1  0.69964001  0.31389373  0.91351652  1  0  0.447797  0  0.812532  0  0  0.422366  0  0.876222  0  0  0.431782  0  0.864271  0  0  0.315768  0.415661  0  0.883929  0
H  H10  1  0.11609001  0.78180653  0.04461989  1  0  0.434526  0  0.868973  0  0  0.397919  0  0.942212  0  0  0.40935  0  0.925654  0  0  0.290996  0.389465  0  0.954545  0
H  H11  1  0.88391275  0.21818983  0.95538300  1  0  0.434576  0  0.868909  0  0  0.397975  0  0.942136  0  0  0.409408  0  0.925577  0  0  0.291039  0.389524  0  0.954464  0
H  H12  1  0.70895804  0.89403114  0.46932878  1  0  0.437488  0  0.861913  0  0  0.403711  0  0.9286  0  0  0.41584  0  0.911175  0  0  0.288911  0.395082  0  0.940924  0
H  H13  1  0.29103449  0.10597537  0.53067100  1  0  0.4375  0  0.861902  0  0  0.403711  0  0.928599  0  0  0.41584  0  0.911174  0  0  0.288935  0.395085  0  0.940916  0
H  H14  1  0.88710752  0.90961010  0.42431546  1  0  0.424462  0  0.871982  0  0  0.395038  0  0.934306  0  0  0.405248  0  0.919529  0  0  0.292567  0.387385  0  0.945452  0
H  H15  1  0.11288550  0.09039532  0.57568706  1  0  0.424391  0  0.872038  0  0  0.394979  0  0.934382  0  0  0.405189  0  0.919604  0  0  0.292549  0.387324  0  0.945534  0
H  H16  1  0.87220543  0.14885835  0.74282360  1  0  0.439758  0  0.852472  0  0  0.409191  0  0.913923  0  0  0.419272  0  0.899328  0  0  0.295476  0.402207  0  0.923996  0
H  H17  1  0.12779087  0.85114484  0.25717963  1  0  0.439807  0  0.852411  0  0  0.409237  0  0.913873  0  0  0.419317  0  0.899279  0  0  0.295457  0.402248  0  0.923952  0
H  H18  1  0.93867118  0.99216887  0.66318256  1  0  0.443916  0  0.841955  0  0  0.410331  0  0.912413  0  0  0.420883  0  0.89724  0  0  0.301445  0.402798  0  0.923273  0
H  H19  1  0.06132235  0.00783536  0.33681905  1  0  0.443993  0  0.841897  0  0  0.410412  0  0.9123  0  0  0.420962  0  0.897132  0  0  0.301461  0.402879  0  0.92316  0
H  H20  1  0.52188873  0.45396599  0.33017742  1  0  0.440525  0  0.848049  0  0  0.407986  0  0.913521  0  0  0.418212  0  0.898623  0  0  0.298937  0.400627  0  0.924183  0
H  H21  1  0.47810596  0.54603822  0.66982133  1  0  0.440546  0  0.848032  0  0  0.407996  0  0.91352  0  0  0.418224  0  0.89862  0  0  0.298926  0.400638  0  0.924181  0
H  H22  1  0.42148061  0.35147237  0.38175778  1  0  0.440417  0  0.818131  0  0  0.415276  0  0.883705  0  0  0.424193  0  0.870649  0  0  0.31577  0.409038  0  0.891025  0
H  H23  1  0.57851685  0.64853079  0.61824259  1  0  0.440457  0  0.818046  0  0  0.415295  0  0.883676  0  0  0.424211  0  0.870622  0  0  0.315771  0.409057  0  0.89099  0
H  H24  1  0.09041506  0.43439291  0.12154869  1  0  0.084736  0  0.913171  0  0  0.101567  0  0.96749  0  0  0.102575  0  0.968164  0  0  0.109689  0.100927  0  0.967539  0
H  H25  1  0.90958771  0.56560343  0.87845329  1  0  0.084717  0  0.913155  0  0  0.101552  0  0.967493  0  0  0.102559  0  0.968173  0  0  0.109674  0.100912  0  0.967546  0
H  H26  1  0.12379586  0.36151932  0.33439930  1  0  0.102468  0  0.896209  0  0  0.115729  0  0.949752  0  0  0.118512  0  0.948079  0  0  0.113679  0.113525  0  0.951309  0
H  H27  1  0.87620564  0.63848521  0.66560432  1  0  0.102448  0  0.896108  0  0  0.115733  0  0.949689  0  0  0.118515  0  0.948015  0  0  0.113678  0.11353  0  0.951246  0
H  H28  1  0.04013565  0.62799232  0.28476177  1  0  0.080314  0  0.93334  0  0  0.097412  0  0.996338  0  0  0.098849  0  0.995777  0  0  0.0922  0.096399  0  0.996651  0
H  H29  1  0.95986362  0.37201200  0.71523564  1  0  0.080298  0  0.933395  0  0  0.097413  0  0.996371  0  0  0.098848  0  0.995812  0  0  0.092215  0.096405  0  0.996683  0
H  H30  1  0.92456916  0.61979148  0.42628600  1  0  0.09049  0  0.949676  0  0  0.102577  0  1.019092  0  0  0.104159  0  1.018937  0  0  0.095919  0.101041  0  1.019556  0
H  H31  1  0.07543124  0.38021289  0.57371222  1  0  0.0905  0  0.949688  0  0  0.102582  0  1.019123  0  0  0.104166  0  1.018965  0  0  0.095937  0.101048  0  1.019584  0
H  H32  1  0.77502916  0.81036912  0.26474459  1  0  0.092922  0  0.92348  0  0  0.104929  0  0.98225  0  0  0.107272  0  0.980935  0  0  0.109305  0.102654  0  0.984374  0
H  H33  1  0.22496821  0.18963162  0.73525221  1  0  0.09297  0  0.923479  0  0  0.104946  0  0.982237  0  0  0.107289  0  0.980921  0  0  0.109315  0.102668  0  0.984364  0
H  H34  1  0.87696474  0.67104286  0.08396103  1  0  0.077559  0  0.937036  0  0  0.090821  0  0.999764  0  0  0.091813  0  1.000541  0  0  0.104347  0.089626  0  1.000238  0
H  H35  1  0.12303426  0.32895679  0.91603750  1  0  0.077531  0  0.937053  0  0  0.090832  0  0.999738  0  0  0.091827  0  1.000514  0  0  0.104361  0.089642  0  1.000206  0
H  H36  1  0.83876225  0.43682661  0.02541330  1  0  0.061239  0  0.97604  0  0  0.076735  0  1.047951  0  0  0.078291  0  1.046448  0  0  0.089008  0.075412  0  1.049583  0
H  H37  1  0.16124612  0.56316751  0.97458641  1  0  0.061252  0  0.975963  0  0  0.076758  0  1.047895  0  0  0.078296  0  1.046413  0  0  0.089002  0.075433  0  1.049529  0
H  H38  1  0.74017728  0.42511374  0.17287266  1  0  0.085752  0  0.93514  0  0  0.105501  0  0.994698  0  0  0.106753  0  0.994483  0  0  0.096677  0.104415  0  0.995108  0
H  H39  1  0.25982881  0.57488029  0.82712635  1  0  0.085766  0  0.935056  0  0  0.1055  0  0.994655  0  0  0.106756  0  0.994432  0  0  0.096701  0.104414  0  0.995059  0
C  C40  1  0.00424144  0.38351276  0.16889436  1  0  -0.123359  0  3.657777  0  0  -0.126456  0  3.895372  0  0  -0.131764  0  3.909597  0  0  -0.088699  -0.123159  0  3.886649  0
C  C41  1  0.99576184  0.61648240  0.83110670  1  0  -0.123341  0  3.657622  0  0  -0.126465  0  3.895297  0  0  -0.131772  0  3.909515  0  0  -0.088731  -0.123171  0  3.88657  0
C  C42  1  0.99661606  0.41832979  0.30697423  1  0  -0.117654  0  3.613619  0  0  -0.123116  0  3.85347  0  0  -0.12829  0  3.866101  0  0  -0.083531  -0.119546  0  3.845006  0
C  C43  1  0.00338697  0.58167126  0.69302846  1  0  -0.117572  0  3.613524  0  0  -0.123196  0  3.853687  0  0  -0.128367  0  3.866317  0  0  -0.083504  -0.119626  0  3.845228  0
C  C44  1  0.93939466  0.59302262  0.32750812  1  0  -0.125833  0  3.631594  0  0  -0.179239  0  3.891936  0  0  -0.178588  0  3.903843  0  0  -0.163633  -0.179822  0  3.884049  0
C  C45  1  0.06060511  0.40698057  0.67249020  1  0  -0.125745  0  3.631649  0  0  -0.179169  0  3.892037  0  0  -0.178515  0  3.903945  0  0  -0.163638  -0.179758  0  3.884152  0
C  C46  1  0.77794173  0.69167892  0.27080168  1  0  -0.129989  0  3.601399  0  0  -0.132562  0  3.836142  0  0  -0.138452  0  3.850001  0  0  -0.085636  -0.128297  0  3.827083  0
C  C47  1  0.22205611  0.30832074  0.72919879  1  0  -0.130214  0  3.601576  0  0  -0.132619  0  3.836106  0  0  -0.138509  0  3.849964  0  0  -0.085637  -0.128349  0  3.827041  0
C  C48  1  0.78075550  0.63774493  0.13796745  1  0  -0.118875  0  3.643162  0  0  -0.12334  0  3.879466  0  0  -0.128604  0  3.89405  0  0  -0.090922  -0.119554  0  3.870193  0
C  C49  1  0.21924830  0.36224904  0.86203177  1  0  -0.118783  0  3.64305  0  0  -0.123322  0  3.879372  0  0  -0.128587  0  3.89396  0  0  -0.09093  -0.119546  0  3.870098  0
C  C50  1  0.83389692  0.46415897  0.12324457  1  0  -0.133684  0  3.697513  0  0  -0.19015  0  3.956417  0  0  -0.190236  0  3.969759  0  0  -0.174155  -0.190143  0  3.947986  0
C  C51  1  0.16610636  0.53583619  0.87675649  1  0  -0.13368  0  3.697254  0  0  -0.19013  0  3.956164  0  0  -0.190207  0  3.969516  0  0  -0.17419  -0.190109  0  3.947717  0
C  C52  1  0.08973472  0.21423399  0.13241537  1  0  0.654932  0  3.875947  0  0  0.595372  0  4.189717  0  0  0.629325  0  4.1833  0  0  0.195832  0.572136  0  4.19327  0
C  C53  1  0.91026854  0.78576124  0.86758844  1  0  0.654892  0  3.875889  0  0  0.595467  0  4.189477  0  0  0.629423  0  4.183056  0  0  0.195913  0.572238  0  4.193019  0
C  C54  1  0.89155118  0.34391958  0.38537624  1  0  0.666388  0  3.826845  0  0  0.613475  0  4.126375  0  0  0.646606  0  4.1232  0  0  0.201303  0.591573  0  4.126751  0
C  C55  1  0.10844805  0.65608484  0.61462576  1  0  0.666326  0  3.826914  0  0  0.613432  0  4.126487  0  0  0.646565  0  4.123306  0  0  0.20121  0.591528  0  4.126864  0
C  C56  1  0.61916786  0.71056163  0.35499717  1  0  0.684991  0  3.805782  0  0  0.628042  0  4.110798  0  0  0.662166  0  4.105485  0  0  0.210746  0.604586  0  4.113799  0
C  C57  1  0.38083127  0.28944039  0.64500217  1  0  0.685023  0  3.805467  0  0  0.628028  0  4.110505  0  0  0.662149  0  4.105186  0  0  0.210709  0.604576  0  4.1135  0
C  C58  1  0.61944852  0.72815675  0.08329122  1  0  0.675646  0  3.847087  0  0  0.619436  0  4.154736  0  0  0.653033  0  4.150288  0  0  0.200267  0.596381  0  4.157044  0
C  C59  1  0.38055352  0.27183595  0.91670638  1  0  0.675421  0  3.847219  0  0  0.619242  0  4.154851  0  0  0.65284  0  4.150404  0  0  0.200161  0.596193  0  4.15715  0
O  O60  1  0.26422607  0.89304614  0.82587912  1  0  -0.821481  0  1.867254  0  0  -0.756463  0  2.067986  0  0  -0.779348  0  2.032885  0  0  -0.576469  -0.740502  0  2.093594  0
O  O61  1  0.73577458  0.10695240  0.17411930  1  0  -0.821348  0  1.867443  0  0  -0.756369  0  2.068163  0  0  -0.779255  0  2.033058  0  0  -0.57643  -0.740401  0  2.093773  0
O  O62  1  0.19509849  0.77488087  0.10726257  1  0  -0.842191  0  1.871704  0  0  -0.775971  0  2.063178  0  0  -0.798402  0  2.031006  0  0  -0.560769  -0.759939  0  2.08582  0
O  O63  1  0.80490363  0.22511432  0.89274135  1  0  -0.842214  0  1.871601  0  0  -0.775989  0  2.063051  0  0  -0.798423  0  2.0309  0  0  -0.560765  -0.759956  0  2.085694  0
O  O64  1  0.78604285  0.94715927  0.48459379  1  0  -0.848541  0  1.87704  0  0  -0.782112  0  2.076735  0  0  -0.806231  0  2.041107  0  0  -0.591658  -0.765398  0  2.102136  0
O  O65  1  0.21394638  0.05284950  0.51540712  1  0  -0.848464  0  1.877039  0  0  -0.782029  0  2.076756  0  0  -0.806152  0  2.041131  0  0  -0.591654  -0.765314  0  2.102157  0
O  O66  1  0.90793891  0.10542157  0.65741454  1  0  -0.841655  0  1.860053  0  0  -0.772076  0  2.049235  0  0  -0.795658  0  2.01598  0  0  -0.567739  -0.754009  0  2.071944  0
O  O67  1  0.09205804  0.89458279  0.34258767  1  0  -0.841791  0  1.860019  0  0  -0.772197  0  2.049161  0  0  -0.795781  0  2.015906  0  0  -0.56772  -0.754128  0  2.071873  0
O  O68  1  0.52767818  0.34612383  0.33736845  1  0  -0.835906  0  1.843126  0  0  -0.776151  0  2.020912  0  0  -0.796604  0  1.988705  0  0  -0.561744  -0.761619  0  2.04174  0
O  O69  1  0.47231603  0.65388149  0.66262847  1  0  -0.835989  0  1.843047  0  0  -0.776213  0  2.020912  0  0  -0.796664  0  1.988705  0  0  -0.561731  -0.761679  0  2.041736  0
O  O70  1  0.02523964  0.15439986  0.05655823  1  0  -0.702823  0  2.001399  0  0  -0.625627  0  2.237547  0  0  -0.654686  0  2.226269  0  0  -0.334055  -0.603833  0  2.243996  0
O  O71  1  0.97476806  0.84559315  0.94344526  1  0  -0.702756  0  2.001413  0  0  -0.625627  0  2.237545  0  0  -0.654678  0  2.226257  0  0  -0.334056  -0.60382  0  2.243972  0
O  O72  1  0.23153533  0.13890800  0.16702424  1  0  -0.608144  0  1.948785  0  0  -0.552164  0  2.187057  0  0  -0.579876  0  2.177537  0  0  -0.323664  -0.531134  0  2.193963  0
O  O73  1  0.76846870  0.86109074  0.83297845  1  0  -0.608181  0  1.948797  0  0  -0.552233  0  2.187004  0  0  -0.579945  0  2.177481  0  0  -0.32371  -0.531199  0  2.193911  0
O  O74  1  0.90562771  0.20789062  0.35370292  1  0  -0.68625  0  2.034236  0  0  -0.608632  0  2.273492  0  0  -0.640178  0  2.265795  0  0  -0.328393  -0.586838  0  2.277933  0
O  O75  1  0.09437103  0.79211493  0.64629817  1  0  -0.686247  0  2.034212  0  0  -0.608592  0  2.273427  0  0  -0.640169  0  2.265773  0  0  -0.328381  -0.586801  0  2.277874  0
O  O76  1  0.79387936  0.41547299  0.47859654  1  0  -0.639934  0  1.938653  0  0  -0.577653  0  2.178805  0  0  -0.606715  0  2.171277  0  0  -0.324121  -0.556679  0  2.181791  0
O  O77  1  0.20611760  0.58453132  0.52140383  1  0  -0.639958  0  1.93876  0  0  -0.577629  0  2.178862  0  0  -0.606703  0  2.171354  0  0  -0.324063  -0.556651  0  2.181844  0
O  O78  1  0.51564989  0.65250903  0.32729855  1  0  -0.658565  0  1.979084  0  0  -0.585918  0  2.21479  0  0  -0.615939  0  2.204574  0  0  -0.31967  -0.564854  0  2.22089  0
O  O79  1  0.48434658  0.34749642  0.67270091  1  0  -0.658596  0  1.979006  0  0  -0.58591  0  2.214679  0  0  -0.615928  0  2.204458  0  0  -0.319667  -0.564864  0  2.220811  0
O  O80  1  0.58705447  0.79644056  0.45142041  1  0  -0.653428  0  1.97935  0  0  -0.580344  0  2.203157  0  0  -0.610149  0  2.192595  0  0  -0.314226  -0.559189  0  2.209387  0
O  O81  1  0.41294531  0.20356261  0.54857700  1  0  -0.653407  0  1.979134  0  0  -0.580338  0  2.202976  0  0  -0.610138  0  2.19241  0  0  -0.314217  -0.559184  0  2.209202  0
O  O82  1  0.56756172  0.87773414  0.09390542  1  0  -0.706938  0  2.071414  0  0  -0.62301  0  2.334013  0  0  -0.657852  0  2.323221  0  0  -0.346344  -0.596566  0  2.341359  0
O  O83  1  0.43243688  0.12225849  0.90609341  1  0  -0.706832  0  2.071389  0  0  -0.622897  0  2.333953  0  0  -0.657739  0  2.323163  0  0  -0.346233  -0.596448  0  2.341293  0
O  O84  1  0.54220963  0.66263775  0.03078459  1  0  -0.620056  0  1.908818  0  0  -0.567179  0  2.132377  0  0  -0.591579  0  2.12217  0  0  -0.321866  -0.549564  0  2.138739  0
O  O85  1  0.45779622  0.33735151  0.96921095  1  0  -0.619929  0  1.908899  0  0  -0.567084  0  2.132497  0  0  -0.591484  0  2.122288  0  0  -0.321829  -0.549467  0  2.138861  0
