# generated using pymatgen
data_Ag2H10C4S3O5
_symmetry_space_group_name_H-M   'P 1'
_cell_length_a   6.87763903
_cell_length_b   9.59024390
_cell_length_c   14.70396516
_cell_angle_alpha   89.99880359
_cell_angle_beta   90.00014753
_cell_angle_gamma   89.99986227
_symmetry_Int_Tables_number   1
_chemical_formula_structural   Ag2H10C4S3O5
_chemical_formula_sum   'Ag8 H40 C16 S12 O20'
_cell_volume   969.84760011
_cell_formula_units_Z   4
loop_
 _symmetry_equiv_pos_site_id
 _symmetry_equiv_pos_as_xyz
  1  'x, y, z'
loop_
 _atom_site_type_symbol
 _atom_site_label
 _atom_site_symmetry_multiplicity
 _atom_site_fract_x
 _atom_site_fract_y
 _atom_site_fract_z
 _atom_site_occupancy
 _atom_site_hle17_bader_spin_density
 _atom_site_hle17_ddec_charge
 _atom_site_hle17_ddec_spin_density
 _atom_site_hle17_ddec_sum_bond_order
 _atom_site_hle17_magmom
 _atom_site_hse06_10hf_bader_spin_density
 _atom_site_hse06_10hf_ddec_charge
 _atom_site_hse06_10hf_ddec_spin_density
 _atom_site_hse06_10hf_ddec_sum_bond_order
 _atom_site_hse06_10hf_magmom
 _atom_site_hse06_bader_spin_density
 _atom_site_hse06_ddec_charge
 _atom_site_hse06_ddec_spin_density
 _atom_site_hse06_ddec_sum_bond_order
 _atom_site_hse06_magmom
 _atom_site_pbe_bader_spin_density
 _atom_site_pbe_cm5_charge
 _atom_site_pbe_ddec_charge
 _atom_site_pbe_ddec_spin_density
 _atom_site_pbe_ddec_sum_bond_order
 _atom_site_pbe_magmom
Ag  Ag0  1  0.13645282  0.75124070  0.62201912  1  0  0.532075  0  1.431787  0  0  0.436768  0  1.854627  0  0  0.459783  0  1.811128  0  0  0.402445  0.419675  0  1.88557  0
Ag  Ag1  1  0.36354174  0.25124591  0.62201443  1  0  0.532009  0  1.431757  0  0  0.436701  0  1.854633  0  0  0.459712  0  1.811136  0  0  0.402402  0.419605  0  1.885578  0
Ag  Ag2  1  0.13646515  0.75122609  0.87799089  1  0  0.531957  0  1.431834  0  0  0.43664  0  1.8547  0  0  0.459656  0  1.811201  0  0  0.402389  0.419548  0  1.885645  0
Ag  Ag3  1  0.63647044  0.74876464  0.12200805  1  0  0.531875  0  1.431993  0  0  0.436573  0  1.854891  0  0  0.459584  0  1.811389  0  0  0.402393  0.419486  0  1.885837  0
Ag  Ag4  1  0.86354115  0.24874690  0.37798262  1  0  0.532077  0  1.431816  0  0  0.436734  0  1.85469  0  0  0.45975  0  1.811195  0  0  0.402411  0.419639  0  1.885627  0
Ag  Ag5  1  0.63646532  0.74876150  0.37798526  1  0  0.532015  0  1.431839  0  0  0.436676  0  1.854738  0  0  0.45969  0  1.81124  0  0  0.402433  0.419584  0  1.88568  0
Ag  Ag6  1  0.86355645  0.24877819  0.12200881  1  0  0.531953  0  1.431926  0  0  0.436649  0  1.85479  0  0  0.459665  0  1.811293  0  0  0.402415  0.419556  0  1.885734  0
Ag  Ag7  1  0.36353953  0.25122401  0.87798961  1  0  0.531912  0  1.432057  0  0  0.436618  0  1.854952  0  0  0.459624  0  1.811452  0  0  0.402409  0.419529  0  1.885897  0
H  H8  1  0.68730341  0.56592009  0.59109026  1  0  0.121031  0  0.94275  0  0  0.133397  0  1.005862  0  0  0.135164  0  1.005238  0  0  0.104191  0.131937  0  1.006573  0
H  H9  1  0.81268591  0.06592330  0.59108755  1  0  0.120978  0  0.942878  0  0  0.133367  0  1.006006  0  0  0.135099  0  1.005429  0  0  0.104191  0.131948  0  1.006671  0
H  H10  1  0.68732318  0.56592116  0.90891065  1  0  0.120984  0  0.942899  0  0  0.133381  0  1.006017  0  0  0.13511  0  1.005441  0  0  0.104201  0.131932  0  1.006721  0
H  H11  1  0.18730865  0.93407887  0.09109175  1  0  0.120984  0  0.942832  0  0  0.13337  0  1.005946  0  0  0.135153  0  1.005305  0  0  0.104186  0.13191  0  1.006661  0
H  H12  1  0.31268475  0.43407586  0.40890468  1  0  0.120984  0  0.942782  0  0  0.133361  0  1.005922  0  0  0.135112  0  1.00532  0  0  0.104179  0.131904  0  1.00663  0
H  H13  1  0.18730516  0.93406638  0.40891283  1  0  0.120989  0  0.942976  0  0  0.133351  0  1.006133  0  0  0.135086  0  1.005549  0  0  0.104172  0.131905  0  1.006829  0
H  H14  1  0.31269115  0.43407270  0.09108497  1  0  0.120987  0  0.942879  0  0  0.133376  0  1.006006  0  0  0.135109  0  1.005424  0  0  0.104191  0.131959  0  1.006671  0
H  H15  1  0.81269259  0.06592333  0.90890931  1  0  0.121067  0  0.942839  0  0  0.133443  0  1.005927  0  0  0.13518  0  1.005342  0  0  0.1042  0.131981  0  1.006646  0
H  H16  1  0.70215865  0.47691991  0.48419997  1  0  0.101835  0  0.981563  0  0  0.111214  0  1.056735  0  0  0.112867  0  1.055917  0  0  0.092446  0.109702  0  1.057946  0
H  H17  1  0.79781858  0.97691753  0.48420417  1  0  0.101895  0  0.981589  0  0  0.111278  0  1.056787  0  0  0.11293  0  1.055967  0  0  0.09245  0.109763  0  1.058005  0
H  H18  1  0.70216756  0.47692338  0.01579298  1  0  0.101797  0  0.981654  0  0  0.111253  0  1.056775  0  0  0.112907  0  1.055949  0  0  0.092426  0.109736  0  1.057995  0
H  H19  1  0.20216795  0.02307702  0.98420388  1  0  0.101782  0  0.981624  0  0  0.111217  0  1.056778  0  0  0.11287  0  1.05596  0  0  0.092434  0.109704  0  1.05799  0
H  H20  1  0.29782805  0.52307708  0.51579565  1  0  0.101797  0  0.981605  0  0  0.111227  0  1.056774  0  0  0.112878  0  1.055958  0  0  0.092439  0.109714  0  1.057988  0
H  H21  1  0.20216376  0.02306902  0.51580029  1  0  0.101803  0  0.981642  0  0  0.111225  0  1.056804  0  0  0.112874  0  1.055989  0  0  0.092428  0.109712  0  1.058014  0
H  H22  1  0.29782496  0.52307882  0.98420060  1  0  0.101912  0  0.981504  0  0  0.111293  0  1.056696  0  0  0.112945  0  1.055874  0  0  0.092447  0.109778  0  1.057919  0
H  H23  1  0.79783330  0.97692101  0.01580194  1  0  0.101876  0  0.981596  0  0  0.111236  0  1.056804  0  0  0.112889  0  1.055981  0  0  0.092427  0.109723  0  1.058015  0
H  H24  1  0.00661518  0.46024166  0.63992772  1  0  0.124539  0  0.932508  0  0  0.13828  0  0.992796  0  0  0.140631  0  0.991025  0  0  0.104211  0.136381  0  0.994392  0
H  H25  1  0.49337444  0.96024103  0.63993079  1  0  0.124594  0  0.932365  0  0  0.138286  0  0.992703  0  0  0.140635  0  0.990935  0  0  0.104211  0.136415  0  0.994264  0
H  H26  1  0.00662451  0.46024433  0.86007514  1  0  0.124516  0  0.932565  0  0  0.138291  0  0.992817  0  0  0.140645  0  0.991033  0  0  0.104192  0.136393  0  0.994414  0
H  H27  1  0.50663057  0.03975017  0.13992352  1  0  0.124533  0  0.932522  0  0  0.13829  0  0.992776  0  0  0.140642  0  0.990998  0  0  0.104213  0.13639  0  0.99437  0
H  H28  1  0.99336861  0.53975845  0.36007062  1  0  0.124584  0  0.932412  0  0  0.138289  0  0.992724  0  0  0.140647  0  0.990938  0  0  0.104188  0.136391  0  0.994326  0
H  H29  1  0.50660645  0.03974970  0.36006822  1  0  0.124519  0  0.932505  0  0  0.138316  0  0.992697  0  0  0.140666  0  0.990927  0  0  0.104189  0.136413  0  0.994306  0
H  H30  1  0.99338401  0.53975161  0.13992388  1  0  0.124541  0  0.932526  0  0  0.138272  0  0.992817  0  0  0.140627  0  0.991034  0  0  0.104195  0.136395  0  0.994392  0
H  H31  1  0.49337358  0.96025099  0.86007822  1  0  0.124639  0  0.932422  0  0  0.138337  0  0.992748  0  0  0.140693  0  0.990964  0  0  0.104187  0.136428  0  0.994356  0
H  H32  1  0.82913305  0.33129885  0.61455021  1  0  0.105362  0  0.940005  0  0  0.120686  0  1.003964  0  0  0.121822  0  1.003581  0  0  0.102341  0.119728  0  1.004576  0
H  H33  1  0.67086426  0.83129879  0.61455290  1  0  0.105371  0  0.940054  0  0  0.120692  0  1.003967  0  0  0.121827  0  1.003593  0  0  0.102323  0.11973  0  1.004591  0
H  H34  1  0.82914396  0.33130173  0.88545061  1  0  0.105448  0  0.94009  0  0  0.120823  0  1.003963  0  0  0.121957  0  1.003579  0  0  0.102364  0.119862  0  1.00458  0
H  H35  1  0.32914060  0.16869845  0.11455049  1  0  0.105433  0  0.939965  0  0  0.120722  0  1.003949  0  0  0.121857  0  1.003565  0  0  0.102345  0.119761  0  1.004564  0
H  H36  1  0.17085511  0.66870127  0.38545153  1  0  0.105396  0  0.940101  0  0  0.120703  0  1.004032  0  0  0.121828  0  1.003672  0  0  0.102317  0.119752  0  1.004641  0
H  H37  1  0.32911808  0.16869090  0.38544884  1  0  0.105429  0  0.940128  0  0  0.12076  0  1.004019  0  0  0.121895  0  1.003637  0  0  0.102336  0.1198  0  1.004636  0
H  H38  1  0.17086310  0.66869213  0.11454705  1  0  0.105384  0  0.940062  0  0  0.120728  0  1.003954  0  0  0.12186  0  1.003575  0  0  0.102336  0.119769  0  1.004574  0
H  H39  1  0.67086355  0.83130062  0.88545669  1  0  0.105353  0  0.94009  0  0  0.120725  0  1.003954  0  0  0.121859  0  1.003575  0  0  0.102318  0.119763  0  1.00457  0
H  H40  1  0.78892720  0.67609395  0.75000522  1  0  0.428699  0  0.87474  0  0  0.396293  0  0.940966  0  0  0.406713  0  0.926022  0  0  0.284693  0.388817  0  0.951639  0
H  H41  1  0.71104372  0.17608588  0.75000715  1  0  0.428638  0  0.874841  0  0  0.396275  0  0.940984  0  0  0.406694  0  0.926041  0  0  0.284776  0.388801  0  0.951654  0
H  H42  1  0.28895752  0.82391319  0.24999459  1  0  0.428599  0  0.874885  0  0  0.39624  0  0.941019  0  0  0.406659  0  0.926077  0  0  0.284778  0.388766  0  0.95169  0
H  H43  1  0.21106241  0.32392702  0.24999244  1  0  0.4286  0  0.874856  0  0  0.39623  0  0.94102  0  0  0.40665  0  0.926077  0  0  0.284706  0.388754  0  0.951693  0
H  H44  1  0.84330024  0.84265693  0.75000074  1  0  0.416602  0  0.875435  0  0  0.387785  0  0.945649  0  0  0.397465  0  0.93152  0  0  0.289793  0.380746  0  0.955905  0
H  H45  1  0.65672249  0.34265417  0.75000397  1  0  0.416514  0  0.875239  0  0  0.387755  0  0.945578  0  0  0.397426  0  0.931467  0  0  0.289803  0.380717  0  0.955833  0
H  H46  1  0.34328893  0.65734699  0.24999777  1  0  0.416622  0  0.875069  0  0  0.387839  0  0.945464  0  0  0.397518  0  0.931341  0  0  0.289851  0.380801  0  0.95572  0
H  H47  1  0.15671990  0.15736300  0.24999624  1  0  0.416515  0  0.87553  0  0  0.387747  0  0.945661  0  0  0.397419  0  0.931548  0  0  0.289864  0.380709  0  0.955915  0
C  C48  1  0.78692038  0.52220244  0.54015265  1  0  -0.155762  0  3.647641  0  0  -0.194456  0  3.911163  0  0  -0.195064  0  3.923721  0  0  -0.161401  -0.193639  0  3.902587  0
C  C49  1  0.71306881  0.02221835  0.54014846  1  0  -0.155777  0  3.647866  0  0  -0.194607  0  3.911516  0  0  -0.195177  0  3.924035  0  0  -0.161397  -0.193819  0  3.902937  0
C  C50  1  0.78693170  0.52220915  0.95984489  1  0  -0.155656  0  3.647673  0  0  -0.194587  0  3.91144  0  0  -0.195175  0  3.924012  0  0  -0.161436  -0.193776  0  3.902858  0
C  C51  1  0.28692984  0.97778861  0.04015424  1  0  -0.155587  0  3.647506  0  0  -0.194451  0  3.911175  0  0  -0.195073  0  3.923732  0  0  -0.161355  -0.193631  0  3.902596  0
C  C52  1  0.21307360  0.47778203  0.45984909  1  0  -0.155575  0  3.647657  0  0  -0.19442  0  3.911268  0  0  -0.195014  0  3.923812  0  0  -0.161293  -0.193596  0  3.9027  0
C  C53  1  0.28691935  0.97777551  0.45985124  1  0  -0.155685  0  3.6479  0  0  -0.194535  0  3.911538  0  0  -0.195119  0  3.924097  0  0  -0.161358  -0.19372  0  3.902959  0
C  C54  1  0.21306809  0.47778784  0.04015141  1  0  -0.155752  0  3.647408  0  0  -0.194648  0  3.911256  0  0  -0.195233  0  3.923823  0  0  -0.161415  -0.193859  0  3.902674  0
C  C55  1  0.71307577  0.02221672  0.95985226  1  0  -0.155887  0  3.647699  0  0  -0.194598  0  3.911192  0  0  -0.195187  0  3.923752  0  0  -0.161381  -0.193778  0  3.902612  0
C  C56  1  0.91710197  0.41573089  0.58528957  1  0  -0.132232  0  3.627365  0  0  -0.169114  0  3.886198  0  0  -0.169247  0  3.898794  0  0  -0.153468  -0.168932  0  3.877575  0
C  C57  1  0.58290363  0.91573619  0.58529214  1  0  -0.132378  0  3.62696  0  0  -0.169154  0  3.885749  0  0  -0.169285  0  3.898339  0  0  -0.153505  -0.169003  0  3.877141  0
C  C58  1  0.91708106  0.41574637  0.91470479  1  0  -0.132354  0  3.627516  0  0  -0.169215  0  3.886234  0  0  -0.169341  0  3.898821  0  0  -0.153494  -0.169036  0  3.877598  0
C  C59  1  0.41710399  0.08426512  0.08529029  1  0  -0.132453  0  3.627373  0  0  -0.169247  0  3.886155  0  0  -0.169377  0  3.898748  0  0  -0.153569  -0.169067  0  3.877523  0
C  C60  1  0.08289927  0.58426297  0.41470877  1  0  -0.132467  0  3.627173  0  0  -0.169187  0  3.885801  0  0  -0.169318  0  3.898386  0  0  -0.153521  -0.169033  0  3.877221  0
C  C61  1  0.41707726  0.08425141  0.41470484  1  0  -0.132504  0  3.627535  0  0  -0.169286  0  3.886202  0  0  -0.169413  0  3.898779  0  0  -0.153501  -0.169124  0  3.877607  0
C  C62  1  0.08290274  0.58425792  0.08528743  1  0  -0.132405  0  3.627653  0  0  -0.169172  0  3.886339  0  0  -0.169298  0  3.898922  0  0  -0.153475  -0.169014  0  3.877712  0
C  C63  1  0.58290162  0.91573916  0.91471349  1  0  -0.132454  0  3.627547  0  0  -0.169218  0  3.886133  0  0  -0.169345  0  3.898712  0  0  -0.153457  -0.16903  0  3.877496  0
S  S64  1  0.42609502  0.56370506  0.75001119  1  0  1.529208  0  5.851765  0  0  1.409847  0  6.375386  0  0  1.464885  0  6.343378  0  0  0.531122  1.371422  0  6.396141  0
S  S65  1  0.07390811  0.06371809  0.75000616  1  0  1.529084  0  5.850919  0  0  1.409731  0  6.374538  0  0  1.464761  0  6.342538  0  0  0.531158  1.371308  0  6.395291  0
S  S66  1  0.92609167  0.93628932  0.24999490  1  0  1.5292  0  5.851255  0  0  1.409798  0  6.374919  0  0  1.46482  0  6.342917  0  0  0.531104  1.371373  0  6.395675  0
S  S67  1  0.57391349  0.43629610  0.24999259  1  0  1.529297  0  5.851643  0  0  1.409937  0  6.375254  0  0  1.46497  0  6.343242  0  0  0.5311  1.371508  0  6.396016  0
S  S68  1  0.91926775  0.67003560  0.49399413  1  0  0.008695  0  2.794764  0  0  0.046488  0  3.239972  0  0  0.039389  0  3.228452  0  0  -0.008615  0.051542  0  3.248412  0
S  S69  1  0.58072652  0.17002255  0.49399046  1  0  0.008954  0  2.794987  0  0  0.046717  0  3.240338  0  0  0.03962  0  3.228808  0  0  -0.008558  0.051763  0  3.248791  0
S  S70  1  0.91928097  0.67003731  0.00600807  1  0  0.008902  0  2.794707  0  0  0.046726  0  3.240064  0  0  0.039628  0  3.228532  0  0  -0.008552  0.051772  0  3.24851  0
S  S71  1  0.41928769  0.82996647  0.99399598  1  0  0.008839  0  2.794915  0  0  0.046659  0  3.240244  0  0  0.039555  0  3.228739  0  0  -0.0086  0.051704  0  3.248672  0
S  S72  1  0.08072040  0.32997494  0.50600625  1  0  0.008789  0  2.795053  0  0  0.046614  0  3.240412  0  0  0.039519  0  3.228892  0  0  -0.008594  0.051658  0  3.248837  0
S  S73  1  0.41926746  0.82996192  0.50600856  1  0  0.008796  0  2.794733  0  0  0.046612  0  3.240045  0  0  0.039518  0  3.228512  0  0  -0.008615  0.051653  0  3.248494  0
S  S74  1  0.08073045  0.32995655  0.99398891  1  0  0.008772  0  2.794548  0  0  0.046629  0  3.239891  0  0  0.039529  0  3.228356  0  0  -0.0086  0.051671  0  3.24834  0
S  S75  1  0.58071646  0.17002947  0.00600644  1  0  0.008908  0  2.795088  0  0  0.046678  0  3.240395  0  0  0.039583  0  3.228866  0  0  -0.008605  0.05172  0  3.248825  0
O  O76  1  0.38937432  0.71756771  0.75001898  1  0  -0.717648  0  1.956791  0  0  -0.647478  0  2.22506  0  0  -0.672691  0  2.208631  0  0  -0.372487  -0.629169  0  2.236155  0
O  O77  1  0.11059342  0.21757859  0.74999631  1  0  -0.717435  0  1.956306  0  0  -0.6473  0  2.224565  0  0  -0.672512  0  2.208157  0  0  -0.372384  -0.628997  0  2.235653  0
O  O78  1  0.88940928  0.78242778  0.24999319  1  0  -0.717519  0  1.956427  0  0  -0.647365  0  2.224703  0  0  -0.672561  0  2.208281  0  0  -0.372432  -0.629059  0  2.235794  0
O  O79  1  0.61064001  0.28243762  0.24999636  1  0  -0.71773  0  1.95679  0  0  -0.647496  0  2.224997  0  0  -0.672709  0  2.20858  0  0  -0.372423  -0.629189  0  2.236087  0
O  O80  1  0.34009736  0.50115543  0.66630693  1  0  -0.744017  0  2.03647  0  0  -0.678821  0  2.32208  0  0  -0.702339  0  2.301935  0  0  -0.373915  -0.661714  0  2.335418  0
O  O81  1  0.15989971  0.00115997  0.66630676  1  0  -0.744118  0  2.036563  0  0  -0.67889  0  2.322169  0  0  -0.702366  0  2.301945  0  0  -0.373988  -0.661791  0  2.335521  0
O  O82  1  0.34009345  0.50112872  0.83371007  1  0  -0.743963  0  2.036625  0  0  -0.678783  0  2.32228  0  0  -0.702263  0  2.302064  0  0  -0.373813  -0.661677  0  2.335623  0
O  O83  1  0.84010544  0.99885435  0.16629252  1  0  -0.743969  0  2.036618  0  0  -0.678794  0  2.322252  0  0  -0.702295  0  2.302095  0  0  -0.373854  -0.66169  0  2.335592  0
O  O84  1  0.65992424  0.49885928  0.33369073  1  0  -0.744123  0  2.036638  0  0  -0.678882  0  2.322187  0  0  -0.702403  0  2.30206  0  0  -0.373886  -0.661776  0  2.335529  0
O  O85  1  0.84010444  0.99885057  0.33369294  1  0  -0.744218  0  2.03677  0  0  -0.678877  0  2.322243  0  0  -0.702398  0  2.302123  0  0  -0.373975  -0.661773  0  2.335583  0
O  O86  1  0.65991070  0.49884533  0.16628283  1  0  -0.744003  0  2.036604  0  0  -0.678826  0  2.322228  0  0  -0.702335  0  2.302077  0  0  -0.373906  -0.661722  0  2.335583  0
O  O87  1  0.15990016  0.00117601  0.83371466  1  0  -0.744072  0  2.036668  0  0  -0.678857  0  2.322253  0  0  -0.702365  0  2.302098  0  0  -0.3739  -0.66175  0  2.335588  0
O  O88  1  0.64272755  0.53719772  0.75001286  1  0  -0.751152  0  1.951705  0  0  -0.671302  0  2.175076  0  0  -0.696419  0  2.161432  0  0  -0.358631  -0.653365  0  2.184108  0
O  O89  1  0.85726128  0.03718730  0.75001429  1  0  -0.751095  0  1.950992  0  0  -0.671276  0  2.174325  0  0  -0.696414  0  2.16072  0  0  -0.358672  -0.653343  0  2.183358  0
O  O90  1  0.14273851  0.96281489  0.24999357  1  0  -0.751119  0  1.951055  0  0  -0.67128  0  2.174336  0  0  -0.696418  0  2.160745  0  0  -0.358641  -0.653345  0  2.18336  0
O  O91  1  0.35728387  0.46281074  0.24999092  1  0  -0.751028  0  1.951526  0  0  -0.671257  0  2.174941  0  0  -0.69638  0  2.161312  0  0  -0.358597  -0.653323  0  2.183983  0
O  O92  1  0.89658903  0.74676464  0.74999189  1  0  -0.828694  0  1.944333  0  0  -0.764013  0  2.179355  0  0  -0.785971  0  2.142533  0  0  -0.590955  -0.747759  0  2.204989  0
O  O93  1  0.60340784  0.24674737  0.74999234  1  0  -0.828541  0  1.944281  0  0  -0.763917  0  2.179537  0  0  -0.785851  0  2.142679  0  0  -0.591008  -0.747666  0  2.205166  0
O  O94  1  0.39659777  0.75326108  0.25000600  1  0  -0.828574  0  1.944097  0  0  -0.763958  0  2.179381  0  0  -0.785881  0  2.142499  0  0  -0.59106  -0.747712  0  2.205018  0
O  O95  1  0.10341076  0.25324799  0.25000644  1  0  -0.828501  0  1.944503  0  0  -0.763878  0  2.179563  0  0  -0.785814  0  2.142718  0  0  -0.591025  -0.747625  0  2.205194  0
