# generated using pymatgen
data_CaH6C6N2Cl2O
_symmetry_space_group_name_H-M   'P 1'
_cell_length_a   3.92020742
_cell_length_b   8.08318562
_cell_length_c   15.09791225
_cell_angle_alpha   90.00001194
_cell_angle_beta   96.85846235
_cell_angle_gamma   89.99976677
_symmetry_Int_Tables_number   1
_chemical_formula_structural   CaH6C6N2Cl2O
_chemical_formula_sum   'Ca2 H12 C12 N4 Cl4 O2'
_cell_volume   474.99560157
_cell_formula_units_Z   2
loop_
 _symmetry_equiv_pos_site_id
 _symmetry_equiv_pos_as_xyz
  1  'x, y, z'
loop_
 _atom_site_type_symbol
 _atom_site_label
 _atom_site_symmetry_multiplicity
 _atom_site_fract_x
 _atom_site_fract_y
 _atom_site_fract_z
 _atom_site_occupancy
 _atom_site_hle17_bader_spin_density
 _atom_site_hle17_ddec_charge
 _atom_site_hle17_ddec_spin_density
 _atom_site_hle17_ddec_sum_bond_order
 _atom_site_hle17_magmom
 _atom_site_hse06_10hf_bader_spin_density
 _atom_site_hse06_10hf_ddec_charge
 _atom_site_hse06_10hf_ddec_spin_density
 _atom_site_hse06_10hf_ddec_sum_bond_order
 _atom_site_hse06_10hf_magmom
 _atom_site_hse06_bader_spin_density
 _atom_site_hse06_ddec_charge
 _atom_site_hse06_ddec_spin_density
 _atom_site_hse06_ddec_sum_bond_order
 _atom_site_hse06_magmom
 _atom_site_pbe_bader_spin_density
 _atom_site_pbe_cm5_charge
 _atom_site_pbe_ddec_charge
 _atom_site_pbe_ddec_spin_density
 _atom_site_pbe_ddec_sum_bond_order
 _atom_site_pbe_magmom
Ca  Ca0  1  0.54555674  0.07511590  0.13972229  1  0  1.344738  0  1.33492  0  0  1.225168  0  1.679044  0  0  1.262972  0  1.646486  0  0  0.624412  1.196532  0  1.702222  0
Ca  Ca1  1  0.54556158  0.92488370  0.63972322  1  0  1.344714  0  1.334943  0  0  1.225181  0  1.679003  0  0  1.262972  0  1.646456  0  0  0.624415  1.196547  0  1.702191  0
H  H2  1  0.40013414  0.47453035  0.08734901  1  0  0.06901  0  0.953524  0  0  0.074275  0  1.024947  0  0  0.077259  0  1.022012  0  0  0.110451  0.072096  0  1.027029  0
H  H3  1  0.40014484  0.52546829  0.58734875  1  0  0.069009  0  0.953509  0  0  0.074202  0  1.025017  0  0  0.077188  0  1.022081  0  0  0.11043  0.072025  0  1.027103  0
H  H4  1  0.47709439  0.68637020  0.97073352  1  0  0.117947  0  0.957122  0  0  0.124614  0  1.018607  0  0  0.12843  0  1.016994  0  0  0.102802  0.121807  0  1.020068  0
H  H5  1  0.47709782  0.31362968  0.47073154  1  0  0.117955  0  0.957107  0  0  0.124605  0  1.018615  0  0  0.128422  0  1.016999  0  0  0.102787  0.121797  0  1.020073  0
H  H6  1  0.63414289  0.59285119  0.82335557  1  0  0.099979  0  0.971057  0  0  0.109343  0  1.034989  0  0  0.112392  0  1.032154  0  0  0.10216  0.107026  0  1.037151  0
H  H7  1  0.63413785  0.40714831  0.32335335  1  0  0.099986  0  0.971014  0  0  0.109385  0  1.034898  0  0  0.112423  0  1.032088  0  0  0.102154  0.107063  0  1.037058  0
H  H8  1  0.59401821  0.08968576  0.91849293  1  0  0.092867  0  0.934222  0  0  0.097864  0  1.001194  0  0  0.101913  0  0.996524  0  0  0.125216  0.094889  0  1.004575  0
H  H9  1  0.59402956  0.91031385  0.41849257  1  0  0.092868  0  0.934208  0  0  0.097864  0  1.001178  0  0  0.101913  0  0.996507  0  0  0.125215  0.094884  0  1.004554  0
H  H10  1  0.90952895  0.29747599  0.65910714  1  0  0.331762  0  0.916527  0  0  0.313697  0  0.982171  0  0  0.321851  0  0.975571  0  0  0.293032  0.307888  0  0.986914  0
H  H11  1  0.90952661  0.70252536  0.15910635  1  0  0.331753  0  0.916526  0  0  0.31369  0  0.982165  0  0  0.321845  0  0.975566  0  0  0.293035  0.307882  0  0.98691  0
H  H12  1  0.92303712  0.47288456  0.72883247  1  0  0.331145  0  0.932699  0  0  0.31042  0  1.003174  0  0  0.318282  0  0.997111  0  0  0.282783  0.304801  0  1.00755  0
H  H13  1  0.92303623  0.52711555  0.22883104  1  0  0.331135  0  0.93269  0  0  0.310437  0  1.003134  0  0  0.318301  0  0.997068  0  0  0.28279  0.304819  0  1.00751  0
C  C14  1  0.59630859  0.50219267  0.87473872  1  0  -0.008344  0  3.677461  0  0  -0.036787  0  3.920505  0  0  -0.031348  0  3.938661  0  0  -0.0596  -0.0399  0  3.908148  0
C  C15  1  0.59631306  0.49781063  0.37473612  1  0  -0.008451  0  3.677514  0  0  -0.036912  0  3.920568  0  0  -0.031473  0  3.938715  0  0  -0.059612  -0.040025  0  3.908204  0
C  C16  1  0.62302614  0.33208397  0.85951345  1  0  -0.119167  0  3.738099  0  0  -0.091948  0  3.970598  0  0  -0.104855  0  3.995109  0  0  -0.009862  -0.083835  0  3.954271  0
C  C17  1  0.62303180  0.66791681  0.35951289  1  0  -0.118994  0  3.738231  0  0  -0.091797  0  3.970719  0  0  -0.104692  0  3.995237  0  0  -0.009807  -0.083688  0  3.95438  0
C  C18  1  0.57140202  0.22269647  0.92861862  1  0  0.136857  0  3.677632  0  0  0.09578  0  3.93422  0  0  0.10483  0  3.949691  0  0  0.066355  0.090033  0  3.923616  0
C  C19  1  0.57140936  0.77729949  0.42861945  1  0  0.136795  0  3.677889  0  0  0.095727  0  3.934488  0  0  0.104776  0  3.949955  0  0  0.066335  0.089984  0  3.923875  0
C  C20  1  0.46512340  0.43788878  0.02182673  1  0  0.139639  0  3.710132  0  0  0.10737  0  3.971277  0  0  0.115456  0  3.988318  0  0  0.054454  0.102254  0  3.959554  0
C  C21  1  0.46513378  0.56211094  0.52182514  1  0  0.139694  0  3.710202  0  0  0.107487  0  3.971323  0  0  0.115572  0  3.98836  0  0  0.054494  0.102365  0  3.959611  0
C  C22  1  0.69730863  0.25887264  0.77320400  1  0  0.640314  0  3.84128  0  0  0.593549  0  4.121496  0  0  0.625383  0  4.119273  0  0  0.258679  0.571981  0  4.122375  0
C  C23  1  0.69731367  0.74112671  0.27320277  1  0  0.640273  0  3.841362  0  0  0.593549  0  4.121518  0  0  0.625352  0  4.119347  0  0  0.258667  0.571992  0  4.122381  0
C  C24  1  0.50905807  0.55554674  0.95684728  1  0  -0.109898  0  3.709102  0  0  -0.119493  0  3.958476  0  0  -0.127816  0  3.979482  0  0  -0.080491  -0.114337  0  3.944547  0
C  C25  1  0.50906044  0.44445306  0.45684660  1  0  -0.109945  0  3.709178  0  0  -0.119528  0  3.958549  0  0  -0.127846  0  3.979549  0  0  -0.080498  -0.114373  0  3.944617  0
N  N26  1  0.50070355  0.27382100  0.00899085  1  0  -0.395808  0  3.21049  0  0  -0.338942  0  3.486611  0  0  -0.356962  0  3.50593  0  0  -0.36653  -0.326545  0  3.473026  0
N  N27  1  0.50071256  0.72617988  0.50898924  1  0  -0.395784  0  3.210635  0  0  -0.338925  0  3.48671  0  0  -0.356948  0  3.50605  0  0  -0.366537  -0.326534  0  3.473131  0
N  N28  1  0.84754297  0.35307172  0.71621630  1  0  -0.675736  0  3.126922  0  0  -0.635555  0  3.355543  0  0  -0.65963  0  3.350969  0  0  -0.555289  -0.61895  0  3.358561  0
N  N29  1  0.84754367  0.64693225  0.21621625  1  0  -0.675709  0  3.127008  0  0  -0.635574  0  3.355589  0  0  -0.659632  0  3.351013  0  0  -0.555303  -0.618981  0  3.358607  0
Cl  Cl30  1  0.01369009  0.89703124  0.05596060  1  0  -0.677089  0  0.779207  0  0  -0.621781  0  1.00749  0  0  -0.638689  0  0.989912  0  0  -0.296772  -0.608799  0  1.019727  0
Cl  Cl31  1  0.01369406  0.10296817  0.55596275  1  0  -0.677077  0  0.779234  0  0  -0.621775  0  1.007484  0  0  -0.638678  0  0.989907  0  0  -0.296771  -0.608796  0  1.019722  0
Cl  Cl32  1  0.08133480  0.26332312  0.21476590  1  0  -0.672553  0  0.799896  0  0  -0.617186  0  1.034621  0  0  -0.633454  0  1.016196  0  0  -0.292104  -0.604655  0  1.047412  0
Cl  Cl33  1  0.08135148  0.73667497  0.71476717  1  0  -0.672582  0  0.79993  0  0  -0.617194  0  1.034593  0  0  -0.63346  0  1.016166  0  0  -0.2921  -0.604654  0  1.047389  0
O  O34  1  0.61642085  0.11058094  0.75594920  1  0  -0.645635  0  1.985097  0  0  -0.590385  0  2.222904  0  0  -0.616008  0  2.214035  0  0  -0.359695  -0.572276  0  2.228403  0
O  O35  1  0.61642211  0.88942105  0.25594919  1  0  -0.645668  0  1.985071  0  0  -0.590421  0  2.222864  0  0  -0.61604  0  2.214015  0  0  -0.359695  -0.572317  0  2.228354  0
