# generated using pymatgen
data_AlH21C45(NO3)6
_symmetry_space_group_name_H-M   'P 1'
_cell_length_a   4.04603989
_cell_length_b   23.47399839
_cell_length_c   23.42725113
_cell_angle_alpha   60.17280275
_cell_angle_beta   87.64126304
_cell_angle_gamma   88.12489451
_symmetry_Int_Tables_number   1
_chemical_formula_structural   AlH21C45(NO3)6
_chemical_formula_sum   'Al1 H21 C45 N6 O18'
_cell_volume   1928.46291467
_cell_formula_units_Z   1
loop_
 _symmetry_equiv_pos_site_id
 _symmetry_equiv_pos_as_xyz
  1  'x, y, z'
loop_
 _atom_site_type_symbol
 _atom_site_label
 _atom_site_symmetry_multiplicity
 _atom_site_fract_x
 _atom_site_fract_y
 _atom_site_fract_z
 _atom_site_occupancy
 _atom_site_pbe_bader_charge
 _atom_site_pbe_bader_spin_density
 _atom_site_pbe_cm5_charge
 _atom_site_pbe_ddec_charge
 _atom_site_pbe_ddec_spin_density
 _atom_site_pbe_ddec_sum_bond_order
 _atom_site_pbe_magmom
Al  Al0  1  0.12623992  0.49961974  0.49924668  1  2.509595  0  0.432167  1.614609  0  2.551146  0
H  H1  1  0.48710469  0.33010196  0.66870300  1  0.121233  0  0.125759  0.13915  0  0.952029  0
H  H2  1  0.42499252  0.25938727  0.78819216  1  0.131154  0  0.116025  0.125224  0  0.994823  0
H  H3  1  0.65229441  0.14971043  0.02010038  1  0.09272  0  0.113113  0.122014  0  1.007242  0
H  H4  1  0.62156788  0.81187500  0.25954461  1  0.080517  0  0.113137  0.121473  0  1.010369  0
H  H5  1  0.23665342  0.88649484  0.23821027  1  0.06656  0  0.111248  0.118746  0  0.985701  0
H  H6  1  0.18049616  0.00563329  0.17367721  1  0.069742  0  0.108113  0.110365  0  0.991009  0
H  H7  1  0.39202404  0.09997511  0.11151826  1  0.035096  0  0.103121  0.104365  0  1.022194  0
H  H8  1  0.48763825  0.66936775  0.50139642  1  0.152185  0  0.125191  0.137941  0  0.955092  0
H  H9  1  0.41846396  0.78852784  0.45285724  1  0.111553  0  0.116479  0.125156  0  0.990524  0
H  H10  1  0.64623382  0.02045186  0.32816664  1  0.111173  0  0.113124  0.120793  0  1.012525  0
H  H11  1  0.72701706  0.26149181  0.42212297  1  0.120202  0  0.112857  0.121197  0  1.016811  0
H  H12  1  0.28179848  0.23916349  0.37776445  1  0.077186  0  0.111756  0.119598  0  0.986341  0
H  H13  1  0.20425544  0.17410445  0.32410311  1  0.083798  0  0.108896  0.111513  0  0.987784  0
H  H14  1  0.42174770  0.11100242  0.28905109  1  0.065767  0  0.103361  0.104401  0  1.022671  0
H  H15  1  0.47623682  0.49877362  0.33148857  1  0.133691  0  0.125675  0.139228  0  0.952613  0
H  H16  1  0.42928092  0.44987503  0.26065622  1  0.107146  0  0.116392  0.127554  0  0.990788  0
H  H17  1  0.70015465  0.32411007  0.14934662  1  0.131016  0  0.112878  0.121067  0  1.016823  0
H  H18  1  0.60201544  0.42650089  0.81311702  1  0.108633  0  0.113348  0.121858  0  1.012541  0
H  H19  1  0.21271187  0.37549622  0.88867291  1  0.106019  0  0.111699  0.119164  0  0.984702  0
H  H20  1  0.15965392  0.32081963  0.00857337  1  0.073932  0  0.108731  0.111207  0  0.988259  0
H  H21  1  0.41646967  0.28785239  0.10098877  1  0.035366  0  0.104184  0.106766  0  1.018631  0
C  C22  1  0.60823986  0.45767816  0.59899826  1  1.630871  0  0.28102  0.661453  0  4.105604  0
C  C23  1  0.64450806  0.44224073  0.45668475  1  1.66535  0  0.280199  0.660226  0  4.111729  0
C  C24  1  0.61776909  0.59914833  0.44231893  1  1.680232  0  0.281475  0.661749  0  4.103047  0
C  C25  1  0.51175367  0.35088862  0.70082252  1  0.07854  0  -0.065561  -0.07371  0  3.907399  0
C  C26  1  0.47954449  0.31087296  0.76865870  1  -0.056653  0  -0.067441  -0.078583  0  3.913424  0
C  C27  1  0.58336166  0.23141821  0.92447776  1  0.17964  0  0.078319  0.030289  0  3.907377  0
C  C28  1  0.55125742  0.19937614  0.99278976  1  -0.014652  0  -0.080651  -0.173607  0  3.963416  0
C  C29  1  0.61520197  0.71437765  0.34091467  1  0.312768  0  0.077257  0.044998  0  3.93981  0
C  C30  1  0.58508325  0.78222472  0.31268271  1  -0.013332  0  -0.078974  -0.173642  0  3.959365  0
C  C31  1  0.33614932  0.91610291  0.25729917  1  0.03217  0  -0.081433  -0.117234  0  3.966408  0
C  C32  1  0.30303343  0.98399016  0.22067470  1  -0.069048  0  -0.081437  -0.112487  0  3.969775  0
C  C33  1  0.57468996  0.41804471  0.67260212  1  -0.003452  0  0.013294  -0.044275  0  3.913468  0
C  C34  1  0.51144064  0.33640556  0.81123192  1  0.014565  0  -0.006167  0.067305  0  4.000976  0
C  C35  1  0.47711950  0.29691566  0.88387338  1  0.070614  0  0.009302  0.038404  0  3.949223  0
C  C36  1  0.40952127  0.23088155  0.02533561  1  0.081679  0  -0.006609  0.072992  0  4.010012  0
C  C37  1  0.39933585  0.19771397  0.09800965  1  -0.115696  0  -0.006257  0.081245  0  4.023087  0
C  C38  1  0.39538881  0.12898862  0.13609295  1  -0.026168  0  -0.086231  -0.175404  0  3.921715  0
C  C39  1  0.51657169  0.70109063  0.44827346  1  -0.019189  0  -0.065135  -0.072701  0  3.90712  0
C  C40  1  0.48105337  0.76873656  0.42056730  1  -0.048854  0  -0.067348  -0.077571  0  3.912756  0
C  C41  1  0.58327620  0.92464682  0.34291780  1  0.150312  0  0.079131  0.030416  0  3.903576  0
C  C42  1  0.55123682  0.99268800  0.30672779  1  0.114234  0  -0.081178  -0.171137  0  3.961239  0
C  C43  1  0.69442961  0.34202408  0.44013775  1  0.180211  0  0.076049  0.042352  0  3.9342  0
C  C44  1  0.66855617  0.31360191  0.40065105  1  0.013368  0  -0.081133  -0.177282  0  3.970699  0
C  C45  1  0.38001357  0.25721418  0.32777431  1  -0.028467  0  -0.081699  -0.116761  0  3.963742  0
C  C46  1  0.33568719  0.22037438  0.29721407  1  -0.049592  0  -0.07887  -0.108551  0  3.964994  0
C  C47  1  0.58663411  0.67254015  0.40886977  1  -0.069377  0  0.013148  -0.043997  0  3.914533  0
C  C48  1  0.51951639  0.81080662  0.35219034  1  0.073179  0  -0.00573  0.068372  0  3.998047  0
C  C49  1  0.48566347  0.88324279  0.31917604  1  -0.002537  0  0.009195  0.038642  0  3.950689  0
C  C50  1  0.41661612  0.02434790  0.24412245  1  -0.11216  0  -0.006706  0.07245  0  4.006076  0
C  C51  1  0.40298532  0.09685684  0.20495982  1  0.048105  0  -0.006851  0.079162  0  4.023137  0
C  C52  1  0.41233877  0.13509394  0.23561113  1  -0.003889  0  -0.085659  -0.174187  0  3.922363  0
C  C53  1  0.53240513  0.44671149  0.35097480  1  -0.015893  0  -0.066097  -0.075219  0  3.905933  0
C  C54  1  0.50776250  0.41901927  0.31091800  1  0.044976  0  -0.065688  -0.077055  0  3.909102  0
C  C55  1  0.64484677  0.34054762  0.23058114  1  0.217501  0  0.077563  0.029184  0  3.898329  0
C  C56  1  0.60103643  0.30412600  0.19942074  1  -0.071229  0  -0.081185  -0.171694  0  3.960919  0
C  C57  1  0.59955401  0.44334447  0.71503876  1  0.262367  0  0.077595  0.045528  0  3.935141  0
C  C58  1  0.57032378  0.40369815  0.78307917  1  -0.041357  0  -0.079262  -0.173912  0  3.959599  0
C  C59  1  0.31873005  0.32636016  0.91770786  1  -0.124856  0  -0.080999  -0.115922  0  3.965097  0
C  C60  1  0.28695571  0.29512041  0.98587586  1  0.004182  0  -0.08041  -0.111692  0  3.968785  0
C  C61  1  0.62727313  0.40866101  0.41655134  1  -0.004067  0  0.01349  -0.042598  0  3.910606  0
C  C62  1  0.57620427  0.35182777  0.33514977  1  -0.007281  0  -0.004817  0.069049  0  4.007325  0
C  C63  1  0.54014969  0.31824870  0.29640234  1  0.04817  0  0.011047  0.040326  0  3.948633  0
C  C64  1  0.44899064  0.24288312  0.23204803  1  -0.00789  0  -0.006192  0.071335  0  4.00531  0
C  C65  1  0.41854925  0.20378175  0.19893485  1  0.084407  0  -0.006974  0.080872  0  4.024696  0
C  C66  1  0.40937554  0.23446390  0.13013824  1  -0.081515  0  -0.08638  -0.17723  0  3.922527  0
N  N67  1  0.80608971  0.29966995  0.50790577  1  0.380304  0  0.057742  0.509818  0  4.208631  0
N  N68  1  0.67054229  0.51338534  0.68866115  1  0.381119  0  0.057055  0.509686  0  4.211142  0
N  N69  1  0.69173232  0.68770555  0.29662023  1  0.368036  0  0.058484  0.513372  0  4.210887  0
N  N70  1  0.82789280  0.40227360  0.19024045  1  0.416703  0  0.060152  0.518622  0  4.193933  0
N  N71  1  0.75327537  0.19162901  0.89888360  1  0.360103  0  0.057727  0.516139  0  4.205245  0
N  N72  1  0.74270922  0.90043207  0.40677860  1  0.427739  0  0.05796  0.517513  0  4.199209  0
O  O73  1  0.39494696  0.56795144  0.43311520  1  -1.247403  0  -0.233992  -0.596279  0  2.397205  0
O  O74  1  0.37630817  0.49760064  0.56784014  1  -1.248989  0  -0.233384  -0.595431  0  2.401359  0
O  O75  1  0.40629503  0.43381203  0.49697761  1  -1.249145  0  -0.234039  -0.597577  0  2.412507  0
O  O76  1  0.85568571  0.57436993  0.48142492  1  -1.251778  0  -0.222814  -0.576053  0  2.382734  0
O  O77  1  0.88376181  0.48120559  0.44207860  1  -1.244246  0  -0.22336  -0.575659  0  2.379878  0
O  O78  1  0.85878613  0.44310435  0.57413437  1  -1.242762  0  -0.223568  -0.576302  0  2.383221  0
O  O79  1  0.86986535  0.32692118  0.53985028  1  -0.445513  0  -0.109509  -0.298891  0  1.953302  0
O  O80  1  0.83305122  0.23984664  0.52846032  1  -0.441211  0  -0.1402  -0.335241  0  1.875949  0
O  O81  1  0.78888889  0.54393517  0.63177429  1  -0.442475  0  -0.11164  -0.302274  0  1.945062  0
O  O82  1  0.61002239  0.53694554  0.72505612  1  -0.436957  0  -0.138048  -0.331895  0  1.868998  0
O  O83  1  0.83213065  0.63322604  0.32068559  1  -0.440556  0  -0.114326  -0.304731  0  1.934643  0
O  O84  1  0.61303192  0.72168170  0.23837305  1  -0.437166  0  -0.138101  -0.332429  0  1.868429  0
O  O85  1  0.99216054  0.42317721  0.21930923  1  -0.471983  0  -0.117195  -0.335376  0  2.020069  0
O  O86  1  0.81335853  0.42837105  0.12967460  1  -0.452776  0  -0.129968  -0.320189  0  1.873474  0
O  O87  1  0.95402012  0.21949957  0.85214061  1  -0.45843  0  -0.11687  -0.334384  0  2.02049  0
O  O88  1  0.68962566  0.13241884  0.92720440  1  -0.418761  0  -0.125927  -0.314564  0  1.867846  0
O  O89  1  0.93861690  0.85328000  0.42508334  1  -0.485512  0  -0.115892  -0.335267  0  2.028188  0
O  O90  1  0.67620740  0.93022512  0.43707393  1  -0.442913  0  -0.126551  -0.315896  0  1.866679  0
