# generated using pymatgen
data_Cu5H18C24(N6O5)2
_symmetry_space_group_name_H-M   'P 1'
_cell_length_a   10.51300651
_cell_length_b   10.83242006
_cell_length_c   15.20567799
_cell_angle_alpha   77.04204801
_cell_angle_beta   80.90841855
_cell_angle_gamma   79.35764237
_symmetry_Int_Tables_number   1
_chemical_formula_structural   Cu5H18C24(N6O5)2
_chemical_formula_sum   'Cu10 H36 C48 N24 O20'
_cell_volume   1646.18209320
_cell_formula_units_Z   2
loop_
 _symmetry_equiv_pos_site_id
 _symmetry_equiv_pos_as_xyz
  1  'x, y, z'
loop_
 _atom_site_type_symbol
 _atom_site_label
 _atom_site_symmetry_multiplicity
 _atom_site_fract_x
 _atom_site_fract_y
 _atom_site_fract_z
 _atom_site_occupancy
 _atom_site_pbe_bader_charge
 _atom_site_pbe_bader_spin_density
 _atom_site_pbe_cm5_charge
 _atom_site_pbe_ddec_charge
 _atom_site_pbe_ddec_spin_density
 _atom_site_pbe_ddec_sum_bond_order
 _atom_site_pbe_magmom
Cu  Cu0  1  0.15809308  0.51053504  0.15985363  1  1.075538  0.580844  0.773588  0.736863  0.726737  2.330888  0.579
Cu  Cu1  1  0.92303028  0.76824689  0.09209638  1  1.086428  0.582778  0.756843  0.80773  0.728668  2.282708  0.581
Cu  Cu2  1  0.31969801  0.49128968  0.34322293  1  1.078811  0.58106  0.757217  0.742977  0.72689  2.375931  0.58
Cu  Cu3  1  0.62129031  0.60680480  0.28108150  1  1.111289  0.614643  0.7639  0.816457  0.766623  2.287002  0.611
Cu  Cu4  1  0.84190505  0.48946628  0.84014536  1  1.075579  0.580843  0.773595  0.736876  0.726732  2.330888  0.579
Cu  Cu5  1  0.07696950  0.23175633  0.90790148  1  1.086511  0.58278  0.756786  0.807557  0.72867  2.282912  0.581
Cu  Cu6  1  0.68030219  0.50871067  0.65677601  1  1.078823  0.581059  0.757224  0.742974  0.726888  2.375904  0.58
Cu  Cu7  1  0.37871035  0.39319267  0.71891720  1  1.111273  0.614646  0.763897  0.816447  0.766627  2.287038  0.611
Cu  Cu8  1  0.99999767  0.49999932  0.00000038  1  1.119113  0.60266  0.761003  0.832187  0.755813  2.341927  0.6
Cu  Cu9  1  0.50000223  0.49999585  0.49999897  1  1.095487  0.583953  0.766919  0.822153  0.734165  2.328116  0.582
H  H10  1  0.91138101  0.49894685  0.16784845  1  0.63129  -0.000425  0.287256  0.387404  0.000991  0.930772  0.001
H  H11  1  0.39648922  0.67546560  0.38531914  1  0.621979  -0.000517  0.308667  0.39632  0.000549  0.888188  0.001
H  H12  1  0.15687863  0.83150337  0.35201454  1  0.107509  0.001174  0.124492  0.120101  0.00057  1.003838  0.001
H  H13  1  0.97987237  0.95008110  0.22580124  1  0.151866  0.000605  0.126342  0.125536  0.000183  1.004741  0.0
H  H14  1  0.61427920  0.65845791  0.06208322  1  0.153245  0.001384  0.122  0.118564  0.000576  1.035442  0.001
H  H15  1  0.39242911  0.60317389  0.00342960  1  0.151824  0.001119  0.121394  0.121637  0.000528  1.045388  0.001
H  H16  1  0.30591324  0.07859859  0.04766650  1  0.130335  0.002046  0.133835  0.132545  0.000959  0.975727  0.001
H  H17  1  0.34544074  0.21733485  0.17420919  1  0.153614  0.001588  0.128941  0.130059  0.000737  1.020835  0.001
H  H18  1  0.92940564  0.62172044  0.51611271  1  0.137414  0.001569  0.126955  0.125077  0.000713  1.00539  0.001
H  H19  1  0.89422530  0.68145415  0.33028473  1  0.133902  0.001556  0.123163  0.117371  0.000712  1.055391  0.001
H  H20  1  0.97699406  0.40178257  0.30880535  1  0.086772  0.000258  0.098725  0.096921  0.000157  1.056939  0.0
H  H21  1  0.75332711  0.09211172  0.39567930  1  0.081569  6.7e-05  0.109688  0.118599  5e-06  0.984685  0.0
H  H22  1  0.95812411  0.93815776  0.42006837  1  0.061347  0.000482  0.098125  0.093332  0.000206  1.015838  0.0
H  H23  1  0.17356233  0.01951132  0.39212035  1  0.078214  8.5e-05  0.103803  0.104604  2.1e-05  1.009221  0.0
H  H24  1  0.17800161  0.00995221  0.92201940  1  0.080751  -0.000276  0.094166  0.078816  -0.000677  1.082333  0.0
H  H25  1  0.49247174  0.98579714  0.70245241  1  0.098975  0.000452  0.110904  0.123927  0.000377  0.987752  0.0
H  H26  1  0.48806439  0.75436668  0.72256572  1  0.1397  0.000313  0.102465  0.109819  3.3e-05  1.041723  0.0
H  H27  1  0.32998339  0.64860545  0.84604450  1  0.135911  -4.4e-05  0.102862  0.110722  -6.6e-05  1.029675  0.0
H  H28  1  0.08861614  0.50105449  0.83215196  1  0.631329  -0.000426  0.287276  0.387411  0.000991  0.930763  0.001
H  H29  1  0.60351462  0.32452995  0.61468021  1  0.621921  -0.000517  0.308626  0.396264  0.000549  0.888286  0.001
H  H30  1  0.84312059  0.16849700  0.64798581  1  0.107524  0.001174  0.124487  0.120077  0.00057  1.00388  0.001
H  H31  1  0.02012569  0.04992025  0.77420170  1  0.151897  0.000605  0.126362  0.125551  0.000183  1.004765  0.0
H  H32  1  0.38571941  0.34154052  0.93791421  1  0.153418  0.001384  0.122015  0.118597  0.000575  1.035509  0.001
H  H33  1  0.60756642  0.39682553  0.99657062  1  0.151868  0.001119  0.121409  0.12164  0.000528  1.045386  0.001
H  H34  1  0.69408683  0.92140272  0.95233164  1  0.130318  0.002046  0.13385  0.132558  0.000959  0.975685  0.001
H  H35  1  0.65455851  0.78266550  0.82578919  1  0.153599  0.001588  0.128933  0.130044  0.000737  1.020829  0.001
H  H36  1  0.07059301  0.37828376  0.48388576  1  0.137405  0.001569  0.126943  0.125035  0.000713  1.005451  0.001
H  H37  1  0.10577379  0.31854718  0.66971482  1  0.133903  0.001556  0.123172  0.117402  0.000712  1.055379  0.001
H  H38  1  0.02300341  0.59821684  0.69119402  1  0.086764  0.000258  0.098729  0.096902  0.000157  1.056954  0.0
H  H39  1  0.24667434  0.90788583  0.60432917  1  0.081534  6.8e-05  0.109736  0.118702  6e-06  0.984576  0.0
H  H40  1  0.04187958  0.06184364  0.57994319  1  0.061431  0.000482  0.098141  0.093371  0.000206  1.015835  0.0
H  H41  1  0.82644017  0.98049197  0.60788709  1  0.078225  8.5e-05  0.10384  0.104627  2.1e-05  1.009245  0.0
H  H42  1  0.82200163  0.99004718  0.07798004  1  0.080726  -0.000276  0.09415  0.078789  -0.000677  1.08235  0.0
H  H43  1  0.50752957  0.01420226  0.29754723  1  0.098959  0.000453  0.110938  0.123969  0.000377  0.987725  0.0
H  H44  1  0.51193789  0.24563272  0.27743382  1  0.139726  0.000313  0.10247  0.109846  3.3e-05  1.041657  0.0
H  H45  1  0.67001808  0.35139298  0.15395396  1  0.135922  -4.4e-05  0.102871  0.110687  -6.6e-05  1.029731  0.0
C  C46  1  0.12297261  0.79528487  0.30049058  1  0.414901  0.007255  0.009913  -0.048909  0.005434  4.00132  0.007
C  C47  1  0.03564273  0.85450668  0.23806352  1  0.391674  0.002662  0.016632  -0.04366  0.001768  3.970446  0.004
C  C48  1  0.53088388  0.61649597  0.09924131  1  0.410291  0.005582  0.016557  -0.035129  0.003963  3.944882  0.006
C  C49  1  0.42256867  0.58870215  0.07026828  1  0.388781  0.007314  0.013987  -0.039202  0.005482  3.961678  0.008
C  C50  1  0.26098127  0.17280205  0.05949829  1  0.398358  0.005758  0.021834  -0.043556  0.004337  3.948257  0.007
C  C51  1  0.28012241  0.24104615  0.12234714  1  0.419647  0.005229  0.023934  -0.027106  0.004111  3.92591  0.006
C  C52  1  0.84907071  0.61477862  0.48170007  1  0.40243  0.004684  0.018877  -0.033531  0.003487  3.938389  0.005
C  C53  1  0.83155599  0.64495847  0.39027683  1  0.420124  0.005501  0.018951  -0.028005  0.004004  3.926454  0.006
C  C54  1  0.08846566  0.21488395  0.34743334  1  -0.08973  0.010038  -0.026844  -0.041687  0.006707  4.001942  0.008
C  C55  1  0.97332425  0.29972225  0.33149612  1  -0.059174  0.00253  -0.090519  -0.124534  0.001511  3.95599  0.001
C  C56  1  0.85317528  0.25601590  0.34862616  1  0.050996  0.0109  -0.01857  -0.016924  0.007572  3.971751  0.009
C  C57  1  0.84771264  0.12522835  0.38089948  1  -0.023217  0.002824  -0.079157  -0.088763  0.001682  3.943382  0.002
C  C58  1  0.96292948  0.03971067  0.39443617  1  -0.117715  0.001871  -0.092731  -0.088535  0.001152  4.037286  0.001
C  C59  1  0.08290683  0.08388426  0.37840851  1  0.021615  0.003781  -0.083452  -0.098319  0.002443  3.971369  0.002
C  C60  1  0.21509205  0.26507200  0.33782445  1  1.558922  0.000556  0.194031  0.549754  0.00049  4.238997  -0.001
C  C61  1  0.73234354  0.35306735  0.33786466  1  1.540387  -0.001597  0.19846  0.573664  -0.002664  4.216032  -0.004
C  C62  1  0.24703762  0.82346480  0.89142744  1  -0.034562  0.014066  -0.022307  -0.033261  0.00968  3.97031  0.011
C  C63  1  0.24780569  0.95535925  0.87826863  1  -0.061293  -0.000237  -0.085466  -0.119973  -0.000781  3.974106  0.0
C  C64  1  0.33662248  0.01426973  0.81069916  1  -0.035936  0.006325  -0.025741  -0.054787  0.004181  4.011261  0.005
C  C65  1  0.42389949  0.94002019  0.75555184  1  -0.019942  -0.000482  -0.07288  -0.071155  -0.000698  3.90871  0.0
C  C66  1  0.42178666  0.80898080  0.76771115  1  -0.033601  0.001506  -0.08776  -0.077589  0.000934  3.974191  0.001
C  C67  1  0.33435415  0.75053305  0.83606716  1  -0.079182  0.000788  -0.079448  -0.079102  0.000181  3.930096  0.001
C  C68  1  0.15233196  0.75862892  0.96337878  1  1.525318  -0.00239  0.202455  0.582909  -0.0036  4.192544  -0.005
C  C69  1  0.33940855  0.15462818  0.79347842  1  1.494293  -0.001027  0.204041  0.574829  -0.000889  4.166586  -0.001
C  C70  1  0.87702728  0.20471742  0.69950939  1  0.414912  0.007254  0.009934  -0.048788  0.005434  4.001335  0.007
C  C71  1  0.96435523  0.14549561  0.76193665  1  0.391699  0.002662  0.016601  -0.04378  0.001768  3.970558  0.004
C  C72  1  0.46911499  0.38350055  0.90075838  1  0.410057  0.005582  0.016587  -0.035091  0.003963  3.944911  0.006
C  C73  1  0.57742992  0.41129629  0.92973048  1  0.388825  0.007313  0.013976  -0.039244  0.005482  3.961789  0.008
C  C74  1  0.73901784  0.82719927  0.94049995  1  0.398339  0.005758  0.021809  -0.043594  0.004337  3.948133  0.007
C  C75  1  0.71987669  0.75895517  0.87765176  1  0.419596  0.005229  0.023923  -0.027071  0.00411  3.925843  0.006
C  C76  1  0.15092794  0.38522557  0.51829840  1  0.402372  0.004683  0.018924  -0.033458  0.003487  3.938508  0.005
C  C77  1  0.16844310  0.35504285  0.60972272  1  0.420209  0.0055  0.018901  -0.028126  0.004003  3.926412  0.006
C  C78  1  0.91153367  0.78511548  0.65256912  1  -0.089817  0.010037  -0.026795  -0.041623  0.006706  4.00191  0.008
C  C79  1  0.02667512  0.70027716  0.66850437  1  -0.059075  0.00253  -0.090463  -0.124433  0.001511  3.956096  0.001
C  C80  1  0.14682431  0.74398163  0.65137856  1  0.051109  0.010899  -0.018662  -0.017013  0.007572  3.972104  0.009
C  C81  1  0.15228965  0.87477014  0.61910744  1  -0.023437  0.002824  -0.079105  -0.088711  0.001682  3.943481  0.002
C  C82  1  0.03707373  0.96028784  0.60557328  1  -0.11766  0.001871  -0.092794  -0.088723  0.001152  4.037621  0.001
C  C83  1  0.91709519  0.91611614  0.62159681  1  0.021625  0.003781  -0.083533  -0.098338  0.002443  3.971426  0.002
C  C84  1  0.78491087  0.73492931  0.66217603  1  1.558903  0.000556  0.193997  0.549631  0.00049  4.238951  -0.001
C  C85  1  0.26765432  0.64692921  0.66213842  1  1.540934  -0.001596  0.198424  0.573559  -0.002665  4.216058  -0.004
C  C86  1  0.75296051  0.17653652  0.10857155  1  -0.034575  0.014066  -0.022261  -0.033193  0.00968  3.970207  0.011
C  C87  1  0.75219629  0.04464206  0.12173063  1  -0.061118  -0.000238  -0.085519  -0.12002  -0.000781  3.97407  0.0
C  C88  1  0.66337786  0.98572967  0.18930058  1  -0.035948  0.006325  -0.025762  -0.05482  0.004181  4.011276  0.005
C  C89  1  0.57610487  0.05997824  0.24444698  1  -0.020011  -0.000483  -0.072943  -0.07123  -0.000698  3.908616  0.0
C  C90  1  0.57821437  0.19102051  0.23228755  1  -0.033569  0.001506  -0.087748  -0.077651  0.000934  3.974072  0.001
C  C91  1  0.66564782  0.24946826  0.16393276  1  -0.079194  0.000788  -0.079421  -0.078982  0.000181  3.930102  0.001
C  C92  1  0.84766728  0.24137143  0.03662025  1  1.525293  -0.002389  0.202502  0.582918  -0.0036  4.192394  -0.005
C  C93  1  0.66059276  0.84537122  0.20652121  1  1.494292  -0.001027  0.204241  0.575019  -0.000889  4.166234  -0.001
N  N94  1  0.02723388  0.76635073  0.18980210  1  -0.70582  0.085686  -0.26613  -0.168347  0.055948  3.59513  0.075
N  N95  1  0.10655799  0.65870665  0.22118735  1  -0.200808  0.07787  -0.161797  -0.046306  0.05311  3.591254  0.069
N  N96  1  0.16507131  0.67408097  0.28818790  1  -0.658668  0.015773  -0.227722  -0.196997  0.008846  3.430092  0.013
N  N97  1  0.34859768  0.53575428  0.14543243  1  -0.687828  0.082075  -0.251271  -0.169825  0.053732  3.572424  0.072
N  N98  1  0.40816305  0.53072580  0.21734155  1  -0.181545  0.065371  -0.15642  -0.042127  0.044882  3.573823  0.057
N  N99  1  0.51795375  0.58044321  0.19082357  1  -0.676317  0.087704  -0.254028  -0.145555  0.057683  3.581182  0.077
N  N100  1  0.19766410  0.35346033  0.10853143  1  -0.689593  0.080424  -0.258108  -0.150965  0.052636  3.592138  0.07
N  N101  1  0.13177991  0.35473485  0.04050477  1  -0.174722  0.066373  -0.164558  -0.045989  0.045199  3.58557  0.058
N  N102  1  0.16864385  0.24685706  0.00952852  1  -0.671011  0.078222  -0.251102  -0.148461  0.051684  3.585274  0.068
N  N103  1  0.71236171  0.61939880  0.38450551  1  -0.672344  0.0817  -0.248837  -0.141382  0.053948  3.553215  0.071
N  N104  1  0.65906125  0.57512344  0.46807301  1  -0.171171  0.068472  -0.165653  -0.046252  0.046766  3.588122  0.06
N  N105  1  0.74000237  0.57104849  0.52796572  1  -0.675286  0.077609  -0.261249  -0.152302  0.050862  3.609786  0.068
N  N106  1  0.97276588  0.23365251  0.81019707  1  -0.70578  0.085682  -0.266158  -0.168283  0.055946  3.595058  0.075
N  N107  1  0.89344208  0.34129466  0.77881078  1  -0.200976  0.077872  -0.161757  -0.046195  0.053111  3.591079  0.069
N  N108  1  0.83492878  0.32592034  0.71180958  1  -0.658616  0.015773  -0.227729  -0.197083  0.008846  3.430101  0.013
N  N109  1  0.65140089  0.46424417  0.85456765  1  -0.687799  0.082074  -0.251276  -0.169791  0.053731  3.572389  0.072
N  N110  1  0.59183651  0.46927263  0.78265711  1  -0.181549  0.065367  -0.156408  -0.042134  0.044879  3.573764  0.057
N  N111  1  0.48204578  0.41955523  0.80917575  1  -0.676371  0.087705  -0.254058  -0.145615  0.057683  3.581144  0.077
N  N112  1  0.80233418  0.64654004  0.89146771  1  -0.689622  0.080424  -0.258129  -0.151028  0.052636  3.592238  0.07
N  N113  1  0.86821852  0.64526456  0.95949451  1  -0.174692  0.066372  -0.164545  -0.046031  0.045199  3.585686  0.058
N  N114  1  0.83135525  0.75314425  0.99046972  1  -0.670953  0.078221  -0.251089  -0.148418  0.051684  3.585228  0.068
N  N115  1  0.28763880  0.38059964  0.61549370  1  -0.67234  0.081699  -0.248817  -0.141304  0.053948  3.553114  0.071
N  N116  1  0.34093927  0.42487499  0.53192489  1  -0.171263  0.068473  -0.165744  -0.046322  0.046767  3.588072  0.06
N  N117  1  0.25999592  0.42895187  0.47203276  1  -0.675291  0.077608  -0.261194  -0.152283  0.050862  3.610012  0.068
O  O118  1  0.20579513  0.38981288  0.30662208  1  -1.137544  0.119333  -0.349205  -0.613847  0.073571  2.509036  0.108
O  O119  1  0.31562751  0.19312826  0.36066625  1  -1.151202  0.008874  -0.310154  -0.513714  0.004938  2.11235  0.008
O  O120  1  0.74723848  0.45001342  0.27042981  1  -1.099706  0.134667  -0.327652  -0.557712  0.083117  2.337144  0.121
O  O121  1  0.63124110  0.34044964  0.39226154  1  -1.174925  0.002657  -0.323537  -0.581309  -5.4e-05  2.166787  0.004
O  O122  1  0.16632735  0.63795603  0.98224491  1  -1.152193  0.001749  -0.327025  -0.610596  -0.001022  2.306226  0.004
O  O123  1  0.06192997  0.83543336  0.00061812  1  -1.096273  0.142042  -0.322974  -0.531579  0.087458  2.328335  0.128
O  O124  1  0.24578525  0.23382695  0.82488121  1  -1.146156  0.072324  -0.335497  -0.594106  0.045081  2.437562  0.067
O  O125  1  0.43755797  0.19722887  0.74349282  1  -1.101627  0.107627  -0.313875  -0.512062  0.067465  2.232972  0.096
O  O126  1  0.97617758  0.54355687  0.12438253  1  -1.129908  0.254383  -0.567089  -0.828218  0.15832  2.255481  0.224
O  O127  1  0.43935551  0.58857566  0.38132841  1  -1.124317  0.231563  -0.570171  -0.832218  0.144866  2.361702  0.206
O  O128  1  0.79420174  0.61019037  0.69337739  1  -1.137494  0.119324  -0.349204  -0.613813  0.073566  2.509184  0.108
O  O129  1  0.68437169  0.80687880  0.63933039  1  -1.151215  0.008877  -0.310142  -0.513667  0.00494  2.112008  0.008
O  O130  1  0.25275791  0.54998025  0.72957192  1  -1.099826  0.134672  -0.327648  -0.557702  0.083119  2.337071  0.121
O  O131  1  0.36875636  0.65954309  0.60774286  1  -1.175338  0.002656  -0.323516  -0.581242  -5.4e-05  2.166776  0.004
O  O132  1  0.83366968  0.36204625  0.01775338  1  -1.152244  0.00175  -0.327083  -0.61061  -0.001022  2.306089  0.004
O  O133  1  0.93806981  0.16456987  0.99937974  1  -1.096351  0.14204  -0.322956  -0.531536  0.087458  2.328346  0.128
O  O134  1  0.75421783  0.76617340  0.17511809  1  -1.146186  0.072323  -0.335543  -0.594157  0.04508  2.43753  0.067
O  O135  1  0.56244430  0.80277053  0.25650672  1  -1.101575  0.107626  -0.314037  -0.512238  0.067464  2.232738  0.096
O  O136  1  0.02381974  0.45644349  0.87561670  1  -1.129952  0.254387  -0.567107  -0.828195  0.158322  2.255541  0.224
O  O137  1  0.56064740  0.41141987  0.61866906  1  -1.124294  0.23157  -0.570119  -0.832198  0.144869  2.361873  0.206
