# generated using pymatgen
data_Zn4H10C24S4N2O13
_symmetry_space_group_name_H-M   'P 1'
_cell_length_a   19.66352058
_cell_length_b   19.66278169
_cell_length_c   33.34603456
_cell_angle_alpha   79.24022026
_cell_angle_beta   79.23870173
_cell_angle_gamma   63.91653667
_symmetry_Int_Tables_number   1
_chemical_formula_structural   Zn4H10C24S4N2O13
_chemical_formula_sum   'Zn16 H40 C96 S16 N8 O52'
_cell_volume   11295.95278631
_cell_formula_units_Z   4
loop_
 _symmetry_equiv_pos_site_id
 _symmetry_equiv_pos_as_xyz
  1  'x, y, z'
loop_
 _atom_site_type_symbol
 _atom_site_label
 _atom_site_symmetry_multiplicity
 _atom_site_fract_x
 _atom_site_fract_y
 _atom_site_fract_z
 _atom_site_occupancy
 _atom_site_pbe_bader_charge
 _atom_site_pbe_bader_spin_density
 _atom_site_pbe_cm5_charge
 _atom_site_pbe_ddec_charge
 _atom_site_pbe_ddec_spin_density
 _atom_site_pbe_ddec_sum_bond_order
 _atom_site_pbe_magmom
Zn  Zn0  1  0.05618478  0.40071626  0.47843857  1  1.323677  0  0.674167  0.973926  0  2.367111  0
Zn  Zn1  1  0.98364533  0.48366196  0.56002132  1  1.306671  0  0.661715  0.944028  0  2.401755  0
Zn  Zn2  1  0.05920727  0.56095058  0.48337091  1  1.316159  0  0.667216  0.957689  0  2.38799  0
Zn  Zn3  1  0.90097375  0.55472116  0.47889946  1  1.314458  0  0.667673  0.9584  0  2.387987  0
Zn  Zn4  1  0.69469730  0.34946800  0.27141897  1  1.320297  0  0.671854  0.970683  0  2.36686  0
Zn  Zn5  1  0.68876332  0.19003678  0.26687978  1  1.314638  0  0.671302  0.966402  0  2.369635  0
Zn  Zn6  1  0.76751839  0.26550670  0.19021656  1  1.316669  0  0.666182  0.955416  0  2.386054  0
Zn  Zn7  1  0.84823341  0.19442483  0.27211765  1  1.314897  0  0.666415  0.954126  0  2.381511  0
Zn  Zn8  1  0.26681115  0.76718245  0.68958881  1  1.312505  0  0.672179  0.965392  0  2.371068  0
Zn  Zn9  1  0.34820203  0.69539780  0.77194653  1  1.314165  0  0.665895  0.955199  0  2.387666  0
Zn  Zn10  1  0.19376949  0.84884188  0.77223911  1  1.322402  0  0.671959  0.969756  0  2.371824  0
Zn  Zn11  1  0.19110114  0.68920760  0.76695623  1  1.318403  0  0.666122  0.954879  0  2.391113  0
Zn  Zn12  1  0.56081329  0.05967279  0.98328234  1  1.315963  0  0.670595  0.964046  0  2.372309  0
Zn  Zn13  1  0.40105053  0.05559391  0.97838215  1  1.314327  0  0.671046  0.962544  0  2.372225  0
Zn  Zn14  1  0.55504904  0.90117049  0.97818282  1  1.313684  0  0.670219  0.966087  0  2.375186  0
Zn  Zn15  1  0.48388205  0.98272730  0.06040594  1  1.313815  0  0.671287  0.966148  0  2.370749  0
H  H16  1  0.79592334  0.50209513  0.39923087  1  0.083664  0  0.107753  0.112571  0  0.995517  0
H  H17  1  0.95452166  0.24768366  0.35104634  1  0.081484  0  0.107085  0.111912  0  0.996327  0
H  H18  1  0.74800994  0.45399315  0.35090991  1  0.088107  0  0.109755  0.115799  0  0.9915  0
H  H19  1  0.00247160  0.29590221  0.39930524  1  0.083555  0  0.11015  0.115835  0  0.99045  0
H  H20  1  0.15211955  0.65299631  0.54953372  1  0.093742  0  0.109155  0.11454  0  0.992034  0
H  H21  1  0.09788329  0.59755125  0.70090432  1  0.076434  0  0.107006  0.112192  0  0.995963  0
H  H22  1  0.20047153  0.70105589  0.59772729  1  0.088941  0  0.109707  0.115165  0  0.992219  0
H  H23  1  0.04988477  0.54917335  0.65268026  1  0.093397  0  0.105505  0.109031  0  0.998917  0
H  H24  1  0.46260495  0.24120757  0.34082153  1  0.105615  0  0.120452  0.145649  0  0.968839  0
H  H25  1  0.47958671  0.70133012  0.60183151  1  0.132377  0  0.121308  0.146663  0  0.967803  0
H  H26  1  0.20386019  0.97984931  0.60196408  1  0.126296  0  0.120883  0.146108  0  0.967919  0
H  H27  1  0.94853026  0.96910550  0.34755479  1  0.122397  0  0.119664  0.144668  0  0.970463  0
H  H28  1  0.70118298  0.19999715  0.09765663  1  0.09624  0  0.108448  0.113676  0  0.993645  0
H  H29  1  0.54909006  0.04948004  0.15242391  1  0.090883  0  0.109094  0.114493  0  0.992435  0
H  H30  1  0.65245350  0.15252904  0.04935597  1  0.086892  0  0.109316  0.115448  0  0.992439  0
H  H31  1  0.59750494  0.09730486  0.20069812  1  0.087673  0  0.109751  0.115797  0  0.991879  0
H  H32  1  0.54851171  0.76974219  0.14825157  1  0.129836  0  0.120845  0.146635  0  0.967383  0
H  H33  1  0.16299105  0.14264722  0.04084767  1  0.140878  0  0.120456  0.146  0  0.969  0
H  H34  1  0.24722772  0.95473718  0.85093886  1  0.084869  0  0.11003  0.11587  0  0.990706  0
H  H35  1  0.50180489  0.79645605  0.89917455  1  0.097162  0  0.109129  0.1144  0  0.992341  0
H  H36  1  0.29534622  0.00284609  0.89922115  1  0.077929  0  0.109158  0.114572  0  0.992353  0
H  H37  1  0.45379917  0.74857340  0.85073521  1  0.088577  0  0.108011  0.112931  0  0.994823  0
H  H38  1  0.30195674  0.27966161  0.90176705  1  0.107229  0  0.120875  0.146418  0  0.969243  0
H  H39  1  0.78622774  0.00978777  0.90819733  1  0.107095  0  0.120613  0.146059  0  0.968865  0
H  H40  1  0.31244845  0.55826799  0.39533946  1  0.455891  0  0.31455  0.309788  0  0.933008  0
H  H41  1  0.23303426  0.55343869  0.42694126  1  0.479453  0  0.307063  0.320277  0  0.957351  0
H  H42  1  0.76779906  0.52194498  0.68528593  1  0.441511  0  0.311738  0.305453  0  0.93825  0
H  H43  1  0.83626373  0.51825312  0.64323954  1  0.486571  0  0.303667  0.315505  0  0.963716  0
H  H44  1  0.04584532  0.26883654  0.68571772  1  0.454735  0  0.311264  0.30559  0  0.937707  0
H  H45  1  0.02038840  0.33649715  0.64301317  1  0.478504  0  0.302066  0.312926  0  0.967392  0
H  H46  1  0.74242418  0.80241976  0.38539211  1  0.456211  0  0.314935  0.309978  0  0.932109  0
H  H47  1  0.79441313  0.72516751  0.41914400  1  0.497436  0  0.307727  0.320644  0  0.956383  0
H  H48  1  0.72780196  0.48167389  0.06450956  1  0.44943  0  0.314234  0.308921  0  0.933937  0
H  H49  1  0.73328734  0.41294492  0.10667000  1  0.480132  0  0.307207  0.320753  0  0.95562  0
H  H50  1  0.14475868  0.08535430  0.22729821  1  0.443382  0  0.314774  0.309682  0  0.932814  0
H  H51  1  0.04652747  0.11594840  0.23993466  1  0.499067  0  0.306894  0.319799  0  0.957764  0
H  H52  1  0.51686037  0.43628389  0.85443705  1  0.459265  0  0.314245  0.30941  0  0.934938  0
H  H53  1  0.45635008  0.52340296  0.83042834  1  0.50827  0  0.306845  0.32026  0  0.957625  0
H  H54  1  0.92658165  0.70120189  0.84387800  1  0.460337  0  0.314017  0.308619  0  0.935122  0
H  H55  1  0.01584804  0.69742633  0.82218521  1  0.494766  0  0.306899  0.319559  0  0.957688  0
C  C56  1  0.05883869  0.31606553  0.56265679  1  1.500478  0  0.205442  0.615081  0  4.218804  0
C  C57  1  0.06961303  0.56947650  0.56973230  1  1.550986  0  0.228676  0.606605  0  4.162465  0
C  C58  1  0.18566272  0.43963449  0.43957293  1  1.511607  0  0.205392  0.613887  0  4.22256  0
C  C59  1  0.93576145  0.68534871  0.43913404  1  1.525252  0  0.205093  0.614264  0  4.223661  0
C  C60  1  0.93062480  0.43072557  0.43067660  1  1.560772  0  0.230032  0.606612  0  4.162328  0
C  C61  1  0.81599304  0.56267424  0.56292129  1  1.495556  0  0.205261  0.614119  0  4.221153  0
C  C62  1  0.56490424  0.31250728  0.31088051  1  1.574614  0  0.21742  0.610255  0  4.216182  0
C  C63  1  0.68115757  0.17956392  0.18065497  1  1.546712  0  0.229001  0.604201  0  4.166499  0
C  C64  1  0.68808667  0.43341164  0.18722953  1  1.483942  0  0.205225  0.613939  0  4.222456  0
C  C65  1  0.93587325  0.18608979  0.18934581  1  1.52026  0  0.204875  0.613649  0  4.221825  0
C  C66  1  0.82001308  0.31926726  0.31937550  1  1.560263  0  0.228703  0.604298  0  4.164158  0
C  C67  1  0.81105880  0.06529587  0.31129476  1  1.596951  0  0.21693  0.611362  0  4.220072  0
C  C68  1  0.43410398  0.68710612  0.68870770  1  1.58688  0  0.216557  0.609229  0  4.222063  0
C  C69  1  0.31939597  0.82029139  0.81924537  1  1.554872  0  0.228904  0.605014  0  4.16419  0
C  C70  1  0.18942134  0.93438755  0.68882732  1  1.557263  0  0.217366  0.61056  0  4.218933  0
C  C71  1  0.06589549  0.80872105  0.81244024  1  1.499502  0  0.204555  0.612724  0  4.222634  0
C  C72  1  0.18058803  0.68082675  0.68070982  1  1.551051  0  0.229158  0.60617  0  4.163899  0
C  C73  1  0.31330256  0.56548448  0.81238606  1  1.520883  0  0.203752  0.611936  0  4.225019  0
C  C74  1  0.43931233  0.18353521  0.93817078  1  1.56699  0  0.217452  0.609329  0  4.219033  0
C  C75  1  0.42997728  0.93092494  0.93070158  1  1.56284  0  0.229077  0.604586  0  4.166899  0
C  C76  1  0.68376706  0.93863422  0.93798241  1  1.565479  0  0.216629  0.607658  0  4.221179  0
C  C77  1  0.56275522  0.81543724  0.06138183  1  1.574072  0  0.218142  0.610392  0  4.218263  0
C  C78  1  0.56962416  0.06937763  0.06944886  1  1.545951  0  0.229135  0.60459  0  4.166447  0
C  C79  1  0.31608684  0.06236881  0.06156242  1  1.599932  0  0.216387  0.607207  0  4.223344  0
C  C80  1  0.90206531  0.40191229  0.40191055  1  -0.039221  0  -0.011652  -0.030257  0  3.961849  0
C  C81  1  0.84863480  0.34813980  0.34806814  1  -0.058111  0  -0.01175  -0.0276  0  3.960762  0
C  C82  1  0.83024294  0.44659233  0.38837592  1  -0.003458  0  -0.079755  -0.090147  0  3.968684  0
C  C83  1  0.92038295  0.30339458  0.36168771  1  -0.060487  0  -0.080954  -0.093805  0  3.971439  0
C  C84  1  0.80368479  0.41991132  0.36161407  1  0.008663  0  -0.08011  -0.092656  0  3.966609  0
C  C85  1  0.94695023  0.33008685  0.38843836  1  0.0424  0  -0.078956  -0.088883  0  3.965103  0
C  C86  1  0.09831880  0.59827996  0.59838943  1  -0.040278  0  -0.012236  -0.028592  0  3.961927  0
C  C87  1  0.15186787  0.65209557  0.65204433  1  0.026005  0  -0.012807  -0.030095  0  3.963415  0
C  C88  1  0.14067628  0.64114379  0.58271556  1  0.00438  0  -0.077875  -0.088326  0  3.963909  0
C  C89  1  0.10942646  0.60930456  0.66772420  1  -0.058024  0  -0.080938  -0.093226  0  3.974006  0
C  C90  1  0.16738226  0.66782348  0.60939889  1  -0.032701  0  -0.079172  -0.090849  0  3.96534  0
C  C91  1  0.08287914  0.58250427  0.64103256  1  -0.030744  0  -0.081463  -0.091509  0  3.975131  0
C  C92  1  0.30410215  0.45621247  0.40221761  1  0.51316  0  0.103111  0.277699  0  4.133576  0
C  C93  1  0.44539769  0.29816404  0.34873251  1  0.024271  0  -0.087232  -0.130452  0  3.960877  0
C  C94  1  0.25943526  0.41474196  0.41520605  1  -0.103222  0  -0.049124  -0.262289  0  3.959539  0
C  C95  1  0.49005089  0.33818032  0.33583315  1  -0.148959  0  -0.025163  -0.117902  0  3.982834  0
C  C96  1  0.37752436  0.34080702  0.37273033  1  -0.124518  0  -0.021735  0.007366  0  4.105867  0
C  C97  1  0.37186219  0.41269303  0.37767571  1  -0.193469  0  -0.030795  -0.125176  0  4.04498  0
C  C98  1  0.72752793  0.57703652  0.63036801  1  0.590675  0  0.102599  0.277101  0  4.131524  0
C  C99  1  0.52452128  0.67235150  0.62176173  1  0.052809  0  -0.086442  -0.130282  0  3.958561  0
C  C100  1  0.74221569  0.58808035  0.58730276  1  -0.144808  0  -0.049111  -0.261632  0  3.960015  0
C  C101  1  0.50922744  0.66189491  0.66410449  1  -0.206542  0  -0.025031  -0.114625  0  3.984397  0
C  C102  1  0.60378701  0.64124025  0.60923213  1  -0.14757  0  -0.022016  0.007181  0  4.102755  0
C  C103  1  0.64740283  0.60783992  0.64242249  1  -0.168746  0  -0.030934  -0.124379  0  4.045455  0
C  C104  1  0.07269018  0.22764844  0.63012457  1  0.464996  0  0.101744  0.276446  0  4.128883  0
C  C105  1  0.17430739  0.02478818  0.62186505  1  0.089311  0  -0.086779  -0.130118  0  3.959094  0
C  C106  1  0.08289569  0.24223121  0.58702607  1  -0.074219  0  -0.048625  -0.262807  0  3.959544  0
C  C107  1  0.16424956  0.00957377  0.66423255  1  -0.200637  0  -0.025488  -0.117019  0  3.982059  0
C  C108  1  0.14138495  0.10397927  0.60921986  1  -0.169961  0  -0.022091  0.005559  0  4.106228  0
C  C109  1  0.10678795  0.14763012  0.64235066  1  -0.167705  0  -0.031072  -0.125245  0  4.047955  0
C  C110  1  0.84137690  0.80037905  0.39840334  1  0.506792  0  0.104891  0.280492  0  4.132515  0
C  C111  1  0.90409311  0.94875122  0.35216339  1  0.050033  0  -0.088334  -0.132212  0  3.963143  0
C  C112  1  0.91121170  0.75912735  0.41483664  1  -0.109272  0  -0.050363  -0.264313  0  3.962731  0
C  C113  1  0.83553016  0.99019405  0.33596722  1  -0.186364  0  -0.024966  -0.117601  0  3.983007  0
C  C114  1  0.90688555  0.87943540  0.37466260  1  -0.154777  0  -0.021698  0.009276  0  4.105956  0
C  C115  1  0.84009182  0.86949914  0.37522646  1  -0.174211  0  -0.031206  -0.126564  0  4.04427  0
C  C116  1  0.65219816  0.15122921  0.15190112  1  0.031528  0  -0.011943  -0.028404  0  3.961704  0
C  C117  1  0.59814577  0.09818538  0.09815393  1  0.027514  0  -0.012572  -0.030153  0  3.966428  0
C  C118  1  0.66783137  0.16701187  0.10926841  1  -0.036293  0  -0.078928  -0.090015  0  3.968837  0
C  C119  1  0.58240123  0.08250149  0.14079070  1  -0.023987  0  -0.079076  -0.090037  0  3.968022  0
C  C120  1  0.64087466  0.14070324  0.08253068  1  -0.067687  0  -0.079772  -0.09245  0  3.970203  0
C  C121  1  0.60923633  0.10894274  0.16752093  1  -0.0704  0  -0.079047  -0.091548  0  3.967681  0
C  C122  1  0.67374707  0.52179643  0.11966626  1  0.471211  0  0.103705  0.278156  0  4.133354  0
C  C123  1  0.57754235  0.72486146  0.12828904  1  0.062028  0  -0.087104  -0.131334  0  3.959942  0
C  C124  1  0.66265349  0.50710697  0.16275563  1  -0.055839  0  -0.049112  -0.262279  0  3.959803  0
C  C125  1  0.58796983  0.74024767  0.08593619  1  -0.209714  0  -0.025525  -0.117479  0  3.984175  0
C  C126  1  0.60882323  0.64558510  0.14079581  1  -0.118685  0  -0.022021  0.006788  0  4.107146  0
C  C127  1  0.64245736  0.60199989  0.10759975  1  -0.194445  0  -0.030336  -0.124516  0  4.042822  0
C  C128  1  0.08132607  0.12204446  0.17886246  1  0.547633  0  0.104028  0.279159  0  4.131271  0
C  C129  1  0.17038845  0.12583708  0.07326174  1  0.077221  0  -0.08735  -0.131428  0  3.960841  0
C  C130  1  0.00931716  0.16117591  0.16462817  1  -0.157829  0  -0.049815  -0.26253  0  3.958706  0
C  C131  1  0.24158822  0.08708454  0.08684289  1  -0.209964  0  -0.024886  -0.117256  0  3.983131  0
C  C132  1  0.11180695  0.13910139  0.10653272  1  -0.141063  0  -0.022075  0.007996  0  4.105537  0
C  C133  1  0.13966752  0.11000198  0.14491798  1  -0.219745  0  -0.03028  -0.124664  0  4.043359  0
C  C134  1  0.34791012  0.84900716  0.84801996  1  -0.058312  0  -0.011633  -0.029517  0  3.962402  0
C  C135  1  0.40133455  0.90243799  0.90189096  1  -0.019273  0  -0.012036  -0.031111  0  3.964474  0
C  C136  1  0.30291962  0.92070109  0.86162514  1  -0.017877  0  -0.078928  -0.090273  0  3.964672  0
C  C137  1  0.44625035  0.83066362  0.88835953  1  -0.012117  0  -0.079379  -0.089761  0  3.966276  0
C  C138  1  0.32953606  0.94730705  0.88838430  1  -0.028161  0  -0.07944  -0.090666  0  3.966713  0
C  C139  1  0.41968859  0.80413963  0.86154602  1  0.015933  0  -0.080137  -0.090983  0  3.968697  0
C  C140  1  0.40729951  0.45058871  0.85338552  1  0.506293  0  0.104662  0.279948  0  4.130891  0
C  C141  1  0.34635532  0.30006004  0.89722921  1  0.084184  0  -0.087954  -0.132997  0  3.962685  0
C  C142  1  0.33722543  0.49227132  0.83725150  1  -0.122024  0  -0.049538  -0.262187  0  3.961147  0
C  C143  1  0.41503914  0.25839175  0.91326366  1  -0.177799  0  -0.024397  -0.114963  0  3.982111  0
C  C144  1  0.34324236  0.36984162  0.87522742  1  -0.177173  0  -0.022238  0.008271  0  4.10571  0
C  C145  1  0.40977120  0.38004043  0.87506087  1  -0.140088  0  -0.030638  -0.125351  0  4.043841  0
C  C146  1  0.94734350  0.79229247  0.84962628  1  0.504012  0  0.102884  0.27774  0  4.134039  0
C  C147  1  0.80350077  0.95272964  0.90042983  1  0.017788  0  -0.087292  -0.131554  0  3.961195  0
C  C148  1  0.99258954  0.83323277  0.83723111  1  -0.094457  0  -0.048618  -0.261763  0  3.960183  0
C  C149  1  0.75849853  0.91303618  0.91298776  1  -0.162358  0  -0.02525  -0.116268  0  3.985258  0
C  C150  1  0.87212096  0.90935172  0.87721913  1  -0.106631  0  -0.021672  0.007384  0  4.10436  0
C  C151  1  0.87804211  0.83720808  0.87259537  1  -0.185692  0  -0.030565  -0.125018  0  4.044397  0
S  S152  1  0.30017573  0.32473870  0.39802280  1  0.245825  0  0.05396  0.094618  0  2.74889  0
S  S153  1  0.45002013  0.42771186  0.35286651  1  0.255144  0  0.070826  0.118387  0  2.758943  0
S  S154  1  0.65984311  0.63558621  0.56254338  1  0.254838  0  0.055651  0.097024  0  2.750153  0
S  S155  1  0.59090867  0.61462508  0.68898925  1  0.238379  0  0.064959  0.109834  0  2.766371  0
S  S156  1  0.13263033  0.15985731  0.56239824  1  0.256876  0  0.058249  0.101292  0  2.747516  0
S  S157  1  0.11453325  0.09125946  0.68898736  1  0.230696  0  0.070483  0.117869  0  2.760083  0
S  S158  1  0.97285361  0.80447871  0.40240564  1  0.247091  0  0.049397  0.088824  0  2.75384  0
S  S159  1  0.77393766  0.94539137  0.34809336  1  0.248646  0  0.071262  0.119448  0  2.759907  0
S  S160  1  0.61452364  0.58952063  0.18749269  1  0.248673  0  0.054336  0.095688  0  2.751161  0
S  S161  1  0.63554721  0.65856412  0.06104289  1  0.24117  0  0.069734  0.117031  0  2.75984  0
S  S162  1  0.01357704  0.18178111  0.11108533  1  0.252383  0  0.050351  0.089576  0  2.750708  0
S  S163  1  0.23781450  0.06619575  0.14006245  1  0.27532  0  0.071069  0.119108  0  2.75928  0
S  S164  1  0.27615933  0.44626716  0.84885682  1  0.251673  0  0.051485  0.091229  0  2.751865  0
S  S165  1  0.47609831  0.30379666  0.90191248  1  0.254698  0  0.069962  0.11699  0  2.761083  0
S  S166  1  0.95122702  0.92384605  0.85368214  1  0.250468  0  0.054222  0.095206  0  2.749656  0
S  S167  1  0.79931562  0.82273390  0.89685386  1  0.260252  0  0.069696  0.116634  0  2.761259  0
N  N168  1  0.28663085  0.52629496  0.41267359  1  -1.255823  0  -0.582208  -0.593456  0  3.329165  0
N  N169  1  0.78178631  0.54413992  0.65676244  1  -1.274888  0  -0.58458  -0.593585  0  3.32854  0
N  N170  1  0.03363108  0.28189854  0.65631154  1  -1.241581  0  -0.586557  -0.595802  0  3.325166  0
N  N171  1  0.78285038  0.77882885  0.40481139  1  -1.257557  0  -0.580907  -0.591391  0  3.330155  0
N  N172  1  0.70707153  0.46752443  0.09336290  1  -1.233406  0  -0.58261  -0.593823  0  3.327707  0
N  N173  1  0.09351159  0.09707080  0.21894687  1  -1.263134  0  -0.582391  -0.592842  0  3.327329  0
N  N174  1  0.46331316  0.47504904  0.84997813  1  -1.284909  0  -0.582811  -0.594554  0  3.329473  0
N  N175  1  0.96771638  0.71970677  0.84201484  1  -1.280325  0  -0.581758  -0.592118  0  3.331141  0
O  O176  1  0.00000663  0.49990148  0.50016396  1  -1.229198  0  -0.571913  -1.020715  0  2.538798  0
O  O177  1  0.07543696  0.31731256  0.52357652  1  -1.153614  0  -0.325549  -0.551935  0  2.338113  0
O  O178  1  0.03372186  0.52858498  0.58609904  1  -1.166214  0  -0.319011  -0.553111  0  2.341133  0
O  O179  1  0.15754591  0.50687851  0.45129745  1  -1.176321  0  -0.322595  -0.55848  0  2.326908  0
O  O180  1  0.02254416  0.37530354  0.58236854  1  -1.180507  0  -0.324484  -0.560589  0  2.329875  0
O  O181  1  0.15357197  0.39338791  0.44759324  1  -1.172295  0  -0.328129  -0.555318  0  2.340309  0
O  O182  1  0.08326088  0.58803390  0.53135187  1  -1.170176  0  -0.313486  -0.545218  0  2.338518  0
O  O183  1  0.00297515  0.65638653  0.45019747  1  -1.179377  0  -0.331101  -0.55892  0  2.346186  0
O  O184  1  0.88692719  0.49674314  0.44153324  1  -1.17327  0  -0.316833  -0.550304  0  2.340067  0
O  O185  1  0.88824005  0.65406906  0.44771804  1  -1.182414  0  -0.321566  -0.556484  0  2.326019  0
O  O186  1  0.99619776  0.38708237  0.44196773  1  -1.173713  0  -0.312988  -0.545132  0  2.335308  0
O  O187  1  0.87532406  0.52812214  0.58260040  1  -1.180168  0  -0.322814  -0.557712  0  2.328021  0
O  O188  1  0.81699513  0.57595825  0.52373255  1  -1.15562  0  -0.328226  -0.554797  0  2.342131  0
O  O189  1  0.74968778  0.24960823  0.25044665  1  -1.22994  0  -0.570844  -1.023793  0  2.529926  0
O  O190  1  0.59611311  0.35931943  0.30272706  1  -1.15776  0  -0.320368  -0.548981  0  2.332921  0
O  O191  1  0.66355938  0.16443912  0.21906201  1  -1.172508  0  -0.314449  -0.546268  0  2.339449  0
O  O192  1  0.72402545  0.37389708  0.16778165  1  -1.181776  0  -0.32108  -0.556313  0  2.324786  0
O  O193  1  0.59203644  0.24580425  0.29976143  1  -1.175014  0  -0.317891  -0.54043  0  2.311236  0
O  O194  1  0.67333389  0.43272042  0.22641851  1  -1.153225  0  -0.328245  -0.555792  0  2.341416  0
O  O195  1  0.72098001  0.21653539  0.16448999  1  -1.153287  0  -0.314982  -0.546495  0  2.341364  0
O  O196  1  0.87661005  0.22323288  0.17035367  1  -1.18334  0  -0.33004  -0.557361  0  2.343647  0
O  O197  1  0.86393007  0.25352467  0.30818863  1  -1.171288  0  -0.317488  -0.550696  0  2.339618  0
O  O198  1  0.93556542  0.16929205  0.22878200  1  -1.165669  0  -0.321984  -0.557519  0  2.324563  0
O  O199  1  0.75407796  0.36256631  0.30842282  1  -1.177878  0  -0.31244  -0.544426  0  2.336296  0
O  O200  1  0.74455754  0.09299974  0.29968072  1  -1.169052  0  -0.321418  -0.550722  0  2.336418  0
O  O201  1  0.85806420  0.09607736  0.30383340  1  -1.185086  0  -0.318602  -0.541857  0  2.315094  0
O  O202  1  0.25012954  0.75047558  0.74982436  1  -1.229788  0  -0.571215  -1.023963  0  2.533095  0
O  O203  1  0.37607579  0.72366551  0.66904028  1  -1.174662  0  -0.316664  -0.538968  0  2.31257  0
O  O204  1  0.36376337  0.75502411  0.80764296  1  -1.171921  0  -0.316561  -0.549048  0  2.341751  0
O  O205  1  0.17270181  0.93414362  0.72782428  1  -1.148585  0  -0.320423  -0.549318  0  2.336423  0
O  O206  1  0.43398453  0.67017473  0.72771783  1  -1.177566  0  -0.323613  -0.553013  0  2.341219  0
O  O207  1  0.22538955  0.87634269  0.66906357  1  -1.168789  0  -0.317663  -0.54105  0  2.312161  0
O  O208  1  0.25315441  0.86326329  0.80863887  1  -1.169781  0  -0.312594  -0.544  0  2.337401  0
O  O209  1  0.09719334  0.85566514  0.80376960  1  -1.165868  0  -0.328644  -0.555553  0  2.341618  0
O  O210  1  0.16418212  0.66486034  0.71914192  1  -1.178801  0  -0.315599  -0.548177  0  2.34159  0
O  O211  1  0.09417957  0.74148503  0.80074565  1  -1.175083  0  -0.321112  -0.555586  0  2.326405  0
O  O212  1  0.21921409  0.71899602  0.66433088  1  -1.16296  0  -0.314807  -0.547723  0  2.338589  0
O  O213  1  0.36026744  0.59744715  0.80462539  1  -1.183432  0  -0.32214  -0.556463  0  2.326482  0
O  O214  1  0.24749882  0.59314340  0.79974514  1  -1.183187  0  -0.329081  -0.555967  0  2.344653  0
O  O215  1  0.49995507  0.99995662  0.00007864  1  -1.227816  0  -0.570873  -1.028433  0  2.525398  0
O  O216  1  0.50602884  0.15565775  0.94949003  1  -1.172529  0  -0.321628  -0.549357  0  2.33744  0
O  O217  1  0.38638831  0.99667477  0.94188250  1  -1.17199  0  -0.314832  -0.547105  0  2.340257  0
O  O218  1  0.65270278  0.89167749  0.94610317  1  -1.157847  0  -0.321199  -0.548421  0  2.336817  0
O  O219  1  0.39179351  0.15334264  0.94629004  1  -1.162589  0  -0.316781  -0.539283  0  2.311638  0
O  O220  1  0.65676698  0.00504365  0.94939858  1  -1.171704  0  -0.316702  -0.538026  0  2.31323  0
O  O221  1  0.49572813  0.88711451  0.94177593  1  -1.176414  0  -0.314009  -0.545192  0  2.342409  0
O  O222  1  0.57905189  0.81564921  0.02234166  1  -1.155919  0  -0.321797  -0.549637  0  2.336654  0
O  O223  1  0.53139246  0.03080864  0.08573661  1  -1.156918  0  -0.314569  -0.546742  0  2.341407  0
O  O224  1  0.52681903  0.87356957  0.08106249  1  -1.171362  0  -0.317872  -0.540449  0  2.311842  0
O  O225  1  0.58591055  0.08556951  0.03099632  1  -1.174266  0  -0.314436  -0.546559  0  2.340185  0
O  O226  1  0.31556241  0.07924636  0.02267209  1  -1.179184  0  -0.317348  -0.538942  0  2.313456  0
O  O227  1  0.37471092  0.02593849  0.08096436  1  -1.178134  0  -0.320593  -0.548331  0  2.338462  0
