# generated using pymatgen
data_TbAgH10C20(N3O4)2
_symmetry_space_group_name_H-M   'P 1'
_cell_length_a   9.14073385
_cell_length_b   11.05180785
_cell_length_c   11.05180197
_cell_angle_alpha   99.99723600
_cell_angle_beta   106.35795186
_cell_angle_gamma   106.35813527
_symmetry_Int_Tables_number   1
_chemical_formula_structural   TbAgH10C20(N3O4)2
_chemical_formula_sum   'Tb2 Ag2 H20 C40 N12 O16'
_cell_volume   988.36495126
_cell_formula_units_Z   2
loop_
 _symmetry_equiv_pos_site_id
 _symmetry_equiv_pos_as_xyz
  1  'x, y, z'
loop_
 _atom_site_type_symbol
 _atom_site_label
 _atom_site_symmetry_multiplicity
 _atom_site_fract_x
 _atom_site_fract_y
 _atom_site_fract_z
 _atom_site_occupancy
 _atom_site_hle17_bader_spin_density
 _atom_site_hle17_ddec_charge
 _atom_site_hle17_ddec_spin_density
 _atom_site_hle17_ddec_sum_bond_order
 _atom_site_hle17_magmom
 _atom_site_hse06_10hf_bader_spin_density
 _atom_site_hse06_10hf_ddec_charge
 _atom_site_hse06_10hf_ddec_spin_density
 _atom_site_hse06_10hf_ddec_sum_bond_order
 _atom_site_hse06_10hf_magmom
 _atom_site_hse06_bader_spin_density
 _atom_site_hse06_ddec_charge
 _atom_site_hse06_ddec_spin_density
 _atom_site_hse06_ddec_sum_bond_order
 _atom_site_hse06_magmom
 _atom_site_pbe_bader_spin_density
 _atom_site_pbe_cm5_charge
 _atom_site_pbe_ddec_charge
 _atom_site_pbe_ddec_spin_density
 _atom_site_pbe_ddec_sum_bond_order
 _atom_site_pbe_magmom
Tb  Tb0  1  0.74999866  0.09292230  0.90707546  1  0  2.277412  0  1.675085  0  0  2.144994  0  2.141435  0  0  2.257484  0  1.974504  0  0  1.52135  2.105271  0  2.176698  0
Tb  Tb1  1  0.24999988  0.90707457  0.09292637  1  0  2.277449  0  1.675087  0  0  2.145041  0  2.141416  0  0  2.257528  0  1.974505  0  0  1.521328  2.105317  0  2.176692  0
Ag  Ag2  1  0.75000169  0.36551453  0.63448689  1  0  0.523441  0  1.433812  0  0  0.372154  0  1.859698  0  0  0.396503  0  1.825357  0  0  0.530065  0.360549  0  1.878631  0
Ag  Ag3  1  0.25000009  0.63448721  0.36551289  1  0  0.523377  0  1.433732  0  0  0.372084  0  1.859613  0  0  0.396436  0  1.82527  0  0  0.530026  0.360481  0  1.878547  0
H  H4  1  0.37616495  0.33685311  0.82175750  1  0  0.113887  0  0.946173  0  0  0.123093  0  1.012641  0  0  0.12694  0  1.009131  0  0  0.110096  0.120148  0  1.015355  0
H  H5  1  0.12383507  0.17824204  0.66314667  1  0  0.113884  0  0.946175  0  0  0.123091  0  1.01264  0  0  0.126938  0  1.009131  0  0  0.110094  0.120145  0  1.015354  0
H  H6  1  0.62383213  0.66314567  0.17823979  1  0  0.113914  0  0.946165  0  0  0.123116  0  1.012635  0  0  0.126963  0  1.009126  0  0  0.110108  0.120173  0  1.015349  0
H  H7  1  0.87616616  0.82175579  0.33685324  1  0  0.113893  0  0.946167  0  0  0.123107  0  1.012627  0  0  0.126975  0  1.009093  0  0  0.110112  0.120162  0  1.015343  0
H  H8  1  0.88257967  0.57093946  0.93949381  1  0  0.13553  0  0.942893  0  0  0.140179  0  1.010944  0  0  0.145062  0  1.006271  0  0  0.115276  0.136871  0  1.013676  0
H  H9  1  0.61742042  0.06050679  0.42905914  1  0  0.135547  0  0.942872  0  0  0.140208  0  1.010909  0  0  0.145093  0  1.006237  0  0  0.115259  0.13691  0  1.013627  0
H  H10  1  0.11742056  0.42906132  0.06050725  1  0  0.135558  0  0.942917  0  0  0.14021  0  1.010962  0  0  0.145092  0  1.006288  0  0  0.115283  0.136906  0  1.013689  0
H  H11  1  0.38257938  0.93949298  0.57093985  1  0  0.135526  0  0.942922  0  0  0.140183  0  1.010966  0  0  0.145066  0  1.006295  0  0  0.115261  0.136878  0  1.013691  0
H  H12  1  0.52204539  0.75361677  0.85272699  1  0  0.13428  0  0.959958  0  0  0.139003  0  1.027009  0  0  0.143435  0  1.02337  0  0  0.12181  0.13551  0  1.030592  0
H  H13  1  0.97795693  0.14727539  0.24638244  1  0  0.134275  0  0.959987  0  0  0.138994  0  1.027048  0  0  0.143427  0  1.023407  0  0  0.12181  0.135501  0  1.030629  0
H  H14  1  0.47795085  0.24638006  0.14726978  1  0  0.13426  0  0.959959  0  0  0.13899  0  1.027014  0  0  0.143424  0  1.023369  0  0  0.121791  0.135495  0  1.030597  0
H  H15  1  0.02204842  0.85272931  0.75362047  1  0  0.134277  0  0.959979  0  0  0.139003  0  1.027036  0  0  0.143436  0  1.023394  0  0  0.121806  0.135509  0  1.030617  0
H  H16  1  0.12182681  0.37231832  0.82997174  1  0  0.127018  0  0.928122  0  0  0.13764  0  0.988192  0  0  0.139778  0  0.986141  0  0  0.152798  0.135894  0  0.989915  0
H  H17  1  0.37817296  0.17002838  0.62768121  1  0  0.126976  0  0.928118  0  0  0.137582  0  0.988221  0  0  0.139718  0  0.986172  0  0  0.15278  0.135835  0  0.989943  0
H  H18  1  0.87817340  0.62768242  0.17002570  1  0  0.127004  0  0.928083  0  0  0.137645  0  0.988133  0  0  0.13978  0  0.986085  0  0  0.152791  0.1359  0  0.989857  0
H  H19  1  0.62182840  0.82997239  0.37231922  1  0  0.127019  0  0.928093  0  0  0.137641  0  0.988174  0  0  0.139777  0  0.986124  0  0  0.152803  0.135896  0  0.989897  0
H  H20  1  0.29318387  0.68165349  0.66911524  1  0  0.105979  0  0.95022  0  0  0.113329  0  1.017938  0  0  0.115766  0  1.0148  0  0  0.14338  0.111545  0  1.020319  0
H  H21  1  0.20681873  0.33088565  0.31834956  1  0  0.105936  0  0.950294  0  0  0.113314  0  1.01799  0  0  0.11575  0  1.014852  0  0  0.14336  0.111534  0  1.020366  0
H  H22  1  0.70681448  0.31834824  0.33088284  1  0  0.105923  0  0.950326  0  0  0.113308  0  1.018024  0  0  0.115746  0  1.014885  0  0  0.143366  0.111526  0  1.020401  0
H  H23  1  0.79318421  0.66911612  0.68165411  1  0  0.105958  0  0.950227  0  0  0.113312  0  1.017942  0  0  0.11575  0  1.014802  0  0  0.143376  0.111527  0  1.020323  0
C  C24  1  0.42988370  0.54305050  0.82809077  1  0  0.171125  0  3.773052  0  0  0.166209  0  4.025257  0  0  0.168873  0  4.047664  0  0  0.095028  0.164133  0  4.011081  0
C  C25  1  0.07011630  0.17191139  0.45695019  1  0  0.171113  0  3.772976  0  0  0.166203  0  4.025195  0  0  0.168872  0  4.047594  0  0  0.095046  0.164126  0  4.011015  0
C  C26  1  0.57011223  0.45694827  0.17190354  1  0  0.171171  0  3.773127  0  0  0.166262  0  4.025333  0  0  0.16893  0  4.047737  0  0  0.095059  0.164187  0  4.011156  0
C  C27  1  0.92988563  0.82809331  0.54305284  1  0  0.17119  0  3.773086  0  0  0.166262  0  4.025309  0  0  0.168927  0  4.047722  0  0  0.095048  0.164186  0  4.01113  0
C  C28  1  0.46912157  0.43233645  0.84296604  1  0  -0.13411  0  3.709142  0  0  -0.172997  0  3.96668  0  0  -0.172691  0  3.986235  0  0  -0.079157  -0.172816  0  3.95405  0
C  C29  1  0.03087930  0.15703406  0.56766380  1  0  -0.134076  0  3.709184  0  0  -0.172982  0  3.966736  0  0  -0.172676  0  3.986289  0  0  -0.079155  -0.1728  0  3.954103  0
C  C30  1  0.53087665  0.56766233  0.15703061  1  0  -0.134176  0  3.709272  0  0  -0.173076  0  3.966822  0  0  -0.172769  0  3.986375  0  0  -0.079201  -0.172897  0  3.954198  0
C  C31  1  0.96912321  0.84296671  0.43233779  1  0  -0.13406  0  3.709225  0  0  -0.172966  0  3.966772  0  0  -0.172678  0  3.986317  0  0  -0.079169  -0.172787  0  3.954145  0
C  C32  1  0.63271874  0.44280893  0.88484455  1  0  -0.067208  0  3.801621  0  0  -0.040191  0  4.03694  0  0  -0.048782  0  4.059703  0  0  -0.025339  -0.035229  0  4.022398  0
C  C33  1  0.86728488  0.11516024  0.55719080  1  0  -0.067295  0  3.801791  0  0  -0.040238  0  4.037052  0  0  -0.04883  0  4.059818  0  0  -0.025305  -0.035279  0  4.022512  0
C  C34  1  0.36728335  0.55719087  0.11515678  1  0  -0.067267  0  3.801731  0  0  -0.040248  0  4.037043  0  0  -0.048843  0  4.059807  0  0  -0.025347  -0.035288  0  4.022508  0
C  C35  1  0.13271563  0.88483856  0.44280820  1  0  -0.067412  0  3.80181  0  0  -0.04036  0  4.037097  0  0  -0.048951  0  4.059863  0  0  -0.025342  -0.035401  0  4.02256  0
C  C36  1  0.75531113  0.56359768  0.91075280  1  0  -0.09368  0  3.692627  0  0  -0.130451  0  3.946572  0  0  -0.12708  0  3.961922  0  0  -0.078436  -0.132055  0  3.935071  0
C  C37  1  0.74469113  0.08924934  0.43639995  1  0  -0.093683  0  3.692781  0  0  -0.130488  0  3.946732  0  0  -0.127115  0  3.962076  0  0  -0.078512  -0.1321  0  3.935221  0
C  C38  1  0.24468724  0.43640407  0.08924709  1  0  -0.093675  0  3.692691  0  0  -0.130461  0  3.946608  0  0  -0.127096  0  3.961987  0  0  -0.078431  -0.132067  0  3.935105  0
C  C39  1  0.25531136  0.91075141  0.56359802  1  0  -0.093574  0  3.692653  0  0  -0.130375  0  3.946591  0  0  -0.127006  0  3.961948  0  0  -0.078429  -0.131981  0  3.935082  0
C  C40  1  0.71409269  0.67512639  0.89997149  1  0  -0.059918  0  3.720204  0  0  -0.033108  0  3.948334  0  0  -0.041977  0  3.969944  0  0  -0.010207  -0.027413  0  3.933546  0
C  C41  1  0.78590860  0.10003462  0.32487400  1  0  -0.060062  0  3.720435  0  0  -0.033222  0  3.948536  0  0  -0.042084  0  3.970152  0  0  -0.010153  -0.027525  0  3.933749  0
C  C42  1  0.28590325  0.32487239  0.10002554  1  0  -0.059953  0  3.720281  0  0  -0.033106  0  3.948355  0  0  -0.041986  0  3.969993  0  0  -0.01017  -0.027408  0  3.933565  0
C  C43  1  0.21409429  0.89997497  0.67512826  1  0  -0.059964  0  3.720275  0  0  -0.033094  0  3.948382  0  0  -0.041972  0  3.970008  0  0  -0.010187  -0.027397  0  3.933589  0
C  C44  1  0.55087669  0.66530405  0.86012428  1  0  -0.097407  0  3.639946  0  0  -0.134316  0  3.89299  0  0  -0.132065  0  3.908266  0  0  -0.063319  -0.137088  0  3.884685  0
C  C45  1  0.94912399  0.13987802  0.33469593  1  0  -0.097305  0  3.639987  0  0  -0.134238  0  3.893044  0  0  -0.131989  0  3.908319  0  0  -0.0633  -0.13701  0  3.884735  0
C  C46  1  0.44911884  0.33469377  0.13987339  1  0  -0.097331  0  3.63995  0  0  -0.134279  0  3.893012  0  0  -0.132024  0  3.908285  0  0  -0.063306  -0.137047  0  3.8847  0
C  C47  1  0.05087751  0.86012571  0.66530683  1  0  -0.097391  0  3.640032  0  0  -0.134333  0  3.893103  0  0  -0.13208  0  3.908378  0  0  -0.06332  -0.137102  0  3.884792  0
C  C48  1  0.12643647  0.44610339  0.77658575  1  0  0.169589  0  3.587509  0  0  0.107323  0  3.843339  0  0  0.120257  0  3.857154  0  0  0.168523  0.100075  0  3.833875  0
C  C49  1  0.37356331  0.22341561  0.55389725  1  0  0.169623  0  3.587533  0  0  0.107368  0  3.843387  0  0  0.120304  0  3.857202  0  0  0.168521  0.100121  0  3.833918  0
C  C50  1  0.87355978  0.55389344  0.22341193  1  0  0.169639  0  3.58759  0  0  0.107353  0  3.843433  0  0  0.120294  0  3.857247  0  0  0.168544  0.100104  0  3.833971  0
C  C51  1  0.62644077  0.77658616  0.44610578  1  0  0.169621  0  3.587525  0  0  0.107339  0  3.843369  0  0  0.120276  0  3.857184  0  0  0.168517  0.100091  0  3.833906  0
C  C52  1  0.21103891  0.60659049  0.69407404  1  0  0.167295  0  3.630905  0  0  0.111748  0  3.903949  0  0  0.12282  0  3.915022  0  0  0.164418  0.103659  0  3.897788  0
C  C53  1  0.28896179  0.30592593  0.39340968  1  0  0.167209  0  3.630936  0  0  0.111636  0  3.903963  0  0  0.12271  0  3.915032  0  0  0.164393  0.103543  0  3.897801  0
C  C54  1  0.78896275  0.39340832  0.30592613  1  0  0.16735  0  3.630676  0  0  0.111749  0  3.903733  0  0  0.122827  0  3.914799  0  0  0.164424  0.103658  0  3.897571  0
C  C55  1  0.71103872  0.69407287  0.60659022  1  0  0.167376  0  3.63076  0  0  0.111818  0  3.903803  0  0  0.122893  0  3.914872  0  0  0.164436  0.10373  0  3.897641  0
C  C56  1  0.67292770  0.32160144  0.89546202  1  0  0.603283  0  4.009797  0  0  0.560737  0  4.301471  0  0  0.593147  0  4.301681  0  0  0.174828  0.537944  0  4.305848  0
C  C57  1  0.82707120  0.10453809  0.67839804  1  0  0.603454  0  4.009699  0  0  0.560911  0  4.301352  0  0  0.593323  0  4.301558  0  0  0.174869  0.538117  0  4.305729  0
C  C58  1  0.32706882  0.67839341  0.10453267  1  0  0.603506  0  4.009624  0  0  0.56099  0  4.30124  0  0  0.593404  0  4.301438  0  0  0.174874  0.538198  0  4.305626  0
C  C59  1  0.17292987  0.89546464  0.32160264  1  0  0.603399  0  4.009651  0  0  0.560861  0  4.301291  0  0  0.593273  0  4.301495  0  0  0.1748  0.538071  0  4.305671  0
C  C60  1  0.84265685  0.80484497  0.91981314  1  0  0.731974  0  3.859863  0  0  0.686638  0  4.145864  0  0  0.722672  0  4.137258  0  0  0.241088  0.661934  0  4.153023  0
C  C61  1  0.65734617  0.08018843  0.19515784  1  0  0.732063  0  3.860039  0  0  0.686752  0  4.145976  0  0  0.722768  0  4.137388  0  0  0.24109  0.662046  0  4.153136  0
C  C62  1  0.15733955  0.19515485  0.08019050  1  0  0.731768  0  3.860114  0  0  0.686481  0  4.146044  0  0  0.722505  0  4.137459  0  0  0.240977  0.661775  0  4.153201  0
C  C63  1  0.34265694  0.91980844  0.80484505  1  0  0.731893  0  3.859988  0  0  0.68651  0  4.146057  0  0  0.722553  0  4.137443  0  0  0.241025  0.661804  0  4.153214  0
N  N64  1  0.26406426  0.53193227  0.77200997  1  0  -0.106275  0  3.546158  0  0  -0.014686  0  3.755193  0  0  -0.030771  0  3.779199  0  0  -0.208847  -0.004629  0  3.739412  0
N  N65  1  0.23593723  0.22798985  0.46806855  1  0  -0.106178  0  3.546045  0  0  -0.014583  0  3.755068  0  0  -0.030671  0  3.779073  0  0  -0.208835  -0.004527  0  3.739286  0
N  N66  1  0.73593396  0.46806650  0.22798577  1  0  -0.106341  0  3.546151  0  0  -0.014725  0  3.755181  0  0  -0.030816  0  3.779187  0  0  -0.208839  -0.004668  0  3.739401  0
N  N67  1  0.76406613  0.77201289  0.53193358  1  0  -0.106378  0  3.54622  0  0  -0.014755  0  3.755243  0  0  -0.030844  0  3.779249  0  0  -0.208824  -0.004697  0  3.739462  0
N  N68  1  0.99930875  0.46911547  0.70582104  1  0  -0.22262  0  3.31483  0  0  -0.139371  0  3.624223  0  0  -0.155776  0  3.638405  0  0  -0.268609  -0.128788  0  3.612824  0
N  N69  1  0.50069027  0.29417884  0.53088451  1  0  -0.222629  0  3.314746  0  0  -0.139394  0  3.62415  0  0  -0.155799  0  3.638331  0  0  -0.268584  -0.12881  0  3.612748  0
N  N70  1  0.00068905  0.53088235  0.29417716  1  0  -0.222609  0  3.314702  0  0  -0.139353  0  3.624095  0  0  -0.155764  0  3.638278  0  0  -0.268579  -0.128771  0  3.612697  0
N  N71  1  0.49931267  0.70582293  0.46911916  1  0  -0.22254  0  3.31452  0  0  -0.139286  0  3.623909  0  0  -0.155695  0  3.638094  0  0  -0.268563  -0.128705  0  3.61251  0
N  N72  1  0.05184043  0.57088834  0.65356843  1  0  -0.232179  0  2.935971  0  0  -0.216977  0  3.21731  0  0  -0.223978  0  3.23248  0  0  -0.227253  -0.212126  0  3.207215  0
N  N73  1  0.44815956  0.34643203  0.42911098  1  0  -0.232106  0  2.935886  0  0  -0.216897  0  3.217231  0  0  -0.223898  0  3.232398  0  0  -0.227232  -0.212048  0  3.207137  0
N  N74  1  0.94816238  0.42911048  0.34643381  1  0  -0.232127  0  2.935722  0  0  -0.216916  0  3.217072  0  0  -0.223918  0  3.232242  0  0  -0.227253  -0.212065  0  3.206976  0
N  N75  1  0.55184096  0.65356679  0.57089074  1  0  -0.232235  0  2.935757  0  0  -0.217031  0  3.217108  0  0  -0.224035  0  3.232279  0  0  -0.227294  -0.21218  0  3.207012  0
O  O76  1  0.55887063  0.21562521  0.87903426  1  0  -0.675986  0  1.954539  0  0  -0.631764  0  2.187621  0  0  -0.66245  0  2.180092  0  0  -0.370116  -0.613564  0  2.191908  0
O  O77  1  0.94112732  0.12096476  0.78437347  1  0  -0.676072  0  1.954545  0  0  -0.631854  0  2.187632  0  0  -0.66254  0  2.180098  0  0  -0.370176  -0.613657  0  2.191922  0
O  O78  1  0.44112719  0.78437261  0.12096485  1  0  -0.676097  0  1.954477  0  0  -0.631881  0  2.187532  0  0  -0.662563  0  2.18  0  0  -0.370171  -0.613677  0  2.191826  0
O  O79  1  0.05886965  0.87903111  0.21562602  1  0  -0.676023  0  1.95451  0  0  -0.631811  0  2.187606  0  0  -0.662497  0  2.180082  0  0  -0.370146  -0.613611  0  2.191897  0
O  O80  1  0.82022747  0.32672569  0.91869365  1  0  -0.700936  0  1.98031  0  0  -0.655877  0  2.226557  0  0  -0.686807  0  2.217208  0  0  -0.381525  -0.639048  0  2.232799  0
O  O81  1  0.67976890  0.08130796  0.67327062  1  0  -0.700958  0  1.980211  0  0  -0.655901  0  2.226447  0  0  -0.686834  0  2.217103  0  0  -0.381498  -0.639071  0  2.232689  0
O  O82  1  0.17977349  0.67327413  0.08131014  1  0  -0.70103  0  1.980248  0  0  -0.655991  0  2.226501  0  0  -0.686917  0  2.217152  0  0  -0.381528  -0.639159  0  2.232748  0
O  O83  1  0.32022690  0.91868787  0.32672316  1  0  -0.700944  0  1.980237  0  0  -0.65591  0  2.226498  0  0  -0.686836  0  2.21715  0  0  -0.381495  -0.639078  0  2.232745  0
O  O84  1  0.98641664  0.80633918  0.93811130  1  0  -0.730254  0  2.063127  0  0  -0.681782  0  2.322763  0  0  -0.715346  0  2.30731  0  0  -0.391827  -0.663335  0  2.330663  0
O  O85  1  0.51358583  0.06189056  0.19366218  1  0  -0.730329  0  2.063219  0  0  -0.681868  0  2.322846  0  0  -0.715437  0  2.307424  0  0  -0.391877  -0.663429  0  2.330767  0
O  O86  1  0.01357462  0.19365669  0.06188777  1  0  -0.730155  0  2.063121  0  0  -0.681712  0  2.322754  0  0  -0.715252  0  2.307258  0  0  -0.391815  -0.663265  0  2.330652  0
O  O87  1  0.48642367  0.93811319  0.80634425  1  0  -0.730194  0  2.063086  0  0  -0.68172  0  2.322767  0  0  -0.715264  0  2.307254  0  0  -0.391831  -0.663272  0  2.330666  0
O  O88  1  0.79632721  0.90147351  0.90902046  1  0  -0.739846  0  2.051898  0  0  -0.692982  0  2.315175  0  0  -0.728059  0  2.29723  0  0  -0.408332  -0.67456  0  2.324338  0
O  O89  1  0.70366908  0.09097930  0.09852551  1  0  -0.739853  0  2.051966  0  0  -0.693008  0  2.315241  0  0  -0.728081  0  2.297306  0  0  -0.408294  -0.674586  0  2.324406  0
O  O90  1  0.20366259  0.09852428  0.09097317  1  0  -0.739719  0  2.052009  0  0  -0.692877  0  2.315251  0  0  -0.727945  0  2.297307  0  0  -0.408236  -0.674456  0  2.324417  0
O  O91  1  0.29633313  0.90902343  0.90147453  1  0  -0.739804  0  2.052015  0  0  -0.692933  0  2.315317  0  0  -0.728011  0  2.297368  0  0  -0.408273  -0.674514  0  2.324484  0
