# generated using pymatgen
data_CuH3C4IN2
_symmetry_space_group_name_H-M   'P 1'
_cell_length_a   7.31019717
_cell_length_b   8.93246898
_cell_length_c   8.82328182
_cell_angle_alpha   89.99639852
_cell_angle_beta   89.99755243
_cell_angle_gamma   92.56467066
_symmetry_Int_Tables_number   1
_chemical_formula_structural   CuH3C4IN2
_chemical_formula_sum   'Cu4 H12 C16 I4 N8'
_cell_volume   575.56652637
_cell_formula_units_Z   4
loop_
 _symmetry_equiv_pos_site_id
 _symmetry_equiv_pos_as_xyz
  1  'x, y, z'
loop_
 _atom_site_type_symbol
 _atom_site_label
 _atom_site_symmetry_multiplicity
 _atom_site_fract_x
 _atom_site_fract_y
 _atom_site_fract_z
 _atom_site_occupancy
 _atom_site_pbe_bader_spin_density
 _atom_site_pbe_cm5_charge
 _atom_site_pbe_ddec_charge
 _atom_site_pbe_ddec_spin_density
 _atom_site_pbe_ddec_sum_bond_order
 _atom_site_pbe_magmom
Cu  Cu0  1  0.08343276  0.90155144  0.42448188  1  0  0.351637  0.211448  0  2.695492  0
Cu  Cu1  1  0.91651923  0.59842701  0.92444397  1  0  0.351741  0.211699  0  2.694932  0
Cu  Cu2  1  0.91654305  0.09844196  0.57550971  1  0  0.351531  0.211428  0  2.695719  0
Cu  Cu3  1  0.08347145  0.40153837  0.07556915  1  0  0.351714  0.211568  0  2.695157  0
H  H4  1  0.95929905  0.12351153  0.20808946  1  0  0.107325  0.057397  0  1.052092  0
H  H5  1  0.04071816  0.37645376  0.70802004  1  0  0.107394  0.057447  0  1.051894  0
H  H6  1  0.04072850  0.87645272  0.79192140  1  0  0.107424  0.057535  0  1.051864  0
H  H7  1  0.95927698  0.62356765  0.29192168  1  0  0.107459  0.057575  0  1.05166  0
H  H8  1  0.39198563  0.23795564  0.92103990  1  0  0.101066  0.083089  0  1.045336  0
H  H9  1  0.60801462  0.26204155  0.42104942  1  0  0.101059  0.083124  0  1.045223  0
H  H10  1  0.60803116  0.76203663  0.07893582  1  0  0.101068  0.083066  0  1.045323  0
H  H11  1  0.39192632  0.73791488  0.57897617  1  0  0.10114  0.083109  0  1.045486  0
H  H12  1  0.38274661  0.83078348  0.18943270  1  0  0.108078  0.091581  0  1.018099  0
H  H13  1  0.61722335  0.66915904  0.68943790  1  0  0.108083  0.091665  0  1.018334  0
H  H14  1  0.61729871  0.16920542  0.81058042  1  0  0.107969  0.091563  0  1.018396  0
H  H15  1  0.38276751  0.33083436  0.31056616  1  0  0.107936  0.091437  0  1.018209  0
C  C16  1  0.09177300  0.09590379  0.16096085  1  0  0.161728  0.224749  0  3.905381  0
C  C17  1  0.90822644  0.40408840  0.66095354  1  0  0.16173  0.224971  0  3.905166  0
C  C18  1  0.90825983  0.90408175  0.83902847  1  0  0.161728  0.224762  0  3.905179  0
C  C19  1  0.09175533  0.59593862  0.33904485  1  0  0.161611  0.224755  0  3.905043  0
C  C20  1  0.33084133  0.15535771  0.99867441  1  0  0.051601  0.078744  0  3.870295  0
C  C21  1  0.66916638  0.34464491  0.49867027  1  0  0.051461  0.078729  0  3.869752  0
C  C22  1  0.66917103  0.84461863  0.00129019  1  0  0.051274  0.078415  0  3.869777  0
C  C23  1  0.33081254  0.65535521  0.50133265  1  0  0.051364  0.078613  0  3.870582  0
C  C24  1  0.41402566  0.02142231  0.03531627  1  0  -0.005617  -0.007857  0  3.994528  0
C  C25  1  0.58596923  0.47858331  0.53532766  1  0  -0.005616  -0.007771  0  3.994389  0
C  C26  1  0.58597565  0.97856211  0.96467872  1  0  -0.005389  -0.007409  0  3.994136  0
C  C27  1  0.41401260  0.52144483  0.46471153  1  0  -0.00565  -0.007851  0  3.994608  0
C  C28  1  0.32539894  0.93294142  0.14701569  1  0  0.053966  0.081664  0  3.873339  0
C  C29  1  0.67457063  0.56705007  0.64701346  1  0  0.054028  0.081697  0  3.873467  0
C  C30  1  0.67461306  0.06706317  0.85300650  1  0  0.054044  0.081676  0  3.873551  0
C  C31  1  0.32539734  0.43297472  0.35299173  1  0  0.054137  0.08186  0  3.872931  0
I  I32  1  0.72640475  0.90731236  0.40642359  1  0  -0.210757  -0.378804  0  1.896852  0
I  I33  1  0.27362316  0.59275924  0.90639892  1  0  -0.210788  -0.379065  0  1.895786  0
I  I34  1  0.27361320  0.09277516  0.59356460  1  0  -0.210781  -0.378939  0  1.896132  0
I  I35  1  0.72641986  0.40726216  0.09363121  1  0  -0.210725  -0.378924  0  1.896491  0
N  N36  1  0.16662088  0.97091579  0.21038250  1  0  -0.35488  -0.22424  0  3.604157  0
N  N37  1  0.83334926  0.52905101  0.71037841  1  0  -0.354965  -0.224457  0  3.604092  0
N  N38  1  0.83336886  0.02905744  0.78962949  1  0  -0.354826  -0.224316  0  3.603981  0
N  N39  1  0.16663849  0.47096032  0.28960412  1  0  -0.354873  -0.224254  0  3.603851  0
N  N40  1  0.17061736  0.19236668  0.06131932  1  0  -0.364143  -0.2178  0  3.617841  0
N  N41  1  0.82940328  0.30763596  0.56128488  1  0  -0.36411  -0.218042  0  3.617317  0
N  N42  1  0.82941970  0.80762110  0.93867340  1  0  -0.364085  -0.217798  0  3.617212  0
N  N43  1  0.17057315  0.69236865  0.43871011  1  0  -0.364093  -0.21784  0  3.617672  0
