# generated using pymatgen
data_CuPH17C20BrNO3
_symmetry_space_group_name_H-M   'P 1'
_cell_length_a   8.34934273
_cell_length_b   9.90242263
_cell_length_c   13.69689365
_cell_angle_alpha   95.84313355
_cell_angle_beta   103.78221910
_cell_angle_gamma   111.41365499
_symmetry_Int_Tables_number   1
_chemical_formula_structural   CuPH17C20BrNO3
_chemical_formula_sum   'Cu2 P2 H34 C40 Br2 N2 O6'
_cell_volume   1001.34640938
_cell_formula_units_Z   2
loop_
 _symmetry_equiv_pos_site_id
 _symmetry_equiv_pos_as_xyz
  1  'x, y, z'
loop_
 _atom_site_type_symbol
 _atom_site_label
 _atom_site_symmetry_multiplicity
 _atom_site_fract_x
 _atom_site_fract_y
 _atom_site_fract_z
 _atom_site_occupancy
 _atom_site_hle17_bader_spin_density
 _atom_site_hle17_ddec_charge
 _atom_site_hle17_ddec_spin_density
 _atom_site_hle17_ddec_sum_bond_order
 _atom_site_hle17_magmom
 _atom_site_hse06_10hf_bader_spin_density
 _atom_site_hse06_10hf_ddec_charge
 _atom_site_hse06_10hf_ddec_spin_density
 _atom_site_hse06_10hf_ddec_sum_bond_order
 _atom_site_hse06_10hf_magmom
 _atom_site_hse06_bader_spin_density
 _atom_site_hse06_ddec_charge
 _atom_site_hse06_ddec_spin_density
 _atom_site_hse06_ddec_sum_bond_order
 _atom_site_hse06_magmom
 _atom_site_pbe_bader_spin_density
 _atom_site_pbe_cm5_charge
 _atom_site_pbe_ddec_charge
 _atom_site_pbe_ddec_spin_density
 _atom_site_pbe_ddec_sum_bond_order
 _atom_site_pbe_magmom
Cu  Cu0  1  0.15720091  0.53443316  0.57847809  1  0  0.139198  0  2.420667  0  0  0.054997  0  2.931611  0  0  0.050261  0  2.88643  0  0  0.393366  0.061022  0  2.959488  0
Cu  Cu1  1  0.84278329  0.46554549  0.42151548  1  0  0.139271  0  2.420745  0  0  0.054981  0  2.931647  0  0  0.050181  0  2.886443  0  0  0.393413  0.061014  0  2.959566  0
P  P2  1  0.22687625  0.61871566  0.74033979  1  0  0.861276  0  4.196693  0  0  0.710814  0  4.790897  0  0  0.766399  0  4.731612  0  0  0.208198  0.672197  0  4.829586  0
P  P3  1  0.77310387  0.38127513  0.25964901  1  0  0.861429  0  4.19699  0  0  0.711014  0  4.791099  0  0  0.766657  0  4.73176  0  0  0.20828  0.672391  0  4.829843  0
H  H4  1  0.37197567  0.67251674  0.44069811  1  0  0.090361  0  0.951899  0  0  0.09684  0  1.016098  0  0  0.100231  0  1.0137  0  0  0.111373  0.094193  0  1.018196  0
H  H5  1  0.62803620  0.32748308  0.55930743  1  0  0.090429  0  0.951762  0  0  0.096898  0  1.015981  0  0  0.100284  0  1.013587  0  0  0.111411  0.094255  0  1.018079  0
H  H6  1  0.63700682  0.65367963  0.39004782  1  0  0.085467  0  0.961814  0  0  0.091  0  1.030483  0  0  0.0932  0  1.030155  0  0  0.113738  0.089283  0  1.031052  0
H  H7  1  0.36300041  0.34631574  0.60995602  1  0  0.085487  0  0.961879  0  0  0.091026  0  1.030527  0  0  0.093233  0  1.030188  0  0  0.113769  0.0893  0  1.031119  0
H  H8  1  0.92130500  0.54851537  0.88547257  1  0  0.107218  0  0.95734  0  0  0.117207  0  1.020339  0  0  0.120396  0  1.018686  0  0  0.104242  0.115072  0  1.02127  0
H  H9  1  0.07870084  0.45148770  0.11452216  1  0  0.107173  0  0.957398  0  0  0.117183  0  1.020383  0  0  0.120375  0  1.018727  0  0  0.104234  0.115048  0  1.021313  0
H  H10  1  0.91997287  0.64721300  0.06115901  1  0  0.092885  0  0.974394  0  0  0.101665  0  1.036879  0  0  0.104193  0  1.036204  0  0  0.096789  0.099935  0  1.037222  0
H  H11  1  0.08002907  0.35278452  0.93883550  1  0  0.092921  0  0.974303  0  0  0.101698  0  1.036799  0  0  0.104226  0  1.036123  0  0  0.096794  0.099958  0  1.037153  0
H  H12  1  0.11836732  0.91020750  0.14795833  1  0  0.088696  0  0.970804  0  0  0.09864  0  1.033988  0  0  0.100345  0  1.035464  0  0  0.096082  0.097404  0  1.033042  0
H  H13  1  0.88163044  0.08978891  0.85203843  1  0  0.088683  0  0.97082  0  0  0.098607  0  1.034023  0  0  0.100322  0  1.035488  0  0  0.096072  0.09737  0  1.033077  0
H  H14  1  0.32311399  0.07068744  0.06114492  1  0  0.09693  0  0.963296  0  0  0.10565  0  1.02391  0  0  0.108847  0  1.022125  0  0  0.099685  0.103414  0  1.025012  0
H  H15  1  0.67688404  0.92931453  0.93885449  1  0  0.096935  0  0.963279  0  0  0.105667  0  1.023884  0  0  0.108863  0  1.022097  0  0  0.099699  0.10343  0  1.024985  0
H  H16  1  0.32450481  0.97011856  0.88763787  1  0  0.109685  0  0.967264  0  0  0.119714  0  1.030274  0  0  0.122403  0  1.029726  0  0  0.103004  0.117816  0  1.030705  0
H  H17  1  0.67549521  0.02989005  0.11236231  1  0  0.109713  0  0.967241  0  0  0.119738  0  1.030248  0  0  0.122433  0  1.029687  0  0  0.103004  0.11784  0  1.03068  0
H  H18  1  0.55380569  0.56793717  0.92310780  1  0  0.119685  0  0.939197  0  0  0.129811  0  0.998214  0  0  0.133241  0  0.996707  0  0  0.108187  0.127244  0  0.999605  0
H  H19  1  0.44619432  0.43206596  0.07690146  1  0  0.119717  0  0.939241  0  0  0.12987  0  0.998226  0  0  0.133302  0  0.996715  0  0  0.108202  0.127302  0  0.999618  0
H  H20  1  0.69868037  0.38557366  0.92171306  1  0  0.090059  0  0.966762  0  0  0.100572  0  1.027404  0  0  0.102774  0  1.02736  0  0  0.099127  0.099033  0  1.027418  0
H  H21  1  0.30131598  0.61442722  0.07829042  1  0  0.090005  0  0.966819  0  0  0.100533  0  1.027457  0  0  0.102735  0  1.027413  0  0  0.099118  0.098991  0  1.027469  0
H  H22  1  0.53040817  0.13584089  0.81086507  1  0  0.085351  0  0.983127  0  0  0.093197  0  1.05128  0  0  0.095382  0  1.051567  0  0  0.094629  0.091427  0  1.0516  0
H  H23  1  0.46958856  0.86416105  0.18913124  1  0  0.085393  0  0.98312  0  0  0.093227  0  1.051282  0  0  0.095412  0  1.051571  0  0  0.094641  0.091457  0  1.051601  0
H  H24  1  0.20840874  0.05863274  0.70631558  1  0  0.090466  0  0.949098  0  0  0.102298  0  1.00758  0  0  0.105061  0  1.006351  0  0  0.10084  0.100215  0  1.008661  0
H  H25  1  0.79158173  0.94137142  0.29368368  1  0  0.090343  0  0.949106  0  0  0.102199  0  1.007587  0  0  0.104959  0  1.006357  0  0  0.100817  0.100118  0  1.008669  0
H  H26  1  0.06266700  0.23817959  0.71245088  1  0  0.114514  0  0.970524  0  0  0.122234  0  1.03561  0  0  0.125593  0  1.034165  0  0  0.097019  0.119866  0  1.03662  0
H  H27  1  0.93732943  0.76182904  0.28755392  1  0  0.114372  0  0.970736  0  0  0.122187  0  1.03571  0  0  0.125546  0  1.034264  0  0  0.097027  0.119817  0  1.036721  0
H  H28  1  0.39654747  0.92669487  0.67592856  1  0  0.10953  0  0.956505  0  0  0.121882  0  1.01462  0  0  0.124683  0  1.013503  0  0  0.100548  0.119716  0  1.015676  0
H  H29  1  0.60345640  0.07330381  0.32407360  1  0  0.109521  0  0.956514  0  0  0.121839  0  1.014666  0  0  0.124637  0  1.013552  0  0  0.100523  0.119686  0  1.015711  0
H  H30  1  0.60895927  0.05081747  0.57930387  1  0  0.08582  0  0.967118  0  0  0.09636  0  1.028516  0  0  0.098919  0  1.027715  0  0  0.092772  0.094527  0  1.029095  0
H  H31  1  0.39104500  0.94918453  0.42069932  1  0  0.085848  0  0.967077  0  0  0.096391  0  1.028473  0  0  0.09895  0  1.027674  0  0  0.092782  0.094556  0  1.02905  0
H  H32  1  0.86868873  0.98602621  0.57901392  1  0  0.090772  0  0.959483  0  0  0.101609  0  1.019388  0  0  0.104618  0  1.018508  0  0  0.091733  0.098808  0  1.021271  0
H  H33  1  0.13131511  0.01397246  0.42098677  1  0  0.090812  0  0.959458  0  0  0.101641  0  1.019374  0  0  0.104654  0  1.018488  0  0  0.091754  0.098839  0  1.021255  0
H  H34  1  0.92272851  0.80115058  0.67901068  1  0  0.096819  0  0.975226  0  0  0.101059  0  1.04519  0  0  0.104415  0  1.043053  0  0  0.094517  0.098679  0  1.0465  0
H  H35  1  0.07728004  0.19885255  0.32099465  1  0  0.096833  0  0.975241  0  0  0.101044  0  1.045215  0  0  0.104426  0  1.043061  0  0  0.094523  0.098664  0  1.046522  0
H  H36  1  0.71821358  0.68649932  0.78157811  1  0  0.10819  0  0.956587  0  0  0.118065  0  1.019627  0  0  0.12065  0  1.01961  0  0  0.102268  0.116114  0  1.019913  0
H  H37  1  0.28179248  0.31350380  0.21842615  1  0  0.108218  0  0.956539  0  0  0.118077  0  1.019592  0  0  0.120677  0  1.019559  0  0  0.102287  0.116126  0  1.01988  0
C  C38  1  0.56982174  0.40450352  0.53315369  1  0  0.082333  0  3.648572  0  0  0.056738  0  3.890271  0  0  0.058913  0  3.905831  0  0  0.053848  0.054839  0  3.881089  0
C  C39  1  0.43019063  0.59549740  0.46685054  1  0  0.082366  0  3.648478  0  0  0.056765  0  3.890161  0  0  0.058936  0  3.905723  0  0  0.053864  0.054873  0  3.88096  0
C  C40  1  0.42470092  0.41513476  0.56070474  1  0  0.07528  0  3.652746  0  0  0.047064  0  3.902231  0  0  0.049828  0  3.918022  0  0  0.049958  0.044497  0  3.893005  0
C  C41  1  0.57530489  0.58486282  0.43929760  1  0  0.07527  0  3.652736  0  0  0.047049  0  3.902241  0  0  0.049815  0  3.918023  0  0  0.049949  0.044486  0  3.893027  0
C  C42  1  0.12169967  0.75478659  0.87828286  1  0  0.303445  0  3.755168  0  0  0.296688  0  4.008756  0  0  0.305634  0  4.026669  0  0  0.082858  0.290554  0  3.996738  0
C  C43  1  0.87829884  0.24521647  0.12171450  1  0  0.303441  0  3.755108  0  0  0.296702  0  4.008688  0  0  0.305647  0  4.026603  0  0  0.082869  0.290567  0  3.996676  0
C  C44  1  0.00797724  0.66236026  0.92562185  1  0  -0.180926  0  3.758043  0  0  -0.204776  0  4.012408  0  0  -0.209168  0  4.032319  0  0  -0.101753  -0.201908  0  3.998686  0
C  C45  1  0.99202322  0.33764171  0.07437643  1  0  -0.180836  0  3.757999  0  0  -0.204717  0  4.012368  0  0  -0.20911  0  4.032281  0  0  -0.101731  -0.201847  0  3.998643  0
C  C46  1  0.00806256  0.71873154  0.02335036  1  0  -0.065449  0  3.781638  0  0  -0.074294  0  4.027176  0  0  -0.075677  0  4.048786  0  0  -0.093791  -0.07312  0  4.011957  0
C  C47  1  0.99194302  0.28126823  0.97664920  1  0  -0.065515  0  3.78168  0  0  -0.074357  0  4.027229  0  0  -0.075739  0  4.04884  0  0  -0.093816  -0.073176  0  4.012008  0
C  C48  1  0.12033164  0.86581298  0.07234264  1  0  -0.082172  0  3.773223  0  0  -0.097305  0  4.018569  0  0  -0.099962  0  4.041175  0  0  -0.095975  -0.095389  0  4.002752  0
C  C49  1  0.87967056  0.13419009  0.92765451  1  0  -0.082153  0  3.773193  0  0  -0.097265  0  4.018543  0  0  -0.099929  0  4.041148  0  0  -0.095962  -0.095345  0  4.002717  0
C  C50  1  0.23458166  0.95605167  0.02377190  1  0  -0.052032  0  3.769579  0  0  -0.061598  0  4.014516  0  0  -0.062797  0  4.035662  0  0  -0.089451  -0.06049  0  3.999655  0
C  C51  1  0.76541685  0.04395139  0.97622547  1  0  -0.052021  0  3.7695  0  0  -0.061596  0  4.014428  0  0  -0.062795  0  4.035578  0  0  -0.089431  -0.060485  0  3.999563  0
C  C52  1  0.23658389  0.90069720  0.92633640  1  0  -0.172067  0  3.73596  0  0  -0.192729  0  3.9801  0  0  -0.197183  0  4.000942  0  0  -0.098704  -0.18975  0  3.965953  0
C  C53  1  0.76341781  0.09930477  0.07366206  1  0  -0.172128  0  3.73597  0  0  -0.192786  0  3.9801  0  0  -0.197239  0  4.00094  0  0  -0.09874  -0.189805  0  3.965955  0
C  C54  1  0.30151531  0.41107937  0.81815452  1  0  0.269934  0  3.79895  0  0  0.266378  0  4.055445  0  0  0.274232  0  4.073545  0  0  0.076712  0.260754  0  4.043279  0
C  C55  1  0.69848547  0.58892816  0.18184860  1  0  0.269919  0  3.798735  0  0  0.266351  0  4.055243  0  0  0.274199  0  4.073347  0  0  0.076619  0.260722  0  4.043089  0
C  C56  1  0.48079125  0.45609063  0.87635469  1  0  -0.174426  0  3.746763  0  0  -0.198089  0  4.000107  0  0  -0.202097  0  4.019998  0  0  -0.099941  -0.195571  0  3.987045  0
C  C57  1  0.51920978  0.54391470  0.12365269  1  0  -0.174499  0  3.746922  0  0  -0.198174  0  4.000238  0  0  -0.202181  0  4.020132  0  0  -0.099916  -0.195653  0  3.987175  0
C  C58  1  0.56089889  0.35469008  0.87410427  1  0  -0.052837  0  3.7722  0  0  -0.062887  0  4.016036  0  0  -0.064094  0  4.037705  0  0  -0.090449  -0.061991  0  4.001495  0
C  C59  1  0.43909673  0.64531189  0.12589773  1  0  -0.052672  0  3.772322  0  0  -0.062749  0  4.016158  0  0  -0.063957  0  4.037829  0  0  -0.0904  -0.061853  0  4.001617  0
C  C60  1  0.46454594  0.21252763  0.81239920  1  0  -0.091349  0  3.787001  0  0  -0.105245  0  4.031071  0  0  -0.107891  0  4.053222  0  0  -0.09904  -0.103753  0  4.016571  0
C  C61  1  0.53544732  0.78747211  0.18760011  1  0  -0.091409  0  3.787073  0  0  -0.105288  0  4.031146  0  0  -0.107934  0  4.053295  0  0  -0.099007  -0.103797  0  4.016643  0
C  C62  1  0.28535383  0.16975245  0.75420684  1  0  -0.057311  0  3.779182  0  0  -0.067502  0  4.024157  0  0  -0.068866  0  4.045257  0  0  -0.092131  -0.066499  0  4.009926  0
C  C63  1  0.71464080  0.83025281  0.24578942  1  0  -0.057165  0  3.779177  0  0  -0.067379  0  4.024186  0  0  -0.068735  0  4.045275  0  0  -0.092168  -0.066378  0  4.009963  0
C  C64  1  0.20199038  0.26874371  0.75741013  1  0  -0.182659  0  3.756834  0  0  -0.202201  0  4.004359  0  0  -0.206247  0  4.023965  0  0  -0.101125  -0.199328  0  3.991091  0
C  C65  1  0.79800864  0.73126271  0.24259340  1  0  -0.182537  0  3.756746  0  0  -0.202177  0  4.004296  0  0  -0.206215  0  4.023894  0  0  -0.101099  -0.199305  0  3.991038  0
C  C66  1  0.54822580  0.80185736  0.73466221  1  0  0.272978  0  3.815253  0  0  0.267123  0  4.074193  0  0  0.275896  0  4.091613  0  0  0.075235  0.260953  0  4.062337  0
C  C67  1  0.45177209  0.19813684  0.26533368  1  0  0.273187  0  3.815026  0  0  0.267289  0  4.074018  0  0  0.276088  0  4.091429  0  0  0.07531  0.261121  0  4.062176  0
C  C68  1  0.51450114  0.90282982  0.67785228  1  0  -0.191063  0  3.778141  0  0  -0.210618  0  4.02708  0  0  -0.215206  0  4.047485  0  0  -0.105835  -0.207441  0  4.013447  0
C  C69  1  0.48549968  0.09716773  0.32214719  1  0  -0.191115  0  3.778015  0  0  -0.210599  0  4.026927  0  0  -0.215188  0  4.047337  0  0  -0.105802  -0.20743  0  4.013292  0
C  C70  1  0.63203929  0.97002618  0.62282522  1  0  -0.056721  0  3.78991  0  0  -0.067318  0  4.036024  0  0  -0.06832  0  4.057766  0  0  -0.095701  -0.066441  0  4.020942  0
C  C71  1  0.36795907  0.02997137  0.37717464  1  0  -0.056753  0  3.789879  0  0  -0.067357  0  4.035993  0  0  -0.068361  0  4.05773  0  0  -0.095728  -0.066476  0  4.020906  0
C  C72  1  0.77900367  0.93406095  0.62313770  1  0  -0.094414  0  3.787362  0  0  -0.109674  0  4.037186  0  0  -0.113218  0  4.059685  0  0  -0.101791  -0.107361  0  4.021862  0
C  C73  1  0.22100131  0.06593995  0.37686624  1  0  -0.094485  0  3.787382  0  0  -0.109742  0  4.03721  0  0  -0.113288  0  4.059714  0  0  -0.101819  -0.107423  0  4.021882  0
C  C74  1  0.81005856  0.83154863  0.67963583  1  0  -0.053897  0  3.766125  0  0  -0.066084  0  4.017756  0  0  -0.067155  0  4.039665  0  0  -0.094532  -0.06498  0  4.002462  0
C  C75  1  0.18994588  0.16845116  0.32036795  1  0  -0.053852  0  3.766174  0  0  -0.066012  0  4.017796  0  0  -0.067112  0  4.039696  0  0  -0.094526  -0.064908  0  4.002504  0
C  C76  1  0.69527537  0.76569042  0.73635868  1  0  -0.167658  0  3.727511  0  0  -0.188262  0  3.974796  0  0  -0.193098  0  3.996239  0  0  -0.100157  -0.18495  0  3.96038  0
C  C77  1  0.30472370  0.23430602  0.26364192  1  0  -0.167774  0  3.727484  0  0  -0.188338  0  3.974775  0  0  -0.193185  0  3.99621  0  0  -0.100185  -0.185025  0  3.960365  0
Br  Br78  1  0.91772006  0.27993982  0.51337596  1  0  -0.459779  0  1.25358  0  0  -0.398489  0  1.59884  0  0  -0.414033  0  1.570687  0  0  -0.267256  -0.386853  0  1.61743  0
Br  Br79  1  0.08227493  0.72004105  0.48661197  1  0  -0.459802  0  1.25354  0  0  -0.39852  0  1.598787  0  0  -0.414067  0  1.57063  0  0  -0.2673  -0.386888  0  1.617374  0
N  N80  1  0.64582523  0.48910549  0.47212447  1  0  -0.198101  0  3.359752  0  0  -0.129844  0  3.639141  0  0  -0.13478  0  3.64783  0  0  -0.344013  -0.127527  0  3.633937  0
N  N81  1  0.35417822  0.51088985  0.52787519  1  0  -0.19816  0  3.359439  0  0  -0.12988  0  3.638801  0  0  -0.134834  0  3.647524  0  0  -0.344044  -0.127556  0  3.633579  0
O  O82  1  0.10992526  0.70166404  0.77646997  1  0  -0.443214  0  2.377588  0  0  -0.35621  0  2.629739  0  0  -0.37777  0  2.619278  0  0  -0.186816  -0.34107  0  2.636051  0
O  O83  1  0.89007610  0.29834235  0.22352804  1  0  -0.443282  0  2.377486  0  0  -0.356303  0  2.62964  0  0  -0.377864  0  2.619168  0  0  -0.186868  -0.341159  0  2.635961  0
O  O84  1  0.21649489  0.50930907  0.82329150  1  0  -0.441879  0  2.322635  0  0  -0.359707  0  2.571719  0  0  -0.381549  0  2.564397  0  0  -0.193217  -0.344143  0  2.576138  0
O  O85  1  0.78350149  0.49069181  0.17671344  1  0  -0.441972  0  2.322873  0  0  -0.359735  0  2.571916  0  0  -0.381581  0  2.564585  0  0  -0.193184  -0.344164  0  2.576343  0
O  O86  1  0.43807777  0.73762614  0.79460506  1  0  -0.448989  0  2.322985  0  0  -0.364808  0  2.574536  0  0  -0.387011  0  2.56684  0  0  -0.195098  -0.349052  0  2.579092  0
O  O87  1  0.56192027  0.26236584  0.20538996  1  0  -0.4491  0  2.323092  0  0  -0.364964  0  2.574705  0  0  -0.387236  0  2.567053  0  0  -0.195188  -0.349205  0  2.579272  0
