# generated using pymatgen
data_TbH8C6O7
_symmetry_space_group_name_H-M   'P 1'
_cell_length_a   7.67464079
_cell_length_b   10.70670994
_cell_length_c   12.67802448
_cell_angle_alpha   95.33240538
_cell_angle_beta   107.60565734
_cell_angle_gamma   111.01709824
_symmetry_Int_Tables_number   1
_chemical_formula_structural   TbH8C6O7
_chemical_formula_sum   'Tb4 H32 C24 O28'
_cell_volume   902.84124925
_cell_formula_units_Z   4
loop_
 _symmetry_equiv_pos_site_id
 _symmetry_equiv_pos_as_xyz
  1  'x, y, z'
loop_
 _atom_site_type_symbol
 _atom_site_label
 _atom_site_symmetry_multiplicity
 _atom_site_fract_x
 _atom_site_fract_y
 _atom_site_fract_z
 _atom_site_occupancy
 _atom_site_hle17_bader_spin_density
 _atom_site_hle17_ddec_charge
 _atom_site_hle17_ddec_spin_density
 _atom_site_hle17_ddec_sum_bond_order
 _atom_site_hle17_magmom
 _atom_site_hse06_10hf_bader_spin_density
 _atom_site_hse06_10hf_ddec_charge
 _atom_site_hse06_10hf_ddec_spin_density
 _atom_site_hse06_10hf_ddec_sum_bond_order
 _atom_site_hse06_10hf_magmom
 _atom_site_hse06_bader_spin_density
 _atom_site_hse06_ddec_charge
 _atom_site_hse06_ddec_spin_density
 _atom_site_hse06_ddec_sum_bond_order
 _atom_site_hse06_magmom
 _atom_site_pbe_bader_spin_density
 _atom_site_pbe_cm5_charge
 _atom_site_pbe_ddec_charge
 _atom_site_pbe_ddec_spin_density
 _atom_site_pbe_ddec_sum_bond_order
 _atom_site_pbe_magmom
Tb  Tb0  1  0.25531406  0.31016505  0.77081719  1  0  2.280854  0  1.625423  0  0  2.130451  0  2.088118  0  0  2.25488  0  1.907843  0  0  1.52295  2.093351  0  2.119694  0
Tb  Tb1  1  0.67440380  0.18990581  0.72925979  1  0  2.280859  0  1.624618  0  0  2.13014  0  2.088007  0  0  2.255088  0  1.906981  0  0  1.522654  2.093171  0  2.119299  0
Tb  Tb2  1  0.74468722  0.68983621  0.22918418  1  0  2.280833  0  1.62544  0  0  2.130412  0  2.088159  0  0  2.254856  0  1.907861  0  0  1.522937  2.093312  0  2.119739  0
Tb  Tb3  1  0.32559529  0.81009442  0.27073981  1  0  2.280835  0  1.624664  0  0  2.130094  0  2.088064  0  0  2.255053  0  1.907028  0  0  1.52262  2.093127  0  2.119358  0
H  H4  1  0.68937431  0.49740752  0.85460343  1  0  0.432832  0  0.863031  0  0  0.40354  0  0.92401  0  0  0.414694  0  0.907878  0  0  0.298858  0.395846  0  0.935222  0
H  H5  1  0.83742478  0.00266276  0.64538664  1  0  0.432283  0  0.863983  0  0  0.403247  0  0.924404  0  0  0.414405  0  0.908298  0  0  0.298879  0.395532  0  0.935645  0
H  H6  1  0.31062748  0.50259271  0.14539749  1  0  0.432872  0  0.862982  0  0  0.403591  0  0.923938  0  0  0.414743  0  0.907807  0  0  0.298884  0.395888  0  0.935155  0
H  H7  1  0.16257639  0.99733644  0.35461410  1  0  0.43225  0  0.864033  0  0  0.403217  0  0.924448  0  0  0.414377  0  0.90834  0  0  0.298857  0.395501  0  0.935691  0
H  H8  1  0.58513591  0.57964925  0.91235615  1  0  0.450608  0  0.842776  0  0  0.419629  0  0.905556  0  0  0.431305  0  0.888575  0  0  0.302053  0.411609  0  0.917328  0
H  H9  1  0.59316902  0.92039975  0.58770618  1  0  0.450917  0  0.84244  0  0  0.419724  0  0.90559  0  0  0.431465  0  0.888519  0  0  0.301847  0.411683  0  0.917366  0
H  H10  1  0.41486588  0.42035098  0.08764478  1  0  0.450668  0  0.842711  0  0  0.41969  0  0.905486  0  0  0.431366  0  0.888505  0  0  0.302072  0.41167  0  0.917256  0
H  H11  1  0.40683215  0.07959946  0.41229456  1  0  0.451014  0  0.842319  0  0  0.419836  0  0.905446  0  0  0.431567  0  0.888387  0  0  0.301894  0.411795  0  0.917222  0
H  H12  1  0.64823711  0.13515978  0.04148763  1  0  0.122969  0  0.918304  0  0  0.13772  0  0.975037  0  0  0.140508  0  0.973101  0  0  0.11127  0.135797  0  0.976138  0
H  H13  1  0.97185465  0.36481454  0.45854554  1  0  0.122731  0  0.918377  0  0  0.137645  0  0.974833  0  0  0.140397  0  0.972946  0  0  0.111467  0.135794  0  0.975908  0
H  H14  1  0.35176425  0.86483839  0.95851370  1  0  0.122967  0  0.918267  0  0  0.137713  0  0.975005  0  0  0.140515  0  0.973051  0  0  0.111271  0.13579  0  0.976106  0
H  H15  1  0.02814584  0.63518671  0.54145505  1  0  0.122731  0  0.918365  0  0  0.137649  0  0.974828  0  0  0.140402  0  0.97294  0  0  0.111458  0.135799  0  0.975903  0
H  H16  1  0.62871818  0.25732784  0.13846154  1  0  0.117538  0  0.913169  0  0  0.133168  0  0.965934  0  0  0.135908  0  0.963994  0  0  0.110441  0.131273  0  0.967065  0
H  H17  1  0.73310952  0.24264610  0.36163081  1  0  0.117175  0  0.913282  0  0  0.132887  0  0.965894  0  0  0.135605  0  0.963978  0  0  0.110526  0.131011  0  0.96703  0
H  H18  1  0.37128127  0.74267033  0.86153925  1  0  0.117521  0  0.913219  0  0  0.133151  0  0.965984  0  0  0.135892  0  0.964046  0  0  0.110428  0.131256  0  0.967115  0
H  H19  1  0.26688975  0.75735310  0.63836939  1  0  0.117172  0  0.913282  0  0  0.13289  0  0.965896  0  0  0.135609  0  0.96398  0  0  0.110535  0.131015  0  0.967031  0
H  H20  1  0.92950625  0.33322135  0.01442048  1  0  0.112966  0  0.940553  0  0  0.125903  0  1.003107  0  0  0.128307  0  1.002928  0  0  0.111795  0.124015  0  1.003663  0
H  H21  1  0.08194482  0.16673392  0.48548598  1  0  0.113392  0  0.940944  0  0  0.126335  0  1.003482  0  0  0.128605  0  1.003422  0  0  0.111708  0.12452  0  1.003957  0
H  H22  1  0.07049233  0.66677990  0.98557957  1  0  0.112983  0  0.940497  0  0  0.125886  0  1.003092  0  0  0.128289  0  1.002916  0  0  0.11179  0.123999  0  1.003648  0
H  H23  1  0.91805618  0.83326631  0.51451416  1  0  0.113413  0  0.940925  0  0  0.126354  0  1.003452  0  0  0.128625  0  1.003394  0  0  0.111715  0.124539  0  1.003927  0
H  H24  1  0.98829164  0.29665981  0.14959205  1  0  0.104978  0  0.911358  0  0  0.12438  0  0.962571  0  0  0.126563  0  0.961537  0  0  0.106483  0.122898  0  0.963127  0
H  H25  1  0.04194508  0.20322720  0.35027535  1  0  0.104901  0  0.912248  0  0  0.124616  0  0.962993  0  0  0.126775  0  0.961959  0  0  0.106798  0.123111  0  0.963598  0
H  H26  1  0.01170895  0.70334350  0.85040917  1  0  0.104954  0  0.91142  0  0  0.124388  0  0.962592  0  0  0.12657  0  0.961562  0  0  0.106486  0.122906  0  0.963149  0
H  H27  1  0.95805591  0.79677303  0.64972479  1  0  0.10491  0  0.912244  0  0  0.124621  0  0.962985  0  0  0.126781  0  0.96195  0  0  0.106799  0.123115  0  0.963589  0
H  H28  1  0.52220120  0.36418779  0.47090347  1  0  0.124226  0  0.924766  0  0  0.140338  0  0.977428  0  0  0.143356  0  0.975691  0  0  0.112308  0.138405  0  0.978244  0
H  H29  1  0.18710551  0.13580336  0.02898431  1  0  0.125026  0  0.923792  0  0  0.14061  0  0.976886  0  0  0.143585  0  0.975216  0  0  0.112361  0.138577  0  0.977834  0
H  H30  1  0.47779908  0.63580935  0.52909584  1  0  0.124284  0  0.924779  0  0  0.140374  0  0.977476  0  0  0.143392  0  0.975738  0  0  0.112311  0.138441  0  0.97829  0
H  H31  1  0.81289563  0.86419790  0.97101420  1  0  0.125016  0  0.923797  0  0  0.140578  0  0.976918  0  0  0.143567  0  0.975231  0  0  0.112349  0.138546  0  0.977864  0
H  H32  1  0.69530535  0.50149689  0.58380759  1  0  0.112246  0  0.902146  0  0  0.130182  0  0.954394  0  0  0.132098  0  0.953931  0  0  0.112358  0.12878  0  0.954803  0
H  H33  1  0.10995343  0.99839907  0.91614187  1  0  0.112578  0  0.902541  0  0  0.130075  0  0.955225  0  0  0.132057  0  0.954654  0  0  0.112206  0.128671  0  0.955566  0
H  H34  1  0.30469313  0.49850231  0.41619182  1  0  0.112224  0  0.902154  0  0  0.130174  0  0.954396  0  0  0.132089  0  0.953933  0  0  0.11235  0.128773  0  0.954802  0
H  H35  1  0.89004599  0.00160116  0.08385669  1  0  0.112571  0  0.902475  0  0  0.130077  0  0.955156  0  0  0.13206  0  0.954584  0  0  0.112216  0.128672  0  0.955499  0
C  C36  1  0.52849417  0.26710598  0.96445005  1  0  0.754411  0  3.762376  0  0  0.709484  0  4.058314  0  0  0.743815  0  4.055174  0  0  0.229142  0.686066  0  4.064622  0
C  C37  1  0.79703026  0.23292567  0.53564008  1  0  0.755321  0  3.76288  0  0  0.710435  0  4.05878  0  0  0.744747  0  4.055724  0  0  0.229702  0.686998  0  4.065085  0
C  C38  1  0.47150510  0.73289322  0.03555015  1  0  0.754391  0  3.762374  0  0  0.709463  0  4.058316  0  0  0.743795  0  4.055181  0  0  0.229136  0.686045  0  4.064627  0
C  C39  1  0.20296962  0.76707456  0.46436031  1  0  0.755323  0  3.762872  0  0  0.710441  0  4.058771  0  0  0.744753  0  4.055719  0  0  0.229703  0.687006  0  4.065075  0
C  C40  1  0.67032626  0.24273510  0.06425957  1  0  -0.236723  0  3.639696  0  0  -0.278451  0  3.892101  0  0  -0.282372  0  3.896555  0  0  -0.156171  -0.275149  0  3.887506  0
C  C41  1  0.86352697  0.25724115  0.43580156  1  0  -0.235886  0  3.639935  0  0  -0.277762  0  3.892283  0  0  -0.281634  0  3.896617  0  0  -0.156397  -0.27458  0  3.887867  0
C  C42  1  0.32967319  0.75726307  0.93574123  1  0  -0.236694  0  3.639751  0  0  -0.278419  0  3.892156  0  0  -0.282347  0  3.896607  0  0  -0.156138  -0.275114  0  3.887559  0
C  C43  1  0.13647403  0.74275908  0.56419858  1  0  -0.23586  0  3.639897  0  0  -0.277768  0  3.89227  0  0  -0.28164  0  3.896605  0  0  -0.156383  -0.274586  0  3.887852  0
C  C44  1  0.89132528  0.33514288  0.09128445  1  0  -0.238492  0  3.636424  0  0  -0.279365  0  3.889124  0  0  -0.284122  0  3.894846  0  0  -0.154037  -0.275689  0  3.883692  0
C  C45  1  0.96492804  0.16481967  0.40868240  1  0  -0.238747  0  3.63742  0  0  -0.28025  0  3.890082  0  0  -0.284842  0  3.895716  0  0  -0.154084  -0.27661  0  3.884703  0
C  C46  1  0.10867471  0.66485941  0.90871658  1  0  -0.238482  0  3.636432  0  0  -0.279378  0  3.889189  0  0  -0.284138  0  3.894918  0  0  -0.154049  -0.275704  0  3.883762  0
C  C47  1  0.03507374  0.83518056  0.59131852  1  0  -0.238803  0  3.637393  0  0  -0.28029  0  3.890037  0  0  -0.284884  0  3.895674  0  0  -0.154094  -0.276645  0  3.884659  0
C  C48  1  0.95171090  0.48466286  0.14515944  1  0  0.760754  0  3.787643  0  0  0.717036  0  4.086396  0  0  0.751763  0  4.079965  0  0  0.240073  0.693922  0  4.092357  0
C  C49  1  0.82174985  0.01526801  0.35484097  1  0  0.759005  0  3.791162  0  0  0.716257  0  4.088607  0  0  0.750988  0  4.082151  0  0  0.239692  0.693137  0  4.094556  0
C  C50  1  0.04828247  0.51533737  0.85483856  1  0  0.760741  0  3.787723  0  0  0.717016  0  4.086473  0  0  0.751743  0  4.08004  0  0  0.240018  0.693895  0  4.092445  0
C  C51  1  0.17825054  0.98473119  0.64515898  1  0  0.75906  0  3.791079  0  0  0.716349  0  4.088452  0  0  0.75108  0  4.081992  0  0  0.239714  0.693217  0  4.094415  0
C  C52  1  0.42292892  0.39468581  0.60606471  1  0  0.735407  0  3.817825  0  0  0.691505  0  4.115519  0  0  0.725009  0  4.113859  0  0  0.210265  0.66857  0  4.121185  0
C  C53  1  0.92209813  0.10520156  0.89389866  1  0  0.733389  0  3.818335  0  0  0.690008  0  4.115236  0  0  0.723495  0  4.1137  0  0  0.209821  0.667079  0  4.120801  0
C  C54  1  0.57707179  0.60531339  0.39393420  1  0  0.735401  0  3.817843  0  0  0.691482  0  4.115572  0  0  0.724986  0  4.113917  0  0  0.210277  0.668548  0  4.121236  0
C  C55  1  0.07790175  0.89479866  0.10610173  1  0  0.733466  0  3.818163  0  0  0.690012  0  4.115173  0  0  0.723498  0  4.113642  0  0  0.209815  0.667084  0  4.120739  0
C  C56  1  0.53499101  0.45095780  0.53059260  1  0  -0.236759  0  3.685683  0  0  -0.276821  0  3.936642  0  0  -0.281349  0  3.942684  0  0  -0.158046  -0.273361  0  3.931295  0
C  C57  1  0.05341572  0.04897297  0.96934665  1  0  -0.237653  0  3.686853  0  0  -0.276939  0  3.936707  0  0  -0.281482  0  3.942866  0  0  -0.158182  -0.273305  0  3.931045  0
C  C58  1  0.46500787  0.54903832  0.46940573  1  0  -0.236857  0  3.685767  0  0  -0.276947  0  3.936779  0  0  -0.281473  0  3.942819  0  0  -0.158135  -0.273484  0  3.931431  0
C  C59  1  0.94658481  0.95102725  0.03065166  1  0  -0.237564  0  3.686683  0  0  -0.276837  0  3.936583  0  0  -0.281386  0  3.942734  0  0  -0.158139  -0.273201  0  3.930917  0
O  O60  1  0.40604136  0.31665031  0.97638245  1  0  -0.688735  0  2.045895  0  0  -0.63345  0  2.281907  0  0  -0.665939  0  2.271289  0  0  -0.340867  -0.615774  0  2.288091  0
O  O61  1  0.61304573  0.18331207  0.52363974  1  0  -0.689342  0  2.045083  0  0  -0.633908  0  2.281106  0  0  -0.666519  0  2.27062  0  0  -0.341571  -0.616162  0  2.287078  0
O  O62  1  0.59395852  0.68334992  0.02361794  1  0  -0.688711  0  2.045901  0  0  -0.633421  0  2.281902  0  0  -0.665916  0  2.271291  0  0  -0.340857  -0.615745  0  2.288088  0
O  O63  1  0.38695415  0.81668816  0.47636065  1  0  -0.689315  0  2.045076  0  0  -0.633871  0  2.281095  0  0  -0.666486  0  2.270609  0  0  -0.34156  -0.616127  0  2.28707  0
O  O64  1  0.52505714  0.23428420  0.86339972  1  0  -0.827763  0  2.138112  0  0  -0.769199  0  2.397388  0  0  -0.813638  0  2.387199  0  0  -0.430528  -0.750088  0  2.402649  0
O  O65  1  0.92738326  0.26581271  0.63671285  1  0  -0.82841  0  2.138764  0  0  -0.769837  0  2.397917  0  0  -0.814222  0  2.387661  0  0  -0.43104  -0.750764  0  2.403265  0
O  O66  1  0.47494465  0.76571603  0.13660120  1  0  -0.827778  0  2.138138  0  0  -0.769189  0  2.397366  0  0  -0.813632  0  2.387176  0  0  -0.430542  -0.750078  0  2.402633  0
O  O67  1  0.07261695  0.73418752  0.36328650  1  0  -0.828418  0  2.13876  0  0  -0.769829  0  2.397892  0  0  -0.81422  0  2.387636  0  0  -0.431045  -0.75076  0  2.403251  0
O  O68  1  0.13503562  0.56770803  0.17190973  1  0  -0.746917  0  2.024574  0  0  -0.693078  0  2.272777  0  0  -0.728849  0  2.260303  0  0  -0.366432  -0.674557  0  2.278981  0
O  O69  1  0.89520074  0.93213306  0.32820277  1  0  -0.746194  0  2.0255  0  0  -0.6927  0  2.27279  0  0  -0.728335  0  2.260288  0  0  -0.366009  -0.674179  0  2.279017  0
O  O70  1  0.86496254  0.43229220  0.82808622  1  0  -0.746941  0  2.024739  0  0  -0.693067  0  2.272909  0  0  -0.728835  0  2.260436  0  0  -0.366424  -0.674545  0  2.279119  0
O  O71  1  0.10480025  0.06786717  0.67179737  1  0  -0.746281  0  2.025393  0  0  -0.692798  0  2.272668  0  0  -0.728432  0  2.260167  0  0  -0.366052  -0.674274  0  2.2789  0
O  O72  1  0.81692996  0.51748507  0.15977201  1  0  -0.704908  0  2.047629  0  0  -0.649559  0  2.301406  0  0  -0.685688  0  2.287771  0  0  -0.396174  -0.631897  0  2.307814  0
O  O73  1  0.63951177  0.98254210  0.34013795  1  0  -0.703965  0  2.049817  0  0  -0.649223  0  2.303419  0  0  -0.685478  0  2.289818  0  0  -0.396165  -0.631444  0  2.309709  0
O  O74  1  0.18306690  0.48251515  0.84022810  1  0  -0.704916  0  2.047632  0  0  -0.649555  0  2.301387  0  0  -0.68568  0  2.28775  0  0  -0.396148  -0.631885  0  2.307788  0
O  O75  1  0.36048922  0.01745813  0.65986219  1  0  -0.703951  0  2.049861  0  0  -0.649236  0  2.303463  0  0  -0.685487  0  2.289857  0  0  -0.396154  -0.631454  0  2.309756  0
O  O76  1  0.46268498  0.30497125  0.65946045  1  0  -0.852938  0  2.167248  0  0  -0.799447  0  2.43914  0  0  -0.843752  0  2.428253  0  0  -0.463177  -0.780619  0  2.444943  0
O  O77  1  0.99823469  0.19504004  0.84056090  1  0  -0.851996  0  2.168096  0  0  -0.798857  0  2.439985  0  0  -0.843182  0  2.429223  0  0  -0.463009  -0.780002  0  2.445699  0
O  O78  1  0.53731350  0.69502795  0.34053896  1  0  -0.852945  0  2.167223  0  0  -0.799441  0  2.439115  0  0  -0.843741  0  2.42821  0  0  -0.46318  -0.780618  0  2.444931  0
O  O79  1  0.00176390  0.80496122  0.15943915  1  0  -0.852035  0  2.168087  0  0  -0.798852  0  2.439975  0  0  -0.843176  0  2.429203  0  0  -0.463008  -0.779997  0  2.445689  0
O  O80  1  0.29091894  0.43228225  0.61842908  1  0  -0.656347  0  1.950513  0  0  -0.612173  0  2.185028  0  0  -0.643309  0  2.175874  0  0  -0.356058  -0.595622  0  2.190034  0
O  O81  1  0.74013678  0.06758768  0.88159040  1  0  -0.655342  0  1.947923  0  0  -0.611228  0  2.182209  0  0  -0.642422  0  2.173123  0  0  -0.355422  -0.594619  0  2.187091  0
O  O82  1  0.70908285  0.56771798  0.38157185  1  0  -0.656332  0  1.950546  0  0  -0.61214  0  2.185069  0  0  -0.643279  0  2.175916  0  0  -0.356036  -0.595587  0  2.190074  0
O  O83  1  0.25986292  0.93241358  0.11840939  1  0  -0.655399  0  1.947899  0  0  -0.611237  0  2.182192  0  0  -0.642437  0  2.173113  0  0  -0.355416  -0.594628  0  2.187075  0
O  O84  1  0.56589102  0.51175254  0.84606636  1  0  -0.9202  0  1.87605  0  0  -0.871613  0  2.062023  0  0  -0.899174  0  2.024306  0  0  -0.646342  -0.857786  0  2.084064  0
O  O85  1  0.70815167  0.98823991  0.65400151  1  0  -0.919999  0  1.87655  0  0  -0.871416  0  2.062869  0  0  -0.899084  0  2.024937  0  0  -0.645903  -0.857577  0  2.084945  0
O  O86  1  0.43410750  0.48824461  0.15393528  1  0  -0.920298  0  1.875938  0  0  -0.871723  0  2.061937  0  0  -0.899285  0  2.024218  0  0  -0.646382  -0.857882  0  2.084005  0
O  O87  1  0.29184778  0.01175826  0.34599929  1  0  -0.920069  0  1.876533  0  0  -0.871501  0  2.062827  0  0  -0.899164  0  2.024909  0  0  -0.645933  -0.857661  0  2.084908  0
