# generated using pymatgen
data_BaH6(C2O5)2
_symmetry_space_group_name_H-M   'P 1'
_cell_length_a   5.39965984
_cell_length_b   7.69873211
_cell_length_c   11.82839558
_cell_angle_alpha   76.47560064
_cell_angle_beta   76.82213524
_cell_angle_gamma   69.48104528
_symmetry_Int_Tables_number   1
_chemical_formula_structural   BaH6(C2O5)2
_chemical_formula_sum   'Ba2 H12 C8 O20'
_cell_volume   441.95372463
_cell_formula_units_Z   2
loop_
 _symmetry_equiv_pos_site_id
 _symmetry_equiv_pos_as_xyz
  1  'x, y, z'
loop_
 _atom_site_type_symbol
 _atom_site_label
 _atom_site_symmetry_multiplicity
 _atom_site_fract_x
 _atom_site_fract_y
 _atom_site_fract_z
 _atom_site_occupancy
 _atom_site_hle17_bader_spin_density
 _atom_site_hle17_ddec_charge
 _atom_site_hle17_ddec_spin_density
 _atom_site_hle17_ddec_sum_bond_order
 _atom_site_hle17_magmom
 _atom_site_hse06_10hf_bader_spin_density
 _atom_site_hse06_10hf_ddec_charge
 _atom_site_hse06_10hf_ddec_spin_density
 _atom_site_hse06_10hf_ddec_sum_bond_order
 _atom_site_hse06_10hf_magmom
 _atom_site_hse06_bader_spin_density
 _atom_site_hse06_ddec_charge
 _atom_site_hse06_ddec_spin_density
 _atom_site_hse06_ddec_sum_bond_order
 _atom_site_hse06_magmom
 _atom_site_pbe_bader_spin_density
 _atom_site_pbe_cm5_charge
 _atom_site_pbe_ddec_charge
 _atom_site_pbe_ddec_spin_density
 _atom_site_pbe_ddec_sum_bond_order
 _atom_site_pbe_magmom
Ba  Ba0  1  0.15717948  0.25011561  0.74999568  1  0  1.666001  0  1.058073  0  0  1.503432  0  1.455062  0  0  1.544199  0  1.411227  0  0  0.895247  1.473422  0  1.486207  0
Ba  Ba1  1  0.84280569  0.74988026  0.25000443  1  0  1.666052  0  1.057964  0  0  1.503412  0  1.455054  0  0  1.544172  0  1.411217  0  0  0.895269  1.473429  0  1.486208  0
H  H2  1  0.81015210  0.17557891  0.03804824  1  0  0.401532  0  0.897407  0  0  0.368991  0  0.975665  0  0  0.383306  0  0.961687  0  0  0.310481  0.359003  0  0.985282  0
H  H3  1  0.02367110  0.32427126  0.46197858  1  0  0.402196  0  0.897224  0  0  0.368944  0  0.976494  0  0  0.383274  0  0.962501  0  0  0.310413  0.358929  0  0.986182  0
H  H4  1  0.18986645  0.82441839  0.96194821  1  0  0.401511  0  0.897499  0  0  0.369004  0  0.975707  0  0  0.38331  0  0.961736  0  0  0.310479  0.359021  0  0.985323  0
H  H5  1  0.97630859  0.67573299  0.53802803  1  0  0.402057  0  0.897318  0  0  0.36886  0  0.976513  0  0  0.38319  0  0.962525  0  0  0.310416  0.358841  0  0.986204  0
H  H6  1  0.54056810  0.56827553  0.81323597  1  0  0.421066  0  0.880115  0  0  0.39346  0  0.93868  0  0  0.403914  0  0.923253  0  0  0.298287  0.386068  0  0.949579  0
H  H7  1  0.92200588  0.93200774  0.68668510  1  0  0.419743  0  0.881744  0  0  0.392262  0  0.940093  0  0  0.402668  0  0.92476  0  0  0.298019  0.384887  0  0.950961  0
H  H8  1  0.45943240  0.43172597  0.18676285  1  0  0.421051  0  0.880132  0  0  0.393441  0  0.938705  0  0  0.403894  0  0.923279  0  0  0.298278  0.386051  0  0.949605  0
H  H9  1  0.07800267  0.06798537  0.31330847  1  0  0.41979  0  0.881681  0  0  0.392314  0  0.940021  0  0  0.402721  0  0.924688  0  0  0.298054  0.384936  0  0.950896  0
H  H10  1  0.68546631  0.71295975  0.74113149  1  0  0.414227  0  0.874812  0  0  0.388369  0  0.937255  0  0  0.398052  0  0.922912  0  0  0.300629  0.381429  0  0.947551  0
H  H11  1  0.13935045  0.78731599  0.75887266  1  0  0.414788  0  0.874225  0  0  0.388581  0  0.937081  0  0  0.398329  0  0.922653  0  0  0.300713  0.381621  0  0.947387  0
H  H12  1  0.31453165  0.28704173  0.25886987  1  0  0.414229  0  0.87483  0  0  0.388356  0  0.937284  0  0  0.398041  0  0.922938  0  0  0.30061  0.38142  0  0.947576  0
H  H13  1  0.86065873  0.21267569  0.24112295  1  0  0.414818  0  0.874231  0  0  0.388606  0  0.937051  0  0  0.398353  0  0.922625  0  0  0.300725  0.381649  0  0.947354  0
C  C14  1  0.07365341  0.57045880  0.96310568  1  0  0.583464  0  3.842503  0  0  0.533862  0  4.140137  0  0  0.564451  0  4.130031  0  0  0.240816  0.51299  0  4.146649  0
C  C15  1  0.60725358  0.92963963  0.53690872  1  0  0.584508  0  3.8424  0  0  0.534244  0  4.141267  0  0  0.5649  0  4.130965  0  0  0.241013  0.513353  0  4.147836  0
C  C16  1  0.92635220  0.42954271  0.03689186  1  0  0.583438  0  3.842659  0  0  0.533802  0  4.140322  0  0  0.564403  0  4.1302  0  0  0.240792  0.51291  0  4.146857  0
C  C17  1  0.39273162  0.07036185  0.46309206  1  0  0.584471  0  3.842655  0  0  0.534219  0  4.141527  0  0  0.564874  0  4.131228  0  0  0.240955  0.513333  0  4.148093  0
C  C18  1  0.58650480  0.06648240  0.98090594  1  0  0.566422  0  3.826254  0  0  0.518227  0  4.126224  0  0  0.548209  0  4.116035  0  0  0.249557  0.4977  0  4.132916  0
C  C19  1  0.63384633  0.43354638  0.51910896  1  0  0.565753  0  3.820609  0  0  0.516537  0  4.122162  0  0  0.546439  0  4.112133  0  0  0.249174  0.496073  0  4.128742  0
C  C20  1  0.41351055  0.93351070  0.01908844  1  0  0.566804  0  3.825907  0  0  0.518413  0  4.126072  0  0  0.548397  0  4.115874  0  0  0.249596  0.497882  0  4.132774  0
C  C21  1  0.36613086  0.56646909  0.48089965  1  0  0.565681  0  3.820915  0  0  0.516763  0  4.122098  0  0  0.546657  0  4.112069  0  0  0.249293  0.496284  0  4.128697  0
O  O22  1  0.62042425  0.14757067  0.87817766  1  0  -0.553973  0  2.004847  0  0  -0.511102  0  2.238428  0  0  -0.531426  0  2.231492  0  0  -0.274889  -0.497059  0  2.243035  0
O  O23  1  0.64614465  0.35257870  0.62186626  1  0  -0.552842  0  2.001941  0  0  -0.50935  0  2.235298  0  0  -0.52964  0  2.228429  0  0  -0.274594  -0.495332  0  2.239853  0
O  O24  1  0.37959837  0.85243087  0.12181623  1  0  -0.554158  0  2.004709  0  0  -0.51121  0  2.23835  0  0  -0.531533  0  2.231408  0  0  -0.275004  -0.49717  0  2.242969  0
O  O25  1  0.35385053  0.64742131  0.37814242  1  0  -0.552838  0  2.002356  0  0  -0.509412  0  2.235562  0  0  -0.529699  0  2.228695  0  0  -0.274623  -0.495395  0  2.240136  0
O  O26  1  0.21918138  0.53581920  0.86675625  1  0  -0.607707  0  2.055605  0  0  -0.548569  0  2.275197  0  0  -0.572104  0  2.266231  0  0  -0.294057  -0.532142  0  2.281102  0
O  O27  1  0.62166057  0.96438004  0.63326198  1  0  -0.607816  0  2.055023  0  0  -0.548371  0  2.274575  0  0  -0.571859  0  2.265467  0  0  -0.293938  -0.531959  0  2.280535  0
O  O28  1  0.78082698  0.46417809  0.13324088  1  0  -0.607656  0  2.055663  0  0  -0.548492  0  2.275249  0  0  -0.572049  0  2.266317  0  0  -0.294018  -0.532062  0  2.281161  0
O  O29  1  0.37833615  0.03562988  0.36673787  1  0  -0.607763  0  2.0552  0  0  -0.548364  0  2.274817  0  0  -0.571839  0  2.265679  0  0  -0.293888  -0.531955  0  2.280778  0
O  O30  1  0.03001821  0.71606206  0.00858522  1  0  -0.632323  0  2.166444  0  0  -0.572194  0  2.40367  0  0  -0.600007  0  2.396405  0  0  -0.33125  -0.552796  0  2.408157  0
O  O31  1  0.75477107  0.78401731  0.49146696  1  0  -0.633322  0  2.1649  0  0  -0.572582  0  2.402486  0  0  -0.600443  0  2.395101  0  0  -0.331273  -0.553163  0  2.407056  0
O  O32  1  0.96999420  0.28393944  0.99141313  1  0  -0.632314  0  2.166512  0  0  -0.572186  0  2.403787  0  0  -0.600006  0  2.396516  0  0  -0.331226  -0.552774  0  2.408278  0
O  O33  1  0.24520560  0.21597853  0.50853593  1  0  -0.633407  0  2.164977  0  0  -0.57263  0  2.40258  0  0  -0.600493  0  2.395193  0  0  -0.33129  -0.553198  0  2.407116  0
O  O34  1  0.71907056  0.58454561  0.78554949  1  0  -0.861236  0  1.805657  0  0  -0.813636  0  1.979174  0  0  -0.832454  0  1.950232  0  0  -0.621965  -0.800132  0  1.999459  0
O  O35  1  0.08908415  0.91571420  0.71439389  1  0  -0.860272  0  1.806334  0  0  -0.81249  0  1.979842  0  0  -0.83137  0  1.950847  0  0  -0.621683  -0.798949  0  2.000152  0
O  O36  1  0.28092825  0.41545586  0.21445292  1  0  -0.861217  0  1.805661  0  0  -0.813602  0  1.97917  0  0  -0.832421  0  1.950228  0  0  -0.621928  -0.800092  0  1.999451  0
O  O37  1  0.91092270  0.08427890  0.28560137  1  0  -0.86037  0  1.806327  0  0  -0.812542  0  1.979773  0  0  -0.831425  0  1.950774  0  0  -0.621706  -0.798993  0  2.000083  0
O  O38  1  0.68615043  0.08057863  0.06839609  1  0  -0.564677  0  2.172134  0  0  -0.509413  0  2.40504  0  0  -0.534329  0  2.392996  0  0  -0.325336  -0.492085  0  2.412874  0
O  O39  1  0.83505081  0.41934569  0.43166474  1  0  -0.565555  0  2.16989  0  0  -0.509258  0  2.40322  0  0  -0.534134  0  2.391079  0  0  -0.325418  -0.491946  0  2.411086  0
O  O40  1  0.31386285  0.91942858  0.93159262  1  0  -0.564663  0  2.172056  0  0  -0.509407  0  2.405089  0  0  -0.53433  0  2.39307  0  0  -0.325258  -0.492075  0  2.412917  0
O  O41  1  0.16492738  0.58065427  0.56834948  1  0  -0.565492  0  2.169904  0  0  -0.509288  0  2.403003  0  0  -0.534191  0  2.390932  0  0  -0.325474  -0.491958  0  2.410866  0
