# generated using pymatgen
data_AgH18C20(NO)5
_symmetry_space_group_name_H-M   'P 1'
_cell_length_a   9.14275753
_cell_length_b   9.56206257
_cell_length_c   13.38073879
_cell_angle_alpha   74.95549762
_cell_angle_beta   85.33754019
_cell_angle_gamma   66.84016140
_symmetry_Int_Tables_number   1
_chemical_formula_structural   AgH18C20(NO)5
_chemical_formula_sum   'Ag2 H36 C40 N10 O10'
_cell_volume   1038.37138894
_cell_formula_units_Z   2
loop_
 _symmetry_equiv_pos_site_id
 _symmetry_equiv_pos_as_xyz
  1  'x, y, z'
loop_
 _atom_site_type_symbol
 _atom_site_label
 _atom_site_symmetry_multiplicity
 _atom_site_fract_x
 _atom_site_fract_y
 _atom_site_fract_z
 _atom_site_occupancy
 _atom_site_hle17_bader_spin_density
 _atom_site_hle17_ddec_charge
 _atom_site_hle17_ddec_spin_density
 _atom_site_hle17_ddec_sum_bond_order
 _atom_site_hle17_magmom
 _atom_site_hse06_10hf_bader_spin_density
 _atom_site_hse06_10hf_ddec_charge
 _atom_site_hse06_10hf_ddec_spin_density
 _atom_site_hse06_10hf_ddec_sum_bond_order
 _atom_site_hse06_10hf_magmom
 _atom_site_hse06_bader_spin_density
 _atom_site_hse06_ddec_charge
 _atom_site_hse06_ddec_spin_density
 _atom_site_hse06_ddec_sum_bond_order
 _atom_site_hse06_magmom
 _atom_site_pbe_bader_spin_density
 _atom_site_pbe_cm5_charge
 _atom_site_pbe_ddec_charge
 _atom_site_pbe_ddec_spin_density
 _atom_site_pbe_ddec_sum_bond_order
 _atom_site_pbe_magmom
Ag  Ag0  1  0.06098228  0.20027199  0.50677369  1  0  0.49249  0  1.400709  0  0  0.332073  0  1.825353  0  0  0.361603  0  1.788895  0  0  0.463759  0.311922  0  1.849295  0
Ag  Ag1  1  0.93901445  0.79973139  0.49322440  1  0  0.492472  0  1.40072  0  0  0.332059  0  1.825341  0  0  0.361588  0  1.788886  0  0  0.463751  0.311905  0  1.849281  0
H  H2  1  0.35430185  0.09744618  0.14835069  1  0  0.096497  0  0.966939  0  0  0.106198  0  1.031707  0  0  0.108448  0  1.03141  0  0  0.097999  0.104522  0  1.032064  0
H  H3  1  0.64570398  0.90255365  0.85164614  1  0  0.0967  0  0.966883  0  0  0.106425  0  1.0316  0  0  0.108677  0  1.031299  0  0  0.098099  0.104747  0  1.031957  0
H  H4  1  0.54269229  0.30566380  0.17133553  1  0  0.104158  0  0.960846  0  0  0.110564  0  1.028548  0  0  0.114285  0  1.025983  0  0  0.098941  0.107826  0  1.030686  0
H  H5  1  0.45730306  0.69433724  0.82866678  1  0  0.104119  0  0.960864  0  0  0.110559  0  1.028538  0  0  0.114282  0  1.025971  0  0  0.098956  0.10782  0  1.030677  0
H  H6  1  0.31622834  0.56511919  0.14272010  1  0  0.078691  0  0.984037  0  0  0.089542  0  1.049185  0  0  0.091155  0  1.049852  0  0  0.091394  0.088702  0  1.047982  0
H  H7  1  0.68376432  0.43488303  0.85728361  1  0  0.078728  0  0.983964  0  0  0.089601  0  1.049086  0  0  0.091214  0  1.049753  0  0  0.091412  0.08876  0  1.047883  0
H  H8  1  0.42554599  0.16115188  0.81973938  1  0  0.092062  0  0.955769  0  0  0.102037  0  1.01951  0  0  0.104496  0  1.018798  0  0  0.098072  0.100554  0  1.019599  0
H  H9  1  0.57445743  0.83884561  0.18025872  1  0  0.092057  0  0.955842  0  0  0.102034  0  1.019584  0  0  0.104495  0  1.018871  0  0  0.098058  0.100551  0  1.019672  0
H  H10  1  0.11741513  0.24042292  0.86844375  1  0  0.305925  0  0.945715  0  0  0.28572  0  1.015864  0  0  0.293759  0  1.009507  0  0  0.30448  0.280216  0  1.020026  0
H  H11  1  0.88258454  0.75957576  0.13155431  1  0  0.305963  0  0.945677  0  0  0.285723  0  1.015855  0  0  0.293762  0  1.009498  0  0  0.304494  0.280223  0  1.020022  0
H  H12  1  0.17069226  0.32103649  0.03512398  1  0  0.077271  0  0.93019  0  0  0.09316  0  0.992229  0  0  0.093691  0  0.991549  0  0  0.104509  0.092778  0  0.992513  0
H  H13  1  0.82931114  0.67896100  0.96487487  1  0  0.077252  0  0.930256  0  0  0.093115  0  0.992316  0  0  0.093647  0  0.991636  0  0  0.104511  0.092733  0  0.992597  0
H  H14  1  0.28649268  0.40281835  0.94572757  1  0  0.073436  0  0.945158  0  0  0.087459  0  1.011459  0  0  0.087018  0  1.013268  0  0  0.106769  0.086762  0  1.011601  0
H  H15  1  0.71351070  0.59717914  0.05427203  1  0  0.073416  0  0.945144  0  0  0.087448  0  1.01144  0  0  0.08701  0  1.013247  0  0  0.106765  0.086749  0  1.011581  0
H  H16  1  0.89245087  0.25586530  0.12887666  1  0  0.305252  0  0.933098  0  0  0.287085  0  1.000221  0  0  0.294872  0  0.994215  0  0  0.306005  0.281787  0  1.004089  0
H  H17  1  0.10754482  0.74413222  0.87112327  1  0  0.305354  0  0.933022  0  0  0.287146  0  1.000184  0  0  0.294934  0  0.994176  0  0  0.306043  0.281846  0  1.004055  0
H  H18  1  0.71867125  0.10107278  0.04768657  1  0  0.080571  0  0.94521  0  0  0.093607  0  1.0111  0  0  0.093568  0  1.012725  0  0  0.109226  0.09288  0  1.011035  0
H  H19  1  0.28132590  0.89892943  0.95231321  1  0  0.080582  0  0.945179  0  0  0.093623  0  1.011061  0  0  0.093584  0  1.012686  0  0  0.109234  0.092895  0  1.010998  0
H  H20  1  0.83120292  0.18775735  0.95837855  1  0  0.072065  0  0.958462  0  0  0.086277  0  1.023679  0  0  0.086882  0  1.022827  0  0  0.101839  0.085739  0  1.024326  0
H  H21  1  0.16879307  0.81224486  0.04162352  1  0  0.072041  0  0.958386  0  0  0.086219  0  1.023657  0  0  0.086823  0  1.022808  0  0  0.101814  0.085681  0  1.024304  0
H  H22  1  0.13963650  0.28216839  0.68885704  1  0  0.091987  0  0.973461  0  0  0.095643  0  1.044542  0  0  0.098972  0  1.041299  0  0  0.116779  0.092988  0  1.047282  0
H  H23  1  0.86035756  0.71783030  0.31114575  1  0  0.092012  0  0.973424  0  0  0.095639  0  1.044527  0  0  0.098965  0  1.04129  0  0  0.116783  0.092981  0  1.047273  0
H  H24  1  0.75171766  0.69149283  0.74647912  1  0  0.123344  0  0.928132  0  0  0.132976  0  0.987748  0  0  0.136238  0  0.98513  0  0  0.119109  0.130444  0  0.989959  0
H  H25  1  0.24828108  0.30850234  0.25352335  1  0  0.123403  0  0.928008  0  0  0.133021  0  0.987646  0  0  0.136284  0  0.985027  0  0  0.119107  0.13049  0  0.989858  0
H  H26  1  0.60636979  0.69354717  0.59598425  1  0  0.121312  0  0.942583  0  0  0.130343  0  0.999196  0  0  0.133514  0  0.998476  0  0  0.113093  0.127442  0  1.00103  0
H  H27  1  0.39363709  0.30644678  0.40401882  1  0  0.121347  0  0.942437  0  0  0.130347  0  0.999091  0  0  0.13352  0  0.99837  0  0  0.113066  0.127445  0  1.000928  0
H  H28  1  0.73743251  0.48551988  0.49830542  1  0  0.077962  0  0.918044  0  0  0.092541  0  0.972449  0  0  0.094878  0  0.9702  0  0  0.119047  0.090504  0  0.974558  0
H  H29  1  0.26256709  0.51448466  0.50169083  1  0  0.077977  0  0.918058  0  0  0.092552  0  0.97246  0  0  0.094887  0  0.970212  0  0  0.119061  0.090514  0  0.974569  0
H  H30  1  0.91972553  0.18361029  0.31183754  1  0  0.092271  0  0.936125  0  0  0.101571  0  0.999042  0  0  0.104813  0  0.994792  0  0  0.120952  0.099354  0  1.001637  0
H  H31  1  0.08027764  0.81639072  0.68815919  1  0  0.092256  0  0.936144  0  0  0.101581  0  0.999039  0  0  0.104824  0  0.994787  0  0  0.120961  0.099362  0  1.001634  0
H  H32  1  0.25186066  0.78674237  0.20870899  1  0  0.098929  0  0.944377  0  0  0.109493  0  1.006803  0  0  0.112518  0  1.004625  0  0  0.110788  0.107215  0  1.008401  0
H  H33  1  0.74814464  0.21325862  0.79129064  1  0  0.098949  0  0.94442  0  0  0.109496  0  1.006858  0  0  0.112525  0  1.004682  0  0  0.110779  0.107219  0  1.008454  0
H  H34  1  0.43877423  0.74157483  0.35410402  1  0  0.107184  0  0.938161  0  0  0.120126  0  0.990492  0  0  0.123312  0  0.989751  0  0  0.109154  0.117822  0  0.991126  0
H  H35  1  0.56123125  0.25842851  0.64589518  1  0  0.107305  0  0.938044  0  0  0.120222  0  0.990399  0  0  0.12341  0  0.989655  0  0  0.109198  0.11792  0  0.991035  0
H  H36  1  0.34860762  0.91808092  0.47349893  1  0  0.085928  0  0.953981  0  0  0.094439  0  1.016983  0  0  0.096495  0  1.014845  0  0  0.116714  0.092419  0  1.019508  0
H  H37  1  0.65139000  0.08192011  0.52650029  1  0  0.085871  0  0.953922  0  0  0.094388  0  1.016923  0  0  0.096444  0  1.014785  0  0  0.116687  0.092369  0  1.019446  0
C  C38  1  0.37333855  0.14928533  0.98190688  1  0  0.05617  0  3.748957  0  0  0.079148  0  3.98468  0  0  0.078642  0  4.008586  0  0  -0.013286  0.079366  0  3.969896  0
C  C39  1  0.62666815  0.85071214  0.01809183  1  0  0.056001  0  3.749092  0  0  0.079033  0  3.984756  0  0  0.078525  0  4.008665  0  0  -0.013372  0.07925  0  3.969966  0
C  C40  1  0.41721867  0.05540178  0.08258636  1  0  -0.118267  0  3.761462  0  0  -0.139441  0  4.011204  0  0  -0.142585  0  4.034492  0  0  -0.095677  -0.136602  0  3.995674  0
C  C41  1  0.58278936  0.94459804  0.91741038  1  0  -0.118518  0  3.761589  0  0  -0.139751  0  4.011353  0  0  -0.142897  0  4.034639  0  0  -0.0958  -0.13691  0  3.995822  0
C  C42  1  0.52512287  0.39123253  0.09652646  1  0  -0.111638  0  3.734436  0  0  -0.130091  0  3.980533  0  0  -0.132748  0  4.001605  0  0  -0.094454  -0.128459  0  3.967246  0
C  C43  1  0.47486716  0.60877087  0.90347640  1  0  -0.111539  0  3.734225  0  0  -0.130002  0  3.980312  0  0  -0.132666  0  4.001397  0  0  -0.094436  -0.128371  0  3.967025  0
C  C44  1  0.62869826  0.35309626  0.01581419  1  0  0.064583  0  3.753068  0  0  0.083948  0  3.992333  0  0  0.083812  0  4.015892  0  0  -0.0131  0.083829  0  3.977888  0
C  C45  1  0.37129553  0.64690595  0.98418798  1  0  0.064534  0  3.752933  0  0  0.083865  0  3.992265  0  0  0.083728  0  4.015821  0  0  -0.013138  0.083749  0  3.97782  0
C  C46  1  0.39800810  0.53679011  0.08012440  1  0  -0.127979  0  3.772626  0  0  -0.144662  0  4.015852  0  0  -0.147826  0  4.039242  0  0  -0.098209  -0.141746  0  3.999821  0
C  C47  1  0.60198456  0.46321211  0.91987930  1  0  -0.128087  0  3.772432  0  0  -0.144798  0  4.01565  0  0  -0.14797  0  4.03905  0  0  -0.098252  -0.141879  0  3.999617  0
C  C48  1  0.45768524  0.09162422  0.89930964  1  0  -0.112303  0  3.742494  0  0  -0.13266  0  3.991538  0  0  -0.135081  0  4.013239  0  0  -0.096125  -0.131253  0  3.977287  0
C  C49  1  0.54232038  0.90837327  0.10068837  1  0  -0.112278  0  3.742536  0  0  -0.13267  0  3.99156  0  0  -0.135092  0  4.013261  0  0  -0.096088  -0.131262  0  3.977308  0
C  C50  1  0.23969597  0.30934635  0.96418616  1  0  0.023845  0  3.6626  0  0  -0.040567  0  3.916819  0  0  -0.034654  0  3.926904  0  0  -0.055553  -0.044339  0  3.910609  0
C  C51  1  0.76031100  0.69065347  0.03580838  1  0  0.023945  0  3.662693  0  0  -0.040433  0  3.916812  0  0  -0.034521  0  3.926899  0  0  -0.055546  -0.044201  0  3.910589  0
C  C52  1  0.04678798  0.47907789  0.82202593  1  0  0.539493  0  3.87038  0  0  0.492051  0  4.153431  0  0  0.521118  0  4.154402  0  0  0.239032  0.472876  0  4.151783  0
C  C53  1  0.95321451  0.52092195  0.17797254  1  0  0.539469  0  3.87046  0  0  0.492058  0  4.153469  0  0  0.52112  0  4.154449  0  0  0.238997  0.472881  0  4.151824  0
C  C54  1  0.76397076  0.19545269  0.03010355  1  0  0.012569  0  3.668799  0  0  -0.050562  0  3.922367  0  0  -0.045075  0  3.93253  0  0  -0.058949  -0.05408  0  3.916305  0
C  C55  1  0.23602575  0.80454835  0.96989646  1  0  0.012644  0  3.668571  0  0  -0.050462  0  3.922152  0  0  -0.044972  0  3.932313  0  0  -0.058915  -0.053982  0  3.91609  0
C  C56  1  0.96204294  0.01610399  0.16380305  1  0  0.557632  0  3.846769  0  0  0.506274  0  4.1343  0  0  0.535823  0  4.134593  0  0  0.247363  0.486723  0  4.133376  0
C  C57  1  0.03795666  0.98389468  0.83619800  1  0  0.557565  0  3.846925  0  0  0.506242  0  4.134419  0  0  0.535788  0  4.134715  0  0  0.247333  0.486687  0  4.133498  0
C  C58  1  0.02020904  0.37295035  0.67327358  1  0  0.107797  0  3.665902  0  0  0.065703  0  3.912859  0  0  0.07479  0  3.929464  0  0  0.047453  0.0599  0  3.901523  0
C  C59  1  0.97979037  0.62705185  0.32672310  1  0  0.107744  0  3.665926  0  0  0.065685  0  3.912872  0  0  0.07477  0  3.929479  0  0  0.047481  0.059881  0  3.901532  0
C  C60  1  0.95508061  0.48292437  0.73259305  1  0  -0.101585  0  3.758608  0  0  -0.077205  0  3.999084  0  0  -0.087675  0  4.020496  0  0  -0.00539  -0.070541  0  3.984063  0
C  C61  1  0.04491655  0.51707784  0.26740598  1  0  -0.101497  0  3.758585  0  0  -0.077134  0  3.999035  0  0  -0.0876  0  4.020452  0  0  -0.005403  -0.070469  0  3.984013  0
C  C62  1  0.80485219  0.60138927  0.70384927  1  0  -0.014229  0  3.687337  0  0  -0.045145  0  3.941094  0  0  -0.038585  0  3.95519  0  0  -0.057196  -0.049004  0  3.931218  0
C  C63  1  0.19514561  0.39860824  0.29615432  1  0  -0.014261  0  3.687265  0  0  -0.045158  0  3.941004  0  0  -0.038602  0  3.955105  0  0  -0.057149  -0.049019  0  3.93113  0
C  C64  1  0.72354529  0.60258749  0.61965693  1  0  -0.118707  0  3.735497  0  0  -0.127121  0  3.987124  0  0  -0.134687  0  4.00709  0  0  -0.082714  -0.122596  0  3.974433  0
C  C65  1  0.27645038  0.39741004  0.38034375  1  0  -0.118762  0  3.735494  0  0  -0.127149  0  3.987116  0  0  -0.134715  0  4.007085  0  0  -0.082703  -0.122623  0  3.974426  0
C  C66  1  0.79588146  0.48770661  0.56536543  1  0  0.117418  0  3.711104  0  0  0.082638  0  3.961049  0  0  0.090352  0  3.980349  0  0  0.044459  0.077673  0  3.947935  0
C  C67  1  0.20411770  0.51229324  0.43463468  1  0  0.117394  0  3.7111  0  0  0.082612  0  3.961035  0  0  0.090329  0  3.980334  0  0  0.044445  0.077646  0  3.947919  0
C  C68  1  0.03390600  0.08566813  0.31796324  1  0  0.117732  0  3.676649  0  0  0.074497  0  3.927459  0  0  0.08503  0  3.941749  0  0  0.051289  0.067561  0  3.917404  0
C  C69  1  0.96609426  0.91433172  0.68203682  1  0  0.117806  0  3.676878  0  0  0.074528  0  3.927679  0  0  0.08506  0  3.941968  0  0  0.051314  0.067592  0  3.917621  0
C  C70  1  0.07374686  0.99128414  0.24807950  1  0  -0.099198  0  3.74781  0  0  -0.075118  0  3.987185  0  0  -0.086092  0  4.009061  0  0  -0.008306  -0.069079  0  3.972982  0
C  C71  1  0.92625228  0.00871571  0.75192136  1  0  -0.0993  0  3.747845  0  0  -0.075219  0  3.987226  0  0  -0.086189  0  4.009101  0  0  -0.008351  -0.06918  0  3.973022  0
C  C72  1  0.21971682  0.86284845  0.26178452  1  0  -0.010064  0  3.70016  0  0  -0.04096  0  3.951062  0  0  -0.034825  0  3.9682  0  0  -0.060161  -0.044237  0  3.93912  0
C  C73  1  0.78028711  0.13715607  0.73821454  1  0  -0.009952  0  3.699938  0  0  -0.040818  0  3.950792  0  0  -0.03469  0  3.967933  0  0  -0.060071  -0.044096  0  3.938854  0
C  C74  1  0.32129236  0.83596652  0.34252044  1  0  -0.119494  0  3.758308  0  0  -0.132765  0  4.017566  0  0  -0.141265  0  4.038315  0  0  -0.083269  -0.127328  0  4.002712  0
C  C75  1  0.67871145  0.16403566  0.65747606  1  0  -0.119733  0  3.758194  0  0  -0.132991  0  4.017469  0  0  -0.141492  0  4.038218  0  0  -0.083381  -0.127556  0  4.00262  0
C  C76  1  0.27348562  0.93564849  0.40876104  1  0  0.138431  0  3.692303  0  0  0.100556  0  3.946236  0  0  0.110476  0  3.962391  0  0  0.045637  0.094094  0  3.935265  0
C  C77  1  0.72651212  0.06435488  0.59124074  1  0  0.138524  0  3.692131  0  0  0.100639  0  3.946056  0  0  0.110557  0  3.962214  0  0  0.045667  0.094176  0  3.935089  0
N  N78  1  0.13631503  0.33555899  0.87811333  1  0  -0.418506  0  3.312514  0  0  -0.355659  0  3.552818  0  0  -0.377777  0  3.561806  0  0  -0.410869  -0.340457  0  3.545547  0
N  N79  1  0.86368349  0.66443969  0.12188702  1  0  -0.418553  0  3.312599  0  0  -0.355712  0  3.552947  0  0  -0.37783  0  3.561938  0  0  -0.41087  -0.340517  0  3.545675  0
N  N80  1  0.87256848  0.16395532  0.11483212  1  0  -0.406169  0  3.286747  0  0  -0.344793  0  3.52896  0  0  -0.366967  0  3.537874  0  0  -0.406882  -0.32987  0  3.521916  0
N  N81  1  0.12742941  0.83604220  0.88516773  1  0  -0.40626  0  3.286876  0  0  -0.344853  0  3.529108  0  0  -0.36703  0  3.538022  0  0  -0.406893  -0.329929  0  3.522067  0
N  N82  1  0.94290276  0.37542598  0.59090338  1  0  -0.298514  0  3.381297  0  0  -0.205744  0  3.664268  0  0  -0.226873  0  3.683523  0  0  -0.351608  -0.191115  0  3.650252  0
N  N83  1  0.05709512  0.62457154  0.40909646  1  0  -0.298507  0  3.381238  0  0  -0.205734  0  3.664196  0  0  -0.22686  0  3.683451  0  0  -0.351629  -0.1911  0  3.650173  0
N  N84  1  0.13123931  0.05737425  0.39771385  1  0  -0.305871  0  3.366832  0  0  -0.210388  0  3.648778  0  0  -0.23179  0  3.665422  0  0  -0.352515  -0.195509  0  3.636648  0
N  N85  1  0.86876358  0.94262442  0.60228705  1  0  -0.305945  0  3.366875  0  0  -0.21043  0  3.648798  0  0  -0.23183  0  3.66544  0  0  -0.352558  -0.195551  0  3.63667  0
N  N86  1  0.37629177  0.00225816  0.64952750  1  0  0.68856  0  4.160615  0  0  0.743528  0  4.420609  0  0  0.757499  0  4.446761  0  0  0.092355  0.723874  0  4.416774  0
N  N87  1  0.62370818  0.99774520  0.35047344  1  0  0.688432  0  4.160324  0  0  0.743463  0  4.420234  0  0  0.757405  0  4.446418  0  0  0.092319  0.723809  0  4.416398  0
O  O88  1  0.03803467  0.60467483  0.83941587  1  0  -0.578762  0  1.967453  0  0  -0.535045  0  2.196182  0  0  -0.556751  0  2.189799  0  0  -0.303021  -0.520441  0  2.199894  0
O  O89  1  0.96196667  0.39532501  0.16058489  1  0  -0.578769  0  1.967473  0  0  -0.535068  0  2.196181  0  0  -0.556773  0  2.1898  0  0  -0.303003  -0.520465  0  2.199895  0
O  O90  1  0.95779826  0.89849016  0.14098856  1  0  -0.585427  0  1.991778  0  0  -0.537657  0  2.225375  0  0  -0.559738  0  2.21917  0  0  -0.304217  -0.522771  0  2.228938  0
O  O91  1  0.04220071  0.10150734  0.85901198  1  0  -0.585341  0  1.991816  0  0  -0.537634  0  2.225432  0  0  -0.559721  0  2.219248  0  0  -0.304191  -0.522745  0  2.228993  0
O  O92  1  0.34783018  0.14773165  0.61139893  1  0  -0.509118  0  1.740206  0  0  -0.498766  0  1.952215  0  0  -0.510495  0  1.950984  0  0  -0.217944  -0.486877  0  1.956754  0
O  O93  1  0.65217345  0.85227052  0.38860505  1  0  -0.509142  0  1.739986  0  0  -0.498798  0  1.951961  0  0  -0.510521  0  1.950753  0  0  -0.217989  -0.486907  0  1.956501  0
O  O94  1  0.50647557  0.91099628  0.69576556  1  0  -0.459779  0  1.764334  0  0  -0.455891  0  1.971754  0  0  -0.465904  0  1.973239  0  0  -0.18812  -0.445366  0  1.974919  0
O  O95  1  0.49352623  0.08900239  0.30423540  1  0  -0.459692  0  1.764381  0  0  -0.455808  0  1.971774  0  0  -0.465813  0  1.973272  0  0  -0.188076  -0.445283  0  1.974938  0
O  O96  1  0.27122363  0.94982598  0.63946014  1  0  -0.505876  0  1.779116  0  0  -0.498839  0  2.006649  0  0  -0.510531  0  2.003554  0  0  -0.218605  -0.485979  0  2.012094  0
O  O97  1  0.72877702  0.05017856  0.36053832  1  0  -0.505808  0  1.778993  0  0  -0.49882  0  2.00653  0  0  -0.510504  0  2.003447  0  0  -0.218565  -0.485959  0  2.011976  0
