# generated using pymatgen
data_FeH8Pt(C3N2)4
_symmetry_space_group_name_H-M   'P 1'
_cell_length_a   7.23563449
_cell_length_b   7.30681906
_cell_length_c   6.97780740
_cell_angle_alpha   90.00036775
_cell_angle_beta   90.00010485
_cell_angle_gamma   97.79147970
_symmetry_Int_Tables_number   1
_chemical_formula_structural   FeH8Pt(C3N2)4
_chemical_formula_sum   'Fe1 H8 Pt1 C12 N8'
_cell_volume   365.50719213
_cell_formula_units_Z   1
loop_
 _symmetry_equiv_pos_site_id
 _symmetry_equiv_pos_as_xyz
  1  'x, y, z'
loop_
 _atom_site_type_symbol
 _atom_site_label
 _atom_site_symmetry_multiplicity
 _atom_site_fract_x
 _atom_site_fract_y
 _atom_site_fract_z
 _atom_site_occupancy
 _atom_site_pbe_bader_spin_density
 _atom_site_pbe_cm5_charge
 _atom_site_pbe_ddec_charge
 _atom_site_pbe_ddec_spin_density
 _atom_site_pbe_ddec_sum_bond_order
 _atom_site_pbe_magmom
Fe  Fe0  1  0.47757018  0.99903476  0.50000205  1  0  0.827346  0.599702  0  3.708375  0
H  H1  1  0.83995385  0.01006876  0.79669118  1  0  0.128775  0.105902  0  0.974756  0
H  H2  1  0.18669223  0.98770479  0.79779720  1  0  0.131882  0.112224  0  0.985587  0
H  H3  1  0.18669590  0.98771539  0.20219607  1  0  0.131885  0.112253  0  0.985478  0
H  H4  1  0.83995235  0.01007102  0.20330278  1  0  0.12878  0.105901  0  0.974702  0
H  H5  1  0.84740270  0.57322610  0.79702560  1  0  0.091933  0.047748  0  1.067783  0
H  H6  1  0.14484527  0.42684756  0.79697406  1  0  0.092954  0.049844  0  1.064239  0
H  H7  1  0.14484290  0.42685393  0.20301384  1  0  0.092986  0.049886  0  1.064106  0
H  H8  1  0.84739945  0.57323660  0.20297366  1  0  0.091913  0.047707  0  1.067792  0
Pt  Pt9  1  0.49740296  0.50147485  0.00000664  1  0  0.541793  0.092944  0  4.711797  0
C  C10  1  0.91868620  0.00619357  0.66386588  1  0  0.065572  0.047172  0  3.944464  0
C  C11  1  0.10831527  0.99288191  0.66546042  1  0  0.059796  0.034889  0  3.87068  0
C  C12  1  0.10831438  0.99288776  0.33453698  1  0  0.059836  0.034985  0  3.870502  0
C  C13  1  0.91868758  0.00619532  0.33613112  1  0  0.065574  0.047126  0  3.944464  0
C  C14  1  0.48470095  0.69463788  0.80393890  1  0  0.007589  0.05152  0  3.911434  0
C  C15  1  0.50333428  0.30693076  0.80397486  1  0  0.008061  0.051739  0  3.909346  0
C  C16  1  0.50335389  0.30693605  0.19603031  1  0  0.008108  0.051741  0  3.909461  0
C  C17  1  0.48470028  0.69464699  0.19605884  1  0  0.007639  0.051565  0  3.911485  0
C  C18  1  0.91452332  0.54115775  0.66276707  1  0  0.036352  0.034658  0  3.985015  0
C  C19  1  0.07766279  0.45886310  0.66274710  1  0  0.036699  0.034782  0  3.982583  0
C  C20  1  0.07765498  0.45886885  0.33724657  1  0  0.036698  0.034718  0  3.982677  0
C  C21  1  0.91451967  0.54116357  0.33723071  1  0  0.03634  0.034683  0  3.985325  0
N  N22  1  0.82421801  0.01422456  0.49999912  1  0  -0.26089  -0.142266  0  3.404106  0
N  N23  1  0.20611208  0.98925383  0.49999738  1  0  -0.300933  -0.09384  0  3.587846  0
N  N24  1  0.47532128  0.81308491  0.69278117  1  0  -0.3834  -0.305192  0  3.585197  0
N  N25  1  0.50002487  0.18665875  0.69264005  1  0  -0.382876  -0.305272  0  3.589167  0
N  N26  1  0.50003605  0.18666185  0.30736573  1  0  -0.382971  -0.305339  0  3.589064  0
N  N27  1  0.47532244  0.81308510  0.30722309  1  0  -0.383426  -0.305161  0  3.585177  0
N  N28  1  0.83160884  0.58233968  0.50000108  1  0  -0.297187  -0.188707  0  3.300815  0
N  N29  1  0.16015378  0.41709731  0.49999537  1  0  -0.296826  -0.187912  0  3.303804  0
