# generated using pymatgen
data_CuH8C8N8(ClO2)2
_symmetry_space_group_name_H-M   'P 1'
_cell_length_a   3.87380253
_cell_length_b   10.14126328
_cell_length_c   17.34109318
_cell_angle_alpha   89.99993758
_cell_angle_beta   89.99987303
_cell_angle_gamma   90.52586537
_symmetry_Int_Tables_number   1
_chemical_formula_structural   CuH8C8N8(ClO2)2
_chemical_formula_sum   'Cu2 H16 C16 N16 Cl4 O8'
_cell_volume   681.22051106
_cell_formula_units_Z   2
loop_
 _symmetry_equiv_pos_site_id
 _symmetry_equiv_pos_as_xyz
  1  'x, y, z'
loop_
 _atom_site_type_symbol
 _atom_site_label
 _atom_site_symmetry_multiplicity
 _atom_site_fract_x
 _atom_site_fract_y
 _atom_site_fract_z
 _atom_site_occupancy
 _atom_site_hle17_ddec_charge
 _atom_site_hle17_ddec_spin_density
 _atom_site_hle17_ddec_sum_bond_order
 _atom_site_hle17_magmom
 _atom_site_hse06_10hf_ddec_charge
 _atom_site_hse06_10hf_ddec_spin_density
 _atom_site_hse06_10hf_ddec_sum_bond_order
 _atom_site_hse06_10hf_magmom
 _atom_site_hse06_ddec_charge
 _atom_site_hse06_ddec_spin_density
 _atom_site_hse06_ddec_sum_bond_order
 _atom_site_hse06_magmom
 _atom_site_pbe_cm5_charge
 _atom_site_pbe_ddec_charge
 _atom_site_pbe_ddec_spin_density
 _atom_site_pbe_ddec_sum_bond_order
 _atom_site_pbe_magmom
Cu  Cu0  1  0.99999637  0.00000078  0.49999938  1  0.72656  0.61943  1.937447  0.446  0.723446  0.724729  2.309623  0.565  0.817578  0.795281  2.232802  0.653  0.577263  0.671595  0.678563  2.356694  0.512
Cu  Cu1  1  0.50000316  0.49999845  0.00000030  1  0.726613  0.619426  1.937397  0.446  0.723464  0.72472  2.309581  0.565  0.817634  0.795281  2.232744  0.653  0.577283  0.671636  0.678557  2.35665  0.512
H  H2  1  0.62003408  0.53819723  0.31658699  1  0.110746  0.000313  0.930952  0.001  0.112172  0.000122  1.002734  0.0  0.115779  3.2e-05  0.996955  0.0  0.128719  0.109509  0.000255  1.00682  0.0
H  H3  1  0.87996729  0.96180296  0.81658583  1  0.110741  0.000311  0.930956  0.001  0.112166  0.000122  1.00274  0.0  0.115773  3.2e-05  0.996961  0.0  0.128702  0.109508  0.000255  1.006829  0.0
H  H4  1  0.37996735  0.46180364  0.68341342  1  0.110729  0.000311  0.93096  0.001  0.112165  0.000122  1.002724  0.0  0.115777  3.2e-05  0.99694  0.0  0.128719  0.109504  0.000255  1.006812  0.0
H  H5  1  0.12002895  0.03819694  0.18341458  1  0.110699  0.000312  0.930953  0.001  0.11213  0.000122  1.002741  0.0  0.115729  3.2e-05  0.996972  0.0  0.128719  0.109479  0.000255  1.006822  0.0
H  H6  1  0.87104775  0.95252239  0.34105238  1  0.113386  0.001346  0.955719  0.002  0.11642  0.001363  1.025354  0.002  0.119757  0.000992  1.019547  0.001  0.118588  0.114082  0.001777  1.029216  0.002
H  H7  1  0.62895592  0.54747676  0.84105276  1  0.113415  0.001345  0.955747  0.002  0.116443  0.001363  1.025385  0.002  0.119781  0.000992  1.019578  0.001  0.118592  0.114103  0.001778  1.029244  0.002
H  H8  1  0.12894593  0.04747849  0.65894688  1  0.113402  0.001345  0.955728  0.002  0.116432  0.001363  1.025359  0.002  0.11977  0.000992  1.01955  0.001  0.118596  0.114091  0.001777  1.029223  0.002
H  H9  1  0.37104800  0.45252115  0.15894649  1  0.113378  0.001343  0.955776  0.002  0.116407  0.001363  1.025413  0.002  0.119744  0.000992  1.019606  0.001  0.118611  0.114066  0.001777  1.029272  0.002
H  H10  1  0.11024702  0.58041971  0.54934232  1  0.332765  0.000183  0.921189  0.0  0.305118  0.000142  0.998604  0.0  0.314891  4.6e-05  0.990194  0.0  0.299365  0.298386  0.000296  1.004244  0.0
H  H11  1  0.38975044  0.91958072  0.04934253  1  0.332746  0.000183  0.921162  0.0  0.305096  0.000142  0.998582  0.0  0.314869  4.6e-05  0.990171  0.0  0.29934  0.298364  0.000297  1.004221  0.0
H  H12  1  0.88974928  0.41958215  0.45065694  1  0.332759  0.000184  0.921154  0.0  0.305101  0.000142  0.998578  0.0  0.314873  4.6e-05  0.990169  0.0  0.299342  0.298369  0.000296  1.004218  0.0
H  H13  1  0.61025089  0.08041719  0.95065789  1  0.332731  0.000183  0.921173  0.0  0.305092  0.000142  0.998577  0.0  0.314865  4.7e-05  0.990168  0.0  0.299342  0.298364  0.000297  1.004221  0.0
H  H14  1  0.20244196  0.75121276  0.56311704  1  0.342801  0.000361  0.902116  0.0  0.319914  0.000476  0.974695  0.0  0.328342  0.000329  0.966784  0.0  0.289468  0.313895  0.000612  0.980452  0.0
H  H15  1  0.29756052  0.74878764  0.06311740  1  0.342794  0.00036  0.902121  0.0  0.319909  0.000476  0.974694  0.0  0.328337  0.00033  0.966784  0.0  0.289466  0.31389  0.000612  0.980449  0.0
H  H16  1  0.79755953  0.24879008  0.43688337  1  0.342834  0.000361  0.902101  0.0  0.319944  0.000476  0.974667  0.0  0.328372  0.000329  0.966761  0.0  0.28948  0.313923  0.000612  0.980425  0.0
H  H17  1  0.70244081  0.25121027  0.93688359  1  0.342775  0.000361  0.902162  0.0  0.319903  0.000476  0.974713  0.0  0.32833  0.000329  0.966805  0.0  0.289485  0.313886  0.000612  0.980472  0.0
C  C18  1  0.97403896  0.70276741  0.46101027  1  0.632096  -0.000876  3.767374  0.0  0.58556  0.001078  4.043494  0.001  0.615383  0.00026  4.050817  0.0  0.353229  0.565979  0.001736  4.037669  0.002
C  C19  1  0.52596614  0.79723348  0.96101112  1  0.632074  -0.000877  3.767451  0.0  0.585587  0.001077  4.043507  0.001  0.615409  0.000261  4.050832  0.0  0.353234  0.566011  0.001736  4.037696  0.002
C  C20  1  0.02596511  0.29723543  0.53898957  1  0.631987  -0.000852  3.767376  0.0  0.585393  0.001076  4.043605  0.001  0.6152  0.000263  4.05096  0.0  0.353185  0.565812  0.001736  4.037779  0.002
C  C21  1  0.47403774  0.20276345  0.03898987  1  0.632126  -0.000861  3.76723  0.0  0.585569  0.001075  4.043385  0.001  0.615391  0.000261  4.050711  0.0  0.353241  0.565993  0.001736  4.037562  0.002
C  C22  1  0.72467368  0.62162010  0.34906701  1  0.18392  -0.005016  3.666807  -0.004  0.135702  -0.001791  3.93954  -0.001  0.153712  -0.002263  3.948084  -0.001  0.083963  0.124003  -0.001198  3.933692  -0.001
C  C23  1  0.77532733  0.87837903  0.84906711  1  0.183891  -0.004971  3.666761  -0.004  0.135683  -0.001796  3.939488  -0.001  0.153693  -0.00226  3.948034  -0.001  0.084012  0.123985  -0.001196  3.933652  -0.001
C  C24  1  0.27532517  0.37838077  0.65093283  1  0.183893  -0.004966  3.666722  -0.004  0.135711  -0.001791  3.939431  -0.001  0.153718  -0.002261  3.947974  -0.001  0.083977  0.124009  -0.001196  3.933591  -0.001
C  C25  1  0.22466884  0.12161889  0.15093330  1  0.183978  -0.004977  3.666758  -0.004  0.13575  -0.001794  3.939525  -0.001  0.153766  -0.002261  3.948069  -0.001  0.083983  0.124042  -0.001198  3.933681  -0.001
C  C26  1  0.73033709  0.74917522  0.31780885  1  -0.057944  0.005349  3.721434  0.006  -0.071882  0.002905  3.992692  0.004  -0.086954  0.002213  4.014115  0.003  0.058636  -0.06668  0.00354  3.975573  0.004
C  C27  1  0.76967198  0.75082396  0.81780903  1  -0.057873  0.00532  3.721287  0.006  -0.071807  0.002912  3.992532  0.004  -0.08687  0.002211  4.013938  0.003  0.058633  -0.066597  0.00354  3.975432  0.004
C  C28  1  0.26966179  0.25082664  0.68219099  1  -0.057889  0.005333  3.721429  0.006  -0.071851  0.002903  3.992682  0.004  -0.086925  0.002213  4.014107  0.003  0.058654  -0.066656  0.00354  3.975571  0.004
C  C29  1  0.23032939  0.24917493  0.18219080  1  -0.057919  0.005314  3.721366  0.006  -0.071857  0.00291  3.992625  0.004  -0.086926  0.00221  4.014037  0.003  0.058674  -0.06665  0.00354  3.975509  0.004
C  C30  1  0.86074738  0.85186090  0.36276154  1  0.1643  -0.008021  3.686274  -0.006  0.115227  -0.002054  3.954581  -0.002  0.134418  -0.003439  3.967818  -0.003  0.066644  0.102666  -0.000978  3.94634  -0.001
C  C31  1  0.63925605  0.64813722  0.86276186  1  0.164256  -0.007988  3.686269  -0.006  0.115175  -0.002056  3.954581  -0.002  0.134363  -0.003436  3.967824  -0.003  0.066661  0.102627  -0.000977  3.946341  -0.001
C  C32  1  0.13925663  0.14813997  0.63723829  1  0.164283  -0.007991  3.6861  -0.006  0.115237  -0.002052  3.954402  -0.002  0.13443  -0.003439  3.967635  -0.003  0.066681  0.102681  -0.000978  3.946166  -0.001
C  C33  1  0.36074271  0.35186070  0.13723798  1  0.164336  -0.007968  3.686266  -0.006  0.115264  -0.002056  3.954556  -0.002  0.134456  -0.003437  3.967793  -0.003  0.066644  0.102703  -0.000979  3.946305  -0.001
N  N34  1  0.96668108  0.83103494  0.43482619  1  -0.425963  0.06948  3.228219  0.087  -0.37024  0.054272  3.512576  0.072  -0.410863  0.044555  3.532248  0.064  -0.348387  -0.346381  0.059093  3.500913  0.074
N  N35  1  0.53332171  0.66896600  0.93482654  1  -0.425947  0.069465  3.228222  0.087  -0.370224  0.054275  3.512542  0.072  -0.410855  0.044554  3.532222  0.064  -0.348382  -0.34638  0.059088  3.500902  0.074
N  N36  1  0.03331270  0.16896890  0.56517365  1  -0.425904  0.069461  3.228032  0.087  -0.370192  0.054272  3.512434  0.072  -0.410812  0.044554  3.532117  0.064  -0.348395  -0.346328  0.05909  3.50076  0.074
N  N37  1  0.46668217  0.33103093  0.06517387  1  -0.426041  0.069453  3.228163  0.087  -0.370281  0.054274  3.512493  0.072  -0.410917  0.044554  3.532181  0.064  -0.348413  -0.346426  0.059096  3.500828  0.074
N  N38  1  0.85258769  0.59843229  0.41840056  1  -0.413796  0.009985  2.997719  0.012  -0.360025  0.005983  3.253639  0.007  -0.381802  0.004164  3.262451  0.006  -0.304442  -0.345178  0.008248  3.246765  0.01
N  N39  1  0.64741265  0.90156770  0.91840014  1  -0.413797  0.009968  2.997766  0.012  -0.360053  0.005985  3.253661  0.007  -0.38183  0.004162  3.262473  0.006  -0.304462  -0.345203  0.008247  3.246802  0.01
N  N40  1  0.14741125  0.40157154  0.58160043  1  -0.413729  0.009953  2.997632  0.012  -0.36  0.005983  3.253624  0.007  -0.381771  0.004163  3.262443  0.006  -0.304452  -0.345147  0.008247  3.246746  0.01
N  N41  1  0.35258865  0.09842923  0.08160143  1  -0.413813  0.009965  2.99772  0.012  -0.360054  0.005986  3.253685  0.007  -0.38183  0.004163  3.262493  0.006  -0.304475  -0.345205  0.008248  3.24681  0.01
N  N42  1  0.10472539  0.67680206  0.52960421  1  -0.623379  -0.001099  3.113578  0.0  -0.58819  -0.000255  3.353793  0.0  -0.611769  -0.000722  3.348072  0.0  -0.538161  -0.572155  4.6e-05  3.357229  0.001
N  N43  1  0.39527227  0.82319841  0.02960447  1  -0.62335  -0.001088  3.113581  0.0  -0.588176  -0.000256  3.353778  0.0  -0.611756  -0.000721  3.348058  0.0  -0.53814  -0.572129  4.6e-05  3.35721  0.001
N  N44  1  0.89526829  0.32319882  0.47039505  1  -0.62338  -0.0011  3.113459  0.0  -0.588138  -0.000254  3.353693  0.0  -0.611715  -0.000722  3.347983  0.0  -0.538149  -0.572095  4.6e-05  3.357127  0.001
N  N45  1  0.60473165  0.17679950  0.97039652  1  -0.623302  -0.001085  3.11347  0.0  -0.588131  -0.000255  3.353714  0.0  -0.611707  -0.000721  3.347993  0.0  -0.538164  -0.572103  4.6e-05  3.357158  0.001
N  N46  1  0.59058058  0.77650981  0.24276343  1  0.481592  -0.000473  3.986059  0.0  0.526509  0.000129  4.265458  0.0  0.548622  0.000104  4.276289  0.0  0.046562  0.526309  0.000159  4.23549  0.0
N  N47  1  0.90941893  0.72348954  0.74276299  1  0.481647  -0.000457  3.985962  0.0  0.526562  0.000127  4.265357  0.0  0.548673  0.000104  4.276189  0.0  0.046582  0.526335  0.00016  4.235431  0.0
N  N48  1  0.40941566  0.22349008  0.75723640  1  0.481671  -0.000461  3.986006  0.0  0.52662  0.00013  4.26537  0.0  0.548735  0.000105  4.276197  0.0  0.046609  0.526434  0.00016  4.235396  0.0
N  N49  1  0.09058502  0.27650936  0.25723742  1  0.481669  -0.000457  3.986001  0.0  0.526593  0.000128  4.26538  0.0  0.548704  0.000107  4.276214  0.0  0.046578  0.526376  0.00016  4.23543  0.0
Cl  Cl50  1  0.61115505  0.91550417  0.58507917  1  -0.490211  0.116427  1.120277  0.142  -0.498543  0.073176  1.429208  0.096  -0.53472  0.054668  1.406312  0.079  -0.269759  -0.476676  0.084378  1.44527  0.104
Cl  Cl51  1  0.88884350  0.58449647  0.08508016  1  -0.490205  0.116429  1.120244  0.142  -0.498534  0.073178  1.429179  0.096  -0.534723  0.054666  1.406287  0.079  -0.269755  -0.476674  0.084384  1.445242  0.104
Cl  Cl52  1  0.38884393  0.08450065  0.41492124  1  -0.490178  0.116429  1.12022  0.142  -0.498528  0.073176  1.429188  0.096  -0.5347  0.054667  1.406283  0.079  -0.269742  -0.476659  0.08438  1.445249  0.104
Cl  Cl53  1  0.11115522  0.41550046  0.91492082  1  -0.490179  0.116426  1.120204  0.142  -0.498519  0.073177  1.429156  0.096  -0.534705  0.054666  1.406258  0.079  -0.269739  -0.476656  0.084374  1.44522  0.104
O  O54  1  0.39085360  0.69318422  0.21415747  1  -0.349264  0.002921  1.799634  0.002  -0.337507  0.002412  2.01469  0.002  -0.349139  0.001716  2.011832  0.001  -0.133097  -0.33466  0.003089  2.009531  0.003
O  O55  1  0.10914739  0.80681688  0.71415654  1  -0.349283  0.002918  1.799594  0.002  -0.337533  0.002412  2.014654  0.002  -0.349167  0.001715  2.011797  0.001  -0.133106  -0.334674  0.00309  2.009514  0.003
O  O56  1  0.60914522  0.30681567  0.78584237  1  -0.349289  0.002923  1.799647  0.002  -0.337545  0.002412  2.014704  0.002  -0.349177  0.001719  2.011845  0.001  -0.133102  -0.334699  0.00309  2.009544  0.003
O  O57  1  0.89085659  0.19318300  0.28584387  1  -0.34929  0.002923  1.799632  0.002  -0.337531  0.00241  2.014689  0.002  -0.349163  0.001717  2.01183  0.001  -0.133101  -0.33468  0.00309  2.009541  0.003
O  O58  1  0.67055709  0.88313595  0.21121750  1  -0.364363  -0.00062  1.749276  -0.001  -0.351975  -0.000321  1.953867  0.0  -0.364462  -0.000297  1.949629  0.0  -0.139983  -0.348931  -0.000336  1.949934  0.0
O  O59  1  0.82944015  0.61686346  0.71121659  1  -0.364436  -0.000624  1.749246  -0.001  -0.352033  -0.000323  1.953823  0.0  -0.364523  -0.000297  1.949587  0.0  -0.140016  -0.348979  -0.000336  1.949905  0.0
O  O60  1  0.32943395  0.11686296  0.78878234  1  -0.364438  -0.000637  1.749183  -0.001  -0.352067  -0.000319  1.953771  0.0  -0.364557  -0.000303  1.949534  0.0  -0.14003  -0.349022  -0.000336  1.949828  0.0
O  O61  1  0.17055864  0.38313544  0.28878209  1  -0.364433  -0.000631  1.749245  -0.001  -0.352049  -0.00032  1.953839  0.0  -0.364537  -0.000301  1.949604  0.0  -0.14001  -0.348991  -0.000337  1.949897  0.0
