# generated using pymatgen
data_Er2H11C11NO16
_symmetry_space_group_name_H-M   'P 1'
_cell_length_a   7.40576050
_cell_length_b   10.69267029
_cell_length_c   12.91652343
_cell_angle_alpha   95.51230211
_cell_angle_beta   103.33886397
_cell_angle_gamma   107.02484420
_symmetry_Int_Tables_number   1
_chemical_formula_structural   Er2H11C11NO16
_chemical_formula_sum   'Er4 H22 C22 N2 O32'
_cell_volume   936.78982415
_cell_formula_units_Z   2
loop_
 _symmetry_equiv_pos_site_id
 _symmetry_equiv_pos_as_xyz
  1  'x, y, z'
loop_
 _atom_site_type_symbol
 _atom_site_label
 _atom_site_symmetry_multiplicity
 _atom_site_fract_x
 _atom_site_fract_y
 _atom_site_fract_z
 _atom_site_occupancy
 _atom_site_pbe_bader_spin_density
 _atom_site_pbe_cm5_charge
 _atom_site_pbe_ddec_charge
 _atom_site_pbe_ddec_spin_density
 _atom_site_pbe_ddec_sum_bond_order
 _atom_site_pbe_magmom
Er  Er0  1  0.32879135  0.03831168  0.19103436  1  0  1.512702  2.054231  0  2.172281  0
Er  Er1  1  0.67120914  0.96169013  0.80897962  1  0  1.512703  2.054246  0  2.172097  0
Er  Er2  1  0.78224065  0.68144769  0.39994026  1  0  1.484342  1.978058  0  2.153418  0
Er  Er3  1  0.21775755  0.31855778  0.60005740  1  0  1.48432  1.978028  0  2.153464  0
H  H4  1  0.89032390  0.66399483  0.99107724  1  0  0.118449  0.133219  0  0.994801  0
H  H5  1  0.10967786  0.33598807  0.00892478  1  0  0.118444  0.133193  0  0.994707  0
H  H6  1  0.71452054  0.41627845  0.92387875  1  0  0.113839  0.125522  0  0.994259  0
H  H7  1  0.28547876  0.58371141  0.07612883  1  0  0.113821  0.125516  0  0.994263  0
H  H8  1  0.56411740  0.28051171  0.04911051  1  0  0.117295  0.116001  0  1.011778  0
H  H9  1  0.43587154  0.71948589  0.95089464  1  0  0.117285  0.115989  0  1.01178  0
H  H10  1  0.96881559  0.09657386  0.07928036  1  0  0.304071  0.40962  0  0.917653  0
H  H11  1  0.03118858  0.90343284  0.92072826  1  0  0.304106  0.409689  0  0.917573  0
H  H12  1  0.06500460  0.17976885  0.19600882  1  0  0.330114  0.419929  0  0.863813  0
H  H13  1  0.93499222  0.82023087  0.80399988  1  0  0.329968  0.419711  0  0.863743  0
H  H14  1  0.09923403  0.98583884  0.33761631  1  0  0.305725  0.405203  0  0.927263  0
H  H15  1  0.90076015  0.01415475  0.66238076  1  0  0.305702  0.40519  0  0.927268  0
H  H16  1  0.27718911  0.11344298  0.40954081  1  0  0.319793  0.424733  0  0.884145  0
H  H17  1  0.72280317  0.88654973  0.59046446  1  0  0.319782  0.424743  0  0.884108  0
H  H18  1  0.10321055  0.92964405  0.53268204  1  0  0.3084  0.407375  0  0.919521  0
H  H19  1  0.89680309  0.07035859  0.46731211  1  0  0.308418  0.407413  0  0.919461  0
H  H20  1  0.15241025  0.81008081  0.57427059  1  0  0.329204  0.42637  0  0.863883  0
H  H21  1  0.84759043  0.18991480  0.42572519  1  0  0.329206  0.426373  0  0.863907  0
H  H22  1  0.40733822  0.65239379  0.44344569  1  0  0.322746  0.415972  0  0.885406  0
H  H23  1  0.59266700  0.34760882  0.55655273  1  0  0.322758  0.415984  0  0.885397  0
H  H24  1  0.51311310  0.62624719  0.55501460  1  0  0.309218  0.417143  0  0.903364  0
H  H25  1  0.48687755  0.37376319  0.44498701  1  0  0.309206  0.417144  0  0.903363  0
C  C26  1  0.83495419  0.65233479  0.14700571  1  0  0.126586  0.119279  0  3.951121  0
C  C27  1  0.16504458  0.34765996  0.85299981  1  0  0.126521  0.119186  0  3.951151  0
C  C28  1  0.82429264  0.59887930  0.04178232  1  0  -0.056092  -0.099439  0  3.870091  0
C  C29  1  0.17571181  0.40110961  0.95822358  1  0  -0.05607  -0.09929  0  3.869964  0
C  C30  1  0.72699001  0.46294907  0.00527900  1  0  -0.056778  -0.024311  0  3.908879  0
C  C31  1  0.27301768  0.53704086  0.99472663  1  0  -0.056708  -0.024271  0  3.908847  0
C  C32  1  0.64249455  0.38647727  0.07426690  1  0  -0.059871  -0.1042  0  3.89157  0
C  C33  1  0.35749675  0.61351936  0.92573773  1  0  -0.05994  -0.104275  0  3.89153  0
C  C34  1  0.65815707  0.44863669  0.17770716  1  0  0.124671  0.109336  0  3.967913  0
C  C35  1  0.34182117  0.55136171  0.82229427  1  0  0.124747  0.109359  0  3.967827  0
C  C36  1  0.94253107  0.79523113  0.19821208  1  0  0.239219  0.60737  0  4.154432  0
C  C37  1  0.05746674  0.20476748  0.80178815  1  0  0.239144  0.60725  0  4.154386  0
C  C38  1  0.57158083  0.37877765  0.25937600  1  0  0.251325  0.638355  0  4.124047  0
C  C39  1  0.42839968  0.62122569  0.74062374  1  0  0.251335  0.638309  0  4.124198  0
C  C40  1  0.60369480  0.92419590  0.35362724  1  0  0.223097  0.504098  0  4.192155  0
C  C41  1  0.39629560  0.07580157  0.64636803  1  0  0.222995  0.503942  0  4.192271  0
C  C42  1  0.47703560  0.80301393  0.26415564  1  0  0.213849  0.506802  0  4.239748  0
C  C43  1  0.52294462  0.19697662  0.73584629  1  0  0.213776  0.506809  0  4.239656  0
C  C44  1  0.39539342  0.97770671  0.96095317  1  0  0.219016  0.489952  0  4.25291  0
C  C45  1  0.60462942  0.02229824  0.03905633  1  0  0.218777  0.489679  0  4.25296  0
C  C46  1  0.94257319  0.49369696  0.54364395  1  0  0.199264  0.479593  0  4.276317  0
C  C47  1  0.05744465  0.50631711  0.45632059  1  0  0.199524  0.479877  0  4.276463  0
N  N48  1  0.75373509  0.57842833  0.21263741  1  0  -0.37072  -0.345447  0  3.572271  0
N  N49  1  0.24625155  0.42157015  0.78736284  1  0  -0.37067  -0.34539  0  3.572195  0
O  O50  1  0.02148290  0.87492864  0.14331771  1  0  -0.375254  -0.609903  0  2.304414  0
O  O51  1  0.97851039  0.12506292  0.85667679  1  0  -0.375219  -0.609844  0  2.304368  0
O  O52  1  0.94904481  0.82611813  0.29785299  1  0  -0.359606  -0.637169  0  2.327218  0
O  O53  1  0.05095527  0.17388544  0.70214712  1  0  -0.359585  -0.637132  0  2.327182  0
O  O54  1  0.58818266  0.45143540  0.34764989  1  0  -0.348919  -0.621607  0  2.300761  0
O  O55  1  0.41181129  0.54857303  0.65235049  1  0  -0.348975  -0.621655  0  2.300853  0
O  O56  1  0.49060292  0.25463569  0.23758433  1  0  -0.409291  -0.645192  0  2.35083  0
O  O57  1  0.50938415  0.74536668  0.76241160  1  0  -0.409257  -0.645117  0  2.350872  0
O  O58  1  0.56713476  0.03176350  0.34549325  1  0  -0.365441  -0.599701  0  2.30589  0
O  O59  1  0.43287230  0.96824017  0.65450859  1  0  -0.365395  -0.599629  0  2.30595  0
O  O60  1  0.73853845  0.90750034  0.42668088  1  0  -0.331395  -0.574109  0  2.31639  0
O  O61  1  0.26144932  0.09248814  0.57330955  1  0  -0.331313  -0.57402  0  2.316442  0
O  O62  1  0.50118346  0.69244682  0.27520215  1  0  -0.366646  -0.59422  0  2.319848  0
O  O63  1  0.49880746  0.30754577  0.72479674  1  0  -0.366544  -0.594137  0  2.319772  0
O  O64  1  0.36021131  0.82587649  0.18575248  1  0  -0.375374  -0.606395  0  2.295896  0
O  O65  1  0.63976711  0.17411007  0.81424816  1  0  -0.375405  -0.606468  0  2.29594  0
O  O66  1  0.37555034  0.93713542  0.86325400  1  0  -0.350119  -0.579683  0  2.293199  0
O  O67  1  0.62443661  0.06287297  0.13674852  1  0  -0.350056  -0.579641  0  2.293357  0
O  O68  1  0.25928435  0.98586027  0.00386520  1  0  -0.361317  -0.588806  0  2.335898  0
O  O69  1  0.74075589  0.01416177  0.99615249  1  0  -0.361228  -0.588704  0  2.335843  0
O  O70  1  0.84345035  0.57113523  0.54927246  1  0  -0.371279  -0.578349  0  2.277126  0
O  O71  1  0.15657898  0.42888032  0.45071619  1  0  -0.371281  -0.578312  0  2.277124  0
O  O72  1  0.04391594  0.59452219  0.39870029  1  0  -0.37295  -0.606505  0  2.292772  0
O  O73  1  0.95611211  0.40549303  0.60126804  1  0  -0.372886  -0.606317  0  2.292666  0
O  O74  1  0.09773775  0.15218879  0.13037598  1  0  -0.622939  -0.829206  0  2.035523  0
O  O75  1  0.90227627  0.84781217  0.86963669  1  0  -0.622812  -0.829049  0  2.035215  0
O  O76  1  0.20109023  0.07050241  0.33559472  1  0  -0.649281  -0.874833  0  2.116674  0
O  O77  1  0.79891277  0.92948943  0.66441041  1  0  -0.6492  -0.874788  0  2.116534  0
O  O78  1  0.04353046  0.83297044  0.53156212  1  0  -0.64977  -0.840826  0  2.134817  0
O  O79  1  0.95647618  0.16703213  0.46843262  1  0  -0.649757  -0.840825  0  2.134815  0
O  O80  1  0.53689972  0.67435650  0.49439381  1  0  -0.620069  -0.828509  0  2.069161  0
O  O81  1  0.46310120  0.32565203  0.50560830  1  0  -0.620055  -0.828518  0  2.069188  0
