# generated using pymatgen
data_ZnSiH16C24(N2F3)2
_symmetry_space_group_name_H-M   'P 1'
_cell_length_a   7.77626944
_cell_length_b   13.99982021
_cell_length_c   13.99996450
_cell_angle_alpha   90.00023534
_cell_angle_beta   90.00074588
_cell_angle_gamma   89.99978957
_symmetry_Int_Tables_number   1
_chemical_formula_structural   ZnSiH16C24(N2F3)2
_chemical_formula_sum   'Zn1 Si1 H16 C24 N4 F6'
_cell_volume   1524.12537157
_cell_formula_units_Z   1
loop_
 _symmetry_equiv_pos_site_id
 _symmetry_equiv_pos_as_xyz
  1  'x, y, z'
loop_
 _atom_site_type_symbol
 _atom_site_label
 _atom_site_symmetry_multiplicity
 _atom_site_fract_x
 _atom_site_fract_y
 _atom_site_fract_z
 _atom_site_occupancy
 _atom_site_pbe_bader_charge
 _atom_site_pbe_bader_spin_density
 _atom_site_pbe_cm5_charge
 _atom_site_pbe_ddec_charge
 _atom_site_pbe_ddec_spin_density
 _atom_site_pbe_ddec_sum_bond_order
 _atom_site_pbe_magmom
Zn  Zn0  1  0.50003425  0.49999412  0.49999985  1  1.365007  0  0.704618  0.736079  0  2.329935  0
Si  Si1  1  0.00001814  0.49999959  0.49999872  1  3.167627  0  0.259686  1.71523  0  3.95064  0
H  H2  1  0.23276027  0.66224788  0.49995848  1  0.181453  0  0.11796  0.102958  0  1.041937  0
H  H3  1  0.22146117  0.83943945  0.49999309  1  0.093267  0  0.115295  0.12427  0  0.98168  0
H  H4  1  0.77851363  0.83945750  0.49999157  1  0.093635  0  0.115137  0.124063  0  0.981803  0
H  H5  1  0.76723764  0.66226166  0.49994830  1  0.181496  0  0.118016  0.102996  0  1.041953  0
H  H6  1  0.22148415  0.16056502  0.49995884  1  0.093764  0  0.115165  0.124161  0  0.981529  0
H  H7  1  0.23282315  0.33775586  0.49998425  1  0.181922  0  0.118071  0.103188  0  1.041953  0
H  H8  1  0.76729923  0.33770964  0.50019121  1  0.181178  0  0.117963  0.102987  0  1.041798  0
H  H9  1  0.77853532  0.16051449  0.50014803  1  0.093361  0  0.115161  0.124004  0  0.98161  0
H  H10  1  0.23277301  0.50004756  0.66225070  1  0.181549  0  0.118024  0.103016  0  1.04189  0
H  H11  1  0.22146372  0.50000722  0.83944254  1  0.093229  0  0.115267  0.124224  0  0.981726  0
H  H12  1  0.77851617  0.50001026  0.83947244  1  0.093498  0  0.115101  0.123992  0  0.981865  0
H  H13  1  0.76724652  0.50005563  0.66227552  1  0.181551  0  0.118054  0.103011  0  1.042005  0
H  H14  1  0.22147389  0.50004583  0.16056582  1  0.093183  0  0.115196  0.124185  0  0.981602  0
H  H15  1  0.23281813  0.50002261  0.33775488  1  0.181855  0  0.118073  0.103113  0  1.042078  0
H  H16  1  0.76728264  0.49981424  0.33771470  1  0.181228  0  0.118006  0.103054  0  1.041805  0
H  H17  1  0.77851992  0.49985673  0.16052072  1  0.093719  0  0.115145  0.123989  0  0.981693  0
C  C18  1  0.35090804  0.70397616  0.49995472  1  0.505015  0  0.052324  0.10179  0  3.916575  0
C  C19  1  0.34522887  0.80309673  0.49997633  1  -0.004099  0  -0.07298  -0.166025  0  3.90421  0
C  C20  1  0.49997898  0.85536225  0.49997843  1  0.017362  0  0.017498  0.167925  0  4.120565  0
C  C21  1  0.65475261  0.80310358  0.49997461  1  -0.003647  0  -0.072692  -0.165553  0  3.904  0
C  C22  1  0.64909472  0.70398374  0.49995081  1  0.505044  0  0.052167  0.101535  0  3.916912  0
C  C23  1  0.49997605  0.95643426  0.49997650  1  -0.108051  0  -0.031791  -0.094053  0  4.089755  0
C  C24  1  0.49998443  0.04355826  0.49999962  1  -0.34355  0  -0.031987  -0.093849  0  4.089478  0
C  C25  1  0.50000851  0.14463098  0.50004340  1  0.017032  0  0.017348  0.167539  0  4.120447  0
C  C26  1  0.34525674  0.19690680  0.50001508  1  -0.003451  0  -0.0727  -0.1657  0  3.90389  0
C  C27  1  0.35095064  0.29602521  0.50004245  1  0.504977  0  0.052155  0.101583  0  3.916756  0
C  C28  1  0.64914889  0.29599850  0.50017355  1  0.506034  0  0.052332  0.101815  0  3.91671  0
C  C29  1  0.65477791  0.19688008  0.50013122  1  -0.004659  0  -0.072693  -0.165528  0  3.903922  0
C  C30  1  0.35091240  0.50005253  0.70398196  1  0.505067  0  0.052278  0.101756  0  3.916646  0
C  C31  1  0.34522958  0.50002703  0.80310076  1  -0.004091  0  -0.072911  -0.16591  0  3.904278  0
C  C32  1  0.49998048  0.50001699  0.85536789  1  0.017387  0  0.017358  0.167594  0  4.120547  0
C  C33  1  0.65475590  0.50002888  0.80311261  1  -0.003913  0  -0.072656  -0.165416  0  3.904053  0
C  C34  1  0.64909908  0.50005654  0.70399448  1  0.505131  0  0.05214  0.101452  0  3.917199  0
C  C35  1  0.49996622  0.50000148  0.95643957  1  -0.343729  0  -0.031844  -0.093898  0  4.08909  0
C  C36  1  0.49996983  0.49998675  0.04356226  1  -0.107959  0  -0.031778  -0.093788  0  4.08912  0
C  C37  1  0.49999929  0.49995910  0.14463252  1  0.017591  0  0.017363  0.167607  0  4.120655  0
C  C38  1  0.34524703  0.49999364  0.19690708  1  -0.003639  0  -0.072772  -0.165766  0  3.904066  0
C  C39  1  0.35094113  0.49996527  0.29602449  1  0.504918  0  0.052231  0.101719  0  3.916883  0
C  C40  1  0.64913424  0.49983355  0.29600273  1  0.506017  0  0.052413  0.10185  0  3.91673  0
C  C41  1  0.65476819  0.49987692  0.19688393  1  -0.004723  0  -0.072782  -0.165639  0  3.90398  0
N  N42  1  0.50000284  0.65472253  0.49994588  1  -1.240623  0  -0.313686  -0.226061  0  3.499179  0
N  N43  1  0.50005924  0.34526713  0.50010524  1  -1.241368  0  -0.31373  -0.226324  0  3.499131  0
N  N44  1  0.50001160  0.50005944  0.65473167  1  -1.240374  0  -0.313731  -0.226036  0  3.499219  0
N  N45  1  0.50004790  0.49990094  0.34526945  1  -1.241399  0  -0.313823  -0.22638  0  3.499155  0
F  F46  1  0.22663452  0.49999509  0.50000098  1  -0.825778  0  -0.193259  -0.494884  0  1.342874  0
F  F47  1  0.77340570  0.49999743  0.49999585  1  -0.826205  0  -0.193172  -0.49469  0  1.342669  0
F  F48  1  0.00001813  0.58589266  0.41409082  1  -0.823215  0  -0.24165  -0.539285  0  1.086539  0
F  F49  1  0.00001558  0.41411009  0.58591377  1  -0.823195  0  -0.241638  -0.539316  0  1.086613  0
F  F50  1  0.00001754  0.58590873  0.58589269  1  -0.823198  0  -0.241659  -0.539288  0  1.086563  0
F  F51  1  0.00002517  0.41408545  0.41411047  1  -0.823229  0  -0.241614  -0.539296  0  1.08659  0
