# generated using pymatgen
data_GdCoH12C22N5O8
_symmetry_space_group_name_H-M   'P 1'
_cell_length_a   10.52605862
_cell_length_b   12.45495724
_cell_length_c   18.18328181
_cell_angle_alpha   89.80974535
_cell_angle_beta   89.70137997
_cell_angle_gamma   90.66180731
_symmetry_Int_Tables_number   1
_chemical_formula_structural   GdCoH12C22N5O8
_chemical_formula_sum   'Gd4 Co4 H48 C88 N20 O32'
_cell_volume   2383.65249695
_cell_formula_units_Z   4
loop_
 _symmetry_equiv_pos_site_id
 _symmetry_equiv_pos_as_xyz
  1  'x, y, z'
loop_
 _atom_site_type_symbol
 _atom_site_label
 _atom_site_symmetry_multiplicity
 _atom_site_fract_x
 _atom_site_fract_y
 _atom_site_fract_z
 _atom_site_occupancy
 _atom_site_pbe_bader_charge
 _atom_site_pbe_bader_spin_density
 _atom_site_pbe_cm5_charge
 _atom_site_pbe_ddec_charge
 _atom_site_pbe_ddec_spin_density
 _atom_site_pbe_ddec_sum_bond_order
 _atom_site_pbe_magmom
Gd  Gd0  1  0.92620948  0.35425105  0.00851587  1  2.168264  0.002903  1.496002  1.993794  0.002565  2.271979  0.004
Gd  Gd1  1  0.56962274  0.85406783  0.48960035  1  2.169118  0.003076  1.495771  1.989729  0.002669  2.280178  0.005
Gd  Gd2  1  0.06503558  0.64772252  0.99223892  1  2.16728  0.00284  1.4964  1.988343  0.002471  2.281335  0.004
Gd  Gd3  1  0.43628647  0.14553884  0.50745702  1  2.169579  0.002571  1.494509  1.988242  0.002233  2.275037  0.004
Co  Co4  1  0.74069764  0.34642747  0.77180975  1  1.237149  2.548999  0.681858  0.741917  2.760257  2.610275  2.527
Co  Co5  1  0.76048815  0.84653259  0.73096035  1  1.087328  1.013051  0.674109  0.546387  1.087665  3.016969  1.0
Co  Co6  1  0.25716738  0.65468869  0.22991077  1  1.099291  0.959351  0.662831  0.551263  1.035523  2.980495  0.95
Co  Co7  1  0.24031130  0.15439215  0.26871987  1  1.088673  0.971293  0.666097  0.55008  1.04697  2.981273  0.961
H  H8  1  0.49630138  0.48351929  0.71926089  1  0.100504  -0.00014  0.112971  0.112423  -0.000255  0.998581  0.0
H  H9  1  0.01231704  0.98149863  0.78166563  1  0.099744  -0.000105  0.113826  0.11138  -0.00019  1.001537  0.0
H  H10  1  0.50652874  0.52280796  0.28026742  1  0.083692  -0.000114  0.113132  0.111146  -0.000175  1.006066  0.0
H  H11  1  0.99190022  0.01841164  0.21874367  1  0.122055  -0.00012  0.113651  0.111457  -0.000187  1.003883  0.0
H  H12  1  0.33859149  0.49274038  0.61654468  1  0.097715  -3.3e-05  0.110968  0.117007  -2.9e-05  0.982887  0.0
H  H13  1  0.16795865  0.00169095  0.88459472  1  0.06493  -2.3e-05  0.110336  0.116097  -2.1e-05  0.982837  0.0
H  H14  1  0.66587756  0.50837457  0.38148441  1  0.083439  -2.8e-05  0.111207  0.117322  -2.5e-05  0.983209  0.0
H  H15  1  0.83469325  0.00429439  0.11612836  1  0.077732  -2.8e-05  0.11104  0.11677  -2.6e-05  0.981745  0.0
H  H16  1  0.38106157  0.62375230  0.51273058  1  0.116885  -1e-05  0.122725  0.093832  -2.6e-05  0.988574  0.0
H  H17  1  0.11846852  0.13218168  0.98642466  1  0.120601  -6e-06  0.121502  0.092442  -3e-05  0.994037  0.0
H  H18  1  0.62391866  0.37456537  0.48357209  1  0.121093  -6e-06  0.123076  0.093391  -2.8e-05  0.989019  0.0
H  H19  1  0.87859534  0.87371585  0.01325860  1  0.109732  -2e-06  0.122731  0.094187  -1.4e-05  0.99128  0.0
H  H20  1  0.73520743  0.70140938  0.59467241  1  0.122928  -3.8e-05  0.125657  0.09997  -7.8e-05  1.016784  0.0
H  H21  1  0.76440124  0.19317722  0.90064602  1  0.121281  -8e-06  0.12291  0.094022  -9e-06  1.020154  0.0
H  H22  1  0.26840344  0.30070960  0.40208234  1  0.134356  -0.000156  0.125036  0.099322  -0.000206  1.017017  0.0
H  H23  1  0.23220738  0.80436551  0.09658821  1  0.128538  -0.000174  0.125453  0.098988  -0.00023  1.01602  0.0
H  H24  1  0.69414927  0.26794991  0.23904331  1  0.130452  -8.5e-05  0.112926  0.12292  -2.6e-05  1.008027  0.0
H  H25  1  0.80471309  0.76714001  0.25845008  1  0.146238  -8.5e-05  0.111746  0.12127  -2.9e-05  1.011113  0.0
H  H26  1  0.30204378  0.73262140  0.75939476  1  0.121399  2.7e-05  0.111674  0.121197  4.3e-05  1.009955  0.0
H  H27  1  0.21040256  0.22875595  0.73864463  1  0.130176  0.000946  0.109754  0.118724  0.000432  1.013255  0.0
H  H28  1  0.50270640  0.18315833  0.03892487  1  0.110664  -0.000132  0.113526  0.126714  -6.5e-05  0.992183  0.0
H  H29  1  0.99430452  0.68695207  0.45971795  1  0.071757  -0.000138  0.114326  0.128105  -7.4e-05  0.990183  0.0
H  H30  1  0.49314320  0.81394328  0.96032417  1  0.128044  -7.2e-05  0.113339  0.126685  -2.6e-05  0.991194  0.0
H  H31  1  0.01305540  0.30636190  0.53946496  1  0.121392  0.000944  0.112531  0.125528  0.00042  0.992818  0.0
H  H32  1  0.49834729  0.20978522  0.30865080  1  0.105582  -9.4e-05  0.126125  0.102636  -0.000193  1.031519  0.0
H  H33  1  0.99870952  0.70797861  0.18972550  1  0.143601  -0.000104  0.125255  0.101924  -0.000205  1.032508  0.0
H  H34  1  0.49782227  0.79213021  0.69040706  1  0.159327  0.000185  0.125269  0.102549  -5.7e-05  1.02737  0.0
H  H35  1  0.01965861  0.29310495  0.80999717  1  0.139141  0.001459  0.120808  0.096003  0.000269  1.022254  0.001
H  H36  1  0.31260758  0.12731122  0.11612250  1  0.147415  -0.000296  0.125946  0.106629  -0.00037  1.006831  0.0
H  H37  1  0.18250141  0.62968264  0.38342149  1  0.171557  -0.000282  0.126239  0.106584  -0.000359  1.004258  0.0
H  H38  1  0.68284023  0.87114213  0.88382923  1  0.1591  -0.000133  0.125323  0.105958  -0.000281  1.00818  0.0
H  H39  1  0.82860325  0.36685902  0.61803959  1  0.114381  0.001595  0.120496  0.097147  0.000501  0.999622  0.001
H  H40  1  0.43209579  0.53814924  0.94572651  1  0.128771  0.00066  0.114521  0.125372  0.000225  1.012884  0.0
H  H41  1  0.06236403  0.03593013  0.55528857  1  0.125984  2.7e-05  0.113378  0.124335  4.6e-05  1.013355  0.0
H  H42  1  0.55384757  0.46317588  0.05803102  1  0.114902  -6.8e-05  0.113283  0.124088  -2.2e-05  1.014443  0.0
H  H43  1  0.94127085  0.96466966  0.44328465  1  0.103535  -5.9e-05  0.1151  0.126422  -8e-06  1.011426  0.0
H  H44  1  0.28863852  0.23343727  0.87071598  1  0.088253  0.00075  0.110364  0.116403  0.00028  1.014571  0.0
H  H45  1  0.19821128  0.73473535  0.63714137  1  0.085982  2.4e-05  0.109721  0.117014  5.7e-05  1.008397  0.0
H  H46  1  0.69852121  0.76436818  0.13823270  1  0.100597  -5.1e-05  0.110595  0.117485  7e-06  1.009552  0.0
H  H47  1  0.80424185  0.26520747  0.36078426  1  0.10801  -5.7e-05  0.110699  0.118187  6e-06  1.006701  0.0
H  H48  1  0.63912247  0.49607255  0.88463202  1  0.102583  0.001287  0.119639  0.086303  0.000235  1.026994  0.001
H  H49  1  0.86034423  0.00117174  0.62181700  1  0.104275  8e-06  0.121374  0.089871  -0.000265  1.031462  0.0
H  H50  1  0.35122485  0.50036799  0.12194992  1  0.121472  -0.000139  0.121514  0.089325  -0.00029  1.035698  0.0
H  H51  1  0.14423151  0.00064349  0.37764590  1  0.134168  -0.000115  0.122052  0.090642  -0.000286  1.033065  0.0
H  H52  1  0.49908859  0.20607106  0.80655085  1  0.139136  0.001343  0.118256  0.089898  0.000333  1.001364  0.001
H  H53  1  0.99509138  0.71429984  0.70699526  1  0.10475  -2.7e-05  0.118338  0.09005  -0.000264  1.021494  0.0
H  H54  1  0.49453036  0.78647600  0.20659700  1  0.112489  -0.000232  0.119057  0.091278  -0.000372  1.020462  0.0
H  H55  1  0.00775224  0.28618047  0.29124997  1  0.116373  -0.000225  0.118846  0.090395  -0.000374  1.025365  0.0
C  C56  1  0.88860884  0.48218839  0.87376073  1  1.550017  -0.003354  0.221273  0.600691  -0.004103  4.185786  -0.002
C  C57  1  0.60873468  0.97678886  0.62301456  1  1.543092  -0.001743  0.215625  0.599287  -0.002213  4.21124  -0.001
C  C58  1  0.10364314  0.52136479  0.12585168  1  1.557243  -0.000618  0.218416  0.59822  -0.001019  4.197265  0.0
C  C59  1  0.39381903  0.02163485  0.37373947  1  1.534864  -0.00069  0.21777  0.597332  -0.001064  4.205078  0.0
C  C60  1  0.83875210  0.55485047  0.81859905  1  0.389381  -0.002943  0.076387  -0.004207  -0.004071  4.012313  -0.002
C  C61  1  0.66031254  0.04557901  0.67996534  1  0.388858  -0.004575  0.07581  -0.013382  -0.005224  3.989051  -0.003
C  C62  1  0.15608011  0.45107469  0.18181871  1  0.363973  -0.003153  0.076392  -0.012441  -0.003769  3.993172  -0.003
C  C63  1  0.34097054  0.95127299  0.31777548  1  0.389839  -0.003163  0.077522  -0.009976  -0.003782  3.990791  -0.003
C  C64  1  0.84661629  0.66594226  0.80877135  1  0.401176  -0.001135  0.082851  -0.004799  -0.002005  3.963486  -0.001
C  C65  1  0.65466721  0.15613300  0.69243321  1  0.425145  -0.002691  0.082159  0.001328  -0.00405  3.989141  -0.002
C  C66  1  0.15216647  0.33976966  0.19178810  1  0.421376  -0.002659  0.083203  -0.003855  -0.003713  3.971658  -0.002
C  C67  1  0.34621764  0.84036132  0.30672296  1  0.433925  -0.002674  0.083318  -0.00444  -0.003742  3.967829  -0.002
C  C68  1  0.88948967  0.75629262  0.85505310  1  1.625168  -0.002719  0.224643  0.596414  -0.003168  4.217807  -0.002
C  C69  1  0.61273421  0.24943111  0.64875480  1  1.620684  -0.003476  0.227552  0.604799  -0.004022  4.18993  -0.003
C  C70  1  0.10801151  0.24865869  0.14606206  1  1.617569  -0.002022  0.224941  0.595317  -0.002325  4.210393  -0.002
C  C71  1  0.38891319  0.74892060  0.35222531  1  1.604225  -0.001933  0.225258  0.596972  -0.002269  4.211331  -0.002
C  C72  1  0.72273351  0.59688470  0.72402418  1  1.002979  -0.004029  0.215017  0.302242  -0.004851  3.970114  -0.002
C  C73  1  0.77900746  0.08431666  0.77487606  1  0.918855  -0.005703  0.214632  0.299492  -0.006703  3.956985  -0.004
C  C74  1  0.27703089  0.41114169  0.27525775  1  0.949573  -0.00455  0.216862  0.293078  -0.005352  3.937388  -0.004
C  C75  1  0.22125510  0.91098510  0.22377995  1  0.925012  -0.004569  0.215519  0.291613  -0.005374  3.944945  -0.004
C  C76  1  0.62888420  0.59226331  0.66512042  1  -0.050366  0.001162  -0.002051  -0.029627  0.000142  4.008583  0.001
C  C77  1  0.87404447  0.08449730  0.83343048  1  0.034549  0.001151  -0.000893  -0.02382  -1.6e-05  3.99222  0.001
C  C78  1  0.37297281  0.41367074  0.33332148  1  0.047956  0.000948  -0.002353  -0.027994  0.000208  4.000194  0.001
C  C79  1  0.12617081  0.91331111  0.16548307  1  0.099588  0.00092  -0.002084  -0.027343  0.000182  4.006897  0.001
C  C80  1  0.51504061  0.53301962  0.67099919  1  0.017511  -0.001417  -0.054  -0.025217  -0.001655  3.914624  -0.001
C  C81  1  0.99066229  0.03141490  0.82886974  1  0.032441  -0.0017  -0.052566  -0.018446  -0.001866  3.912367  -0.001
C  C82  1  0.48777753  0.47168849  0.32766926  1  -0.038966  -0.00103  -0.052816  -0.020415  -0.001189  3.909687  -0.001
C  C83  1  0.01142052  0.96907977  0.17094371  1  -0.060741  -0.001099  -0.052913  -0.020727  -0.00125  3.913202  -0.001
C  C84  1  0.42644115  0.53994270  0.61463570  1  -0.027024  0.000292  -0.082615  -0.13425  0.000162  3.97042  0.0
C  C85  1  0.07832263  0.04468626  0.88530743  1  0.01071  9.2e-05  -0.083954  -0.138129  6e-05  3.975836  0.0
C  C86  1  0.57763687  0.46170322  0.38315939  1  -0.015467  0.000132  -0.082891  -0.135256  9.1e-05  3.970671  0.0
C  C87  1  0.92276037  0.95911185  0.11472344  1  -0.00405  0.000127  -0.081983  -0.134156  9.1e-05  3.969433  0.0
C  C88  1  0.44982854  0.61055623  0.55636644  1  0.497375  -0.001163  0.056973  0.11406  -0.001294  3.967495  -0.001
C  C89  1  0.05138172  0.11539988  0.94234943  1  0.460914  -0.001427  0.054358  0.112664  -0.001579  3.973643  -0.001
C  C90  1  0.55473496  0.38930959  0.44038621  1  0.499245  -0.000774  0.056566  0.11291  -0.000874  3.971385  -0.001
C  C91  1  0.94674182  0.88865264  0.05708668  1  0.484075  -0.000815  0.056996  0.115704  -0.000915  3.965633  -0.001
C  C92  1  0.64712781  0.65611800  0.60267347  1  0.50763  -0.001517  0.054737  0.067823  -0.00166  3.947862  -0.001
C  C93  1  0.85384555  0.15100468  0.89408021  1  0.476331  -0.002031  0.05395  0.06334  -0.002176  3.950466  -0.001
C  C94  1  0.35628946  0.34644249  0.39440817  1  0.474681  -0.001392  0.055008  0.064661  -0.001493  3.947476  -0.001
C  C95  1  0.14416162  0.84820406  0.10400482  1  0.479605  -0.001402  0.053536  0.062708  -0.001513  3.951322  -0.001
C  C96  1  0.72325384  0.27212501  0.09027031  1  1.552566  -0.000764  0.18605  0.557038  -0.0009  4.26069  0.0
C  C97  1  0.77464068  0.77415284  0.40753654  1  1.573019  -0.00065  0.187282  0.555049  -0.000756  4.265003  0.0
C  C98  1  0.27140466  0.72648001  0.90875747  1  1.540204  -0.00062  0.186477  0.555692  -0.000742  4.261983  0.0
C  C99  1  0.23367426  0.22140645  0.59000865  1  1.559143  -0.000671  0.186328  0.556616  -0.000817  4.261115  0.0
C  C100  1  0.61146351  0.23141573  0.13366111  1  -0.042899  -0.008379  0.002447  0.018444  -0.008821  3.955404  -0.005
C  C101  1  0.88597050  0.73307971  0.36448780  1  -0.017266  -0.007662  0.003234  0.020303  -0.008059  3.946487  -0.005
C  C102  1  0.38394562  0.76709189  0.86531372  1  -0.034076  -0.007393  0.002785  0.019218  -0.0078  3.947256  -0.005
C  C103  1  0.12403323  0.26205667  0.63406361  1  -0.079643  -0.008386  0.002671  0.020771  -0.008892  3.956736  -0.005
C  C104  1  0.61099837  0.23704237  0.21034256  1  0.00319  0.000744  -0.073306  -0.131031  -6.9e-05  3.94105  0.001
C  C105  1  0.88695652  0.73693817  0.28770498  1  -0.078937  0.000661  -0.074394  -0.13267  -8.2e-05  3.939898  0.001
C  C106  1  0.38506679  0.76286409  0.78854102  1  -0.048298  0.001208  -0.07352  -0.1316  0.000287  3.936096  0.001
C  C107  1  0.12685912  0.25927899  0.71081250  1  -0.047518  0.00466  -0.076632  -0.137515  0.002179  3.941386  0.004
C  C108  1  0.50415285  0.18929678  0.09866170  1  -0.012039  0.000892  -0.076312  -0.137945  -1.3e-05  3.951033  0.001
C  C109  1  0.99259456  0.69188065  0.39988573  1  0.093463  0.000818  -0.075796  -0.13837  -4e-05  3.946588  0.001
C  C110  1  0.49150575  0.80861902  0.90051835  1  -0.021926  0.00106  -0.076912  -0.139024  0.000184  3.950337  0.001
C  C111  1  0.01663041  0.30272776  0.59931386  1  -0.002205  0.004426  -0.078008  -0.141  0.001993  3.949047  0.004
C  C112  1  0.50299100  0.20546567  0.24903071  1  0.461566  -0.006413  0.045311  0.071259  -0.006589  3.901831  -0.004
C  C113  1  0.99429318  0.70475338  0.24941187  1  0.408472  -0.005943  0.045295  0.071611  -0.00607  3.899434  -0.004
C  C114  1  0.49335747  0.79529665  0.75011468  1  0.430768  -0.005218  0.045929  0.07113  -0.005215  3.899049  -0.003
C  C115  1  0.02167220  0.29419617  0.75008957  1  0.468314  -0.004797  0.045995  0.086382  -0.005611  3.928634  -0.003
C  C116  1  0.39943452  0.15849990  0.14067237  1  0.420525  -0.007446  0.043041  0.068953  -0.008171  3.910519  -0.005
C  C117  1  0.09658612  0.66028751  0.35828804  1  0.35148  -0.006977  0.043602  0.070527  -0.00763  3.906713  -0.004
C  C118  1  0.59635674  0.84013621  0.85874243  1  0.438669  -0.006462  0.042334  0.067104  -0.007177  3.911272  -0.004
C  C119  1  0.91535821  0.33607058  0.64237570  1  0.417107  -0.004812  0.04133  0.079837  -0.005581  3.942558  -0.003
C  C120  1  0.21968714  0.41602665  0.94802389  1  1.616667  7.5e-05  0.231053  0.627709  -7.6e-05  4.158158  0.0
C  C121  1  0.27313586  0.91308240  0.55240158  1  1.599566  -0.001136  0.226633  0.622697  -0.001291  4.160912  0.0
C  C122  1  0.76831278  0.58513299  0.05521513  1  1.617537  -0.001066  0.227974  0.626174  -0.001229  4.158713  0.0
C  C123  1  0.73071873  0.08685659  0.44524998  1  1.6213  -0.001124  0.229063  0.627389  -0.001283  4.161778  0.0
C  C124  1  0.34486974  0.38913927  0.91209441  1  0.00383  0.00525  0.008623  0.021303  0.002654  3.916643  0.003
C  C125  1  0.14828921  0.88880877  0.59132934  1  -0.037791  -0.011929  0.003158  0.013421  -0.0126  3.916547  -0.007
C  C126  1  0.64393082  0.61023416  0.09339546  1  -0.067043  -0.011748  0.003573  0.012197  -0.012363  3.917754  -0.007
C  C127  1  0.85533669  0.11154801  0.40676403  1  -0.013905  -0.011847  0.003175  0.0115  -0.012488  3.922414  -0.007
C  C128  1  0.44501884  0.46334693  0.91598661  1  -0.02863  0.000607  -0.073344  -0.134248  -0.000186  3.93285  0.001
C  C129  1  0.04976279  0.96297518  0.58776171  1  0.014453  0.001691  -0.075166  -0.13607  0.000374  3.944165  0.002
C  C130  1  0.54297436  0.53658995  0.08962759  1  0.044962  0.001455  -0.076388  -0.136594  0.000221  3.948042  0.001
C  C131  1  0.95402968  0.03762456  0.41081895  1  -0.034785  0.001399  -0.074413  -0.133547  0.000226  3.941333  0.001
C  C132  1  0.36450116  0.29354422  0.87377956  1  -0.141101  0.000974  -0.077839  -0.144243  0.000107  3.944434  0.001
C  C133  1  0.12578256  0.79634455  0.63357529  1  -0.014167  0.002108  -0.079401  -0.144521  0.000608  3.960391  0.002
C  C134  1  0.62391346  0.70320299  0.13467443  1  0.0155  0.001958  -0.078719  -0.142366  0.000505  3.953773  0.002
C  C135  1  0.87720075  0.20405959  0.36456634  1  -0.054421  0.001935  -0.07863  -0.142992  0.000508  3.9607  0.002
C  C136  1  0.55917208  0.44032578  0.88152153  1  0.508669  0.00533  0.054006  0.1039  0.002668  3.929823  0.003
C  C137  1  0.93714132  0.94421106  0.62574441  1  0.433  -0.008001  0.047006  0.087977  -0.008342  3.901859  -0.005
C  C138  1  0.43004549  0.55665975  0.12624782  1  0.401709  -0.008252  0.046802  0.087411  -0.008612  3.900576  -0.005
C  C139  1  0.06686590  0.05691284  0.37334527  1  0.452708  -0.008364  0.04776  0.088224  -0.008782  3.900662  -0.005
C  C140  1  0.48094366  0.27785109  0.83895115  1  0.508947  0.004646  0.050084  0.0921  0.002153  3.93517  0.003
C  C141  1  0.01178511  0.78417761  0.67211108  1  0.418378  -0.008989  0.04239  0.073395  -0.009634  3.913023  -0.005
C  C142  1  0.50952148  0.71643556  0.17224628  1  0.392406  -0.009248  0.043486  0.073626  -0.009889  3.910178  -0.006
C  C143  1  0.99120915  0.21649023  0.32625189  1  0.437593  -0.00935  0.042194  0.073125  -0.01005  3.91451  -0.006
N  N144  1  0.75956996  0.51300774  0.76578818  1  -1.213154  0.054505  -0.346306  -0.365688  0.0297  3.524628  0.044
N  N145  1  0.73986485  0.00136643  0.73165492  1  -1.12849  -0.001961  -0.347623  -0.301652  -0.003939  3.577849  -0.001
N  N146  1  0.23592007  0.49492902  0.23378741  1  -1.153562  0.001578  -0.337448  -0.306385  -0.000129  3.534677  0.002
N  N147  1  0.26096050  0.99459769  0.26611034  1  -1.15308  0.001273  -0.33677  -0.307008  -0.000263  3.53396  0.002
N  N148  1  0.77636456  0.69123003  0.74752483  1  -1.162351  -0.004941  -0.346443  -0.329462  -0.006381  3.57988  -0.003
N  N149  1  0.72630047  0.17848214  0.75328368  1  -1.194935  0.050015  -0.342459  -0.389626  0.026175  3.544464  0.044
N  N150  1  0.22504228  0.31577521  0.25200609  1  -1.147747  -0.003093  -0.334963  -0.335778  -0.003457  3.532924  -0.001
N  N151  1  0.27409358  0.81628629  0.24607664  1  -1.146259  -0.003044  -0.334094  -0.335207  -0.003413  3.529877  -0.001
N  N152  1  0.55795747  0.66873778  0.55097678  1  -1.267323  0.000127  -0.391336  -0.34983  3.5e-05  3.5204  0.0
N  N153  1  0.94158879  0.16948549  0.94593817  1  -1.268522  1.1e-05  -0.388519  -0.351209  1.5e-05  3.52417  0.0
N  N154  1  0.44653068  0.33108649  0.44518621  1  -1.265374  0.00011  -0.388954  -0.349026  3.8e-05  3.51812  0.0
N  N155  1  0.05492664  0.83249459  0.05262252  1  -1.283983  8.8e-05  -0.393757  -0.350879  3.1e-05  3.527257  0.0
N  N156  1  0.39700351  0.16940953  0.21469839  1  -1.192321  -0.012239  -0.333246  -0.157107  -0.012172  3.651641  -0.009
N  N157  1  0.09954099  0.66944555  0.28406360  1  -1.147413  -0.012107  -0.329968  -0.158609  -0.01203  3.637485  -0.009
N  N158  1  0.59942966  0.83093301  0.78456536  1  -1.208253  -0.005216  -0.324862  -0.157144  -0.005797  3.61575  -0.004
N  N159  1  0.91640713  0.33010119  0.71651999  1  -1.194661  0.066459  -0.32388  -0.226351  0.035261  3.57156  0.056
N  N160  1  0.57693121  0.35031823  0.84204093  1  -1.245037  0.056239  -0.318871  -0.23579  0.030148  3.549882  0.043
N  N161  1  0.91715523  0.85734552  0.66979042  1  -1.162848  -0.004119  -0.321915  -0.18164  -0.004388  3.585373  -0.002
N  N162  1  0.41237685  0.64391060  0.16951689  1  -1.172516  -0.009101  -0.323666  -0.177028  -0.008462  3.596383  -0.005
N  N163  1  0.08606783  0.14368340  0.32914835  1  -1.176738  -0.009331  -0.327021  -0.17799  -0.008735  3.607773  -0.005
O  O164  1  0.85097645  0.38341943  0.87242637  1  -1.170007  0.048717  -0.32043  -0.603676  0.025673  2.363136  0.042
O  O165  1  0.64653729  0.87937066  0.62011737  1  -1.169679  0.041909  -0.330641  -0.606173  0.022045  2.343164  0.034
O  O166  1  0.14377749  0.61919340  0.12381986  1  -1.166991  0.038468  -0.32547  -0.600403  0.020155  2.353937  0.032
O  O167  1  0.35443634  0.11874488  0.37604181  1  -1.163014  0.038113  -0.323408  -0.597474  0.019981  2.346546  0.031
O  O168  1  0.96386514  0.51327864  0.92423517  1  -1.2001  0.001672  -0.427982  -0.696166  0.000142  2.508214  0.001
O  O169  1  0.53118073  0.01129433  0.57501886  1  -1.2057  0.002193  -0.43489  -0.702276  0.000695  2.516003  0.002
O  O170  1  0.02416895  0.48838244  0.07819539  1  -1.191206  0.003145  -0.423862  -0.693075  0.001326  2.499476  0.002
O  O171  1  0.47381368  0.98915581  0.42098975  1  -1.198031  0.003083  -0.427198  -0.697348  0.001317  2.501213  0.002
O  O172  1  0.93524841  0.74236361  0.91847707  1  -1.192168  0.005145  -0.419169  -0.648595  0.002046  2.40437  0.004
O  O173  1  0.56874463  0.24100938  0.58460129  1  -1.187658  0.008113  -0.397565  -0.631084  0.004032  2.359291  0.007
O  O174  1  0.06017411  0.26202162  0.08315305  1  -1.190831  0.005564  -0.410739  -0.641502  0.002325  2.391129  0.004
O  O175  1  0.43490358  0.76159548  0.41564363  1  -1.190444  0.005608  -0.414851  -0.644224  0.002351  2.398964  0.004
O  O176  1  0.86634532  0.84867972  0.82867123  1  -1.125371  0.0805  -0.288919  -0.505251  0.04059  2.390833  0.072
O  O177  1  0.63452132  0.34056970  0.67915105  1  -1.136219  0.09147  -0.302138  -0.526684  0.047001  2.385534  0.079
O  O178  1  0.13183194  0.15639239  0.17265621  1  -1.12413  0.071246  -0.289057  -0.504647  0.036062  2.393501  0.064
O  O179  1  0.36519375  0.65677097  0.32514751  1  -1.121013  0.070963  -0.289528  -0.50389  0.036032  2.400553  0.064
O  O180  1  0.72129064  0.26301222  0.02026262  1  -1.155568  -0.001019  -0.380798  -0.629194  -0.001067  2.209292  -0.001
O  O181  1  0.77693455  0.76644229  0.47754777  1  -1.187067  -0.001016  -0.374022  -0.62411  -0.001059  2.21702  -0.001
O  O182  1  0.27303174  0.73666569  0.97867084  1  -1.143677  -0.000886  -0.377066  -0.627262  -0.000913  2.210832  -0.001
O  O183  1  0.23095604  0.23190637  0.52012029  1  -1.159599  -0.000876  -0.379087  -0.625885  -0.00093  2.220687  -0.001
O  O184  1  0.81527499  0.31562720  0.12458170  1  -1.165216  -0.001079  -0.372967  -0.601425  -0.001127  2.172761  -0.001
O  O185  1  0.68294223  0.81612340  0.37286898  1  -1.168387  -0.000928  -0.370338  -0.604748  -0.000964  2.160642  -0.001
O  O186  1  0.17945282  0.68237045  0.87475054  1  -1.167969  -0.000899  -0.368959  -0.60221  -0.000941  2.160822  -0.001
O  O187  1  0.32521900  0.17745834  0.62365759  1  -1.164704  -0.00089  -0.37513  -0.603747  -0.000988  2.177241  -0.001
O  O188  1  0.13098113  0.34641152  0.94521127  1  -1.168657  0.000628  -0.362758  -0.628537  0.000268  2.287027  0.0
O  O189  1  0.35958943  0.84288320  0.55429178  1  -1.174891  -0.001684  -0.35615  -0.627149  -0.001774  2.244531  -0.001
O  O190  1  0.85653255  0.65545968  0.05658286  1  -1.175177  -0.001611  -0.358098  -0.628067  -0.00169  2.251602  -0.001
O  O191  1  0.64479246  0.15760270  0.44440504  1  -1.183628  -0.001563  -0.361363  -0.632287  -0.001636  2.249487  -0.001
O  O192  1  0.21547750  0.50789007  0.97789589  1  -1.193443  0.00056  -0.378743  -0.642311  0.000205  2.339749  0.0
O  O193  1  0.27984157  0.00458588  0.52123474  1  -1.191168  -0.001529  -0.377761  -0.644455  -0.001587  2.322862  -0.001
O  O194  1  0.77256716  0.49316920  0.02509256  1  -1.193238  -0.001385  -0.378351  -0.646233  -0.001446  2.319316  -0.001
O  O195  1  0.72358473  0.99442957  0.47491683  1  -1.191906  -0.001562  -0.380744  -0.644172  -0.001631  2.333  -0.001
