# generated using pymatgen
data_Cu3H18(C3N)7
_symmetry_space_group_name_H-M   'P 1'
_cell_length_a   29.03984910
_cell_length_b   29.78687666
_cell_length_c   30.47867429
_cell_angle_alpha   87.82356246
_cell_angle_beta   87.35751958
_cell_angle_gamma   89.55592414
_symmetry_Int_Tables_number   1
_chemical_formula_structural   Cu3H18(C3N)7
_chemical_formula_sum   'Cu12 H72 C84 N28'
_cell_volume   26316.74050753
_cell_formula_units_Z   4
loop_
 _symmetry_equiv_pos_site_id
 _symmetry_equiv_pos_as_xyz
  1  'x, y, z'
loop_
 _atom_site_type_symbol
 _atom_site_label
 _atom_site_symmetry_multiplicity
 _atom_site_fract_x
 _atom_site_fract_y
 _atom_site_fract_z
 _atom_site_occupancy
 _atom_site_pbe_bader_charge
 _atom_site_pbe_bader_spin_density
 _atom_site_pbe_cm5_charge
 _atom_site_pbe_ddec_charge
 _atom_site_pbe_ddec_spin_density
 _atom_site_pbe_ddec_sum_bond_order
 _atom_site_pbe_magmom
Cu  Cu0  1  0.12225469  0.91507660  0.14582329  1  0.542759  0  0.485601  0.203372  0  2.126627  0
Cu  Cu1  1  0.15906581  0.87484349  0.05583488  1  0.540538  0  0.483061  0.201432  0  2.122941  0
Cu  Cu2  1  0.06985297  0.83376749  0.10617470  1  0.542055  0  0.482978  0.202383  0  2.11779  0
Cu  Cu3  1  0.87877076  0.57438724  0.66330313  1  0.539465  0  0.484446  0.201698  0  2.127228  0
Cu  Cu4  1  0.83505365  0.62288682  0.58055737  1  0.543656  0  0.484764  0.203471  0  2.120567  0
Cu  Cu5  1  0.92096325  0.66616528  0.62454380  1  0.538398  0  0.481702  0.201219  0  2.120646  0
Cu  Cu6  1  0.62693460  0.08722191  0.34072628  1  0.541716  0  0.485484  0.2046  0  2.122711  0
Cu  Cu7  1  0.67424002  0.13437422  0.41835667  1  0.538162  0  0.483469  0.202418  0  2.119086  0
Cu  Cu8  1  0.58160528  0.17492994  0.38067273  1  0.539227  0  0.482618  0.200972  0  2.123153  0
Cu  Cu9  1  0.37607611  0.41723472  0.84539244  1  0.539302  0  0.485223  0.202056  0  2.133217  0
Cu  Cu10  1  0.33161693  0.37594950  0.93472201  1  0.542101  0  0.483745  0.202374  0  2.120388  0
Cu  Cu11  1  0.42142029  0.33111340  0.89024982  1  0.542116  0  0.483679  0.201896  0  2.122981  0
H  H12  1  0.19585574  0.99151835  0.15659432  1  0.094442  0  0.118611  0.108659  0  0.99402  0
H  H13  1  0.24147125  0.94168991  0.02999782  1  0.092055  0  0.11926  0.111464  0  0.990027  0
H  H14  1  0.98645680  0.82141302  0.17724621  1  0.067418  0  0.118826  0.111596  0  0.98849  0
H  H15  1  0.05896248  0.93205802  0.23063752  1  0.084623  0  0.118735  0.108604  0  0.995821  0
H  H16  1  0.17111830  0.80809071  0.97692913  1  0.087529  0  0.119017  0.111792  0  0.988905  0
H  H17  1  0.04781278  0.75441904  0.04449742  1  0.118879  0  0.118936  0.108827  0  0.993549  0
H  H18  1  0.81457600  0.48867443  0.67601871  1  0.084166  0  0.119241  0.11142  0  0.989086  0
H  H19  1  0.75531915  0.55475717  0.56251808  1  0.080612  0  0.118969  0.109022  0  0.992816  0
H  H20  1  0.00032636  0.68055352  0.69163246  1  0.106543  0  0.11862  0.111013  0  0.989308  0
H  H21  1  0.94252899  0.55448118  0.74298545  1  0.090126  0  0.118981  0.109193  0  0.995215  0
H  H22  1  0.81737453  0.69584346  0.50489118  1  0.100135  0  0.118466  0.108384  0  0.995156  0
H  H23  1  0.93642758  0.75297165  0.56216861  1  0.10052  0  0.118659  0.111036  0  0.989913  0
H  H24  1  0.69645329  0.00699234  0.32373687  1  0.085603  0  0.11905  0.108533  0  0.994036  0
H  H25  1  0.76209414  0.07073479  0.42978903  1  0.065154  0  0.119239  0.111537  0  0.988616  0
H  H26  1  0.49589005  0.18829461  0.32012776  1  0.09148  0  0.11906  0.110849  0  0.990145  0
H  H27  1  0.55597694  0.06647865  0.26846378  1  0.087642  0  0.118831  0.109032  0  0.994301  0
H  H28  1  0.69125313  0.20204606  0.49312162  1  0.0754  0  0.118523  0.108315  0  0.99522  0
H  H29  1  0.56451661  0.25708611  0.44327435  1  0.091177  0  0.118882  0.111459  0  0.990308  0
H  H30  1  0.30683988  0.49831066  0.82706891  1  0.112922  0  0.119211  0.111279  0  0.988795  0
H  H31  1  0.24686052  0.44208643  0.94971914  1  0.10955  0  0.118904  0.108344  0  0.994657  0
H  H32  1  0.50484104  0.31320270  0.82074752  1  0.066506  0  0.118481  0.110826  0  0.989442  0
H  H33  1  0.44386529  0.43335253  0.76275135  1  0.086785  0  0.118732  0.108582  0  0.9958  0
H  H34  1  0.31675925  0.31130975  0.01980798  1  0.123129  0  0.119151  0.111614  0  0.988955  0
H  H35  1  0.43989420  0.25255173  0.95942990  1  0.082809  0  0.118928  0.108157  0  0.994889  0
H  H36  1  0.33586096  0.07900921  0.08018525  1  0.095213  0  0.101857  0.106546  0  1.000122  0
H  H37  1  0.27357205  0.03155120  0.15376000  1  0.02522  0  0.096443  0.09617  0  0.989226  0
H  H38  1  0.33565532  0.08032837  0.18184161  1  0.074401  0  0.111843  0.090308  0  1.001095  0
H  H39  1  0.28649410  0.01983213  0.05394473  1  0.054302  0  0.097063  0.099053  0  0.992973  0
H  H40  1  0.66266664  0.41704260  0.55486861  1  0.073677  0  0.102188  0.108447  0  0.995347  0
H  H41  1  0.71082551  0.48356602  0.55647266  1  0.074204  0  0.095365  0.094743  0  0.994353  0
H  H42  1  0.65893386  0.42050309  0.65602247  1  0.079391  0  0.110286  0.083312  0  1.014828  0
H  H43  1  0.73780499  0.44575612  0.64706182  1  0.045048  0  0.095778  0.095515  0  1.00373  0
H  H44  1  0.83725325  0.91634167  0.30832295  1  0.060099  0  0.102013  0.107717  0  0.995882  0
H  H45  1  0.76969053  0.96486049  0.31352552  1  0.032707  0  0.094976  0.093417  0  0.996208  0
H  H46  1  0.83172613  0.91369145  0.40972728  1  0.05672  0  0.110374  0.083233  0  1.012425  0
H  H47  1  0.80630226  0.99213030  0.40169392  1  0.031011  0  0.095509  0.094868  0  1.002928  0
H  H48  1  0.14566509  0.57551988  0.94978832  1  0.019993  0  0.098661  0.101601  0  1.009686  0
H  H49  1  0.19868185  0.51171472  0.95155490  1  0.040196  0  0.095136  0.094378  0  0.993324  0
H  H50  1  0.14832080  0.56498330  0.84921511  1  0.073985  0  0.111691  0.08805  0  1.010449  0
H  H51  1  0.22667203  0.54138180  0.85634857  1  0.074891  0  0.095555  0.095697  0  1.002  0
H  H52  1  0.91875052  0.94637145  0.32877921  1  0.102445  0  0.101066  0.108484  0  0.999014  0
H  H53  1  0.98694139  0.94295595  0.27774848  1  0.041101  0  0.094731  0.094042  0  0.993901  0
H  H54  1  0.93187641  0.84360314  0.33631312  1  0.057268  0  0.112279  0.087821  0  1.004581  0
H  H55  1  0.94829400  0.85061397  0.25741500  1  0.039963  0  0.094061  0.093334  0  1.007767  0
H  H56  1  0.58445524  0.44240129  0.66696021  1  0.076161  0  0.097563  0.100834  0  1.014488  0
H  H57  1  0.51819981  0.44081781  0.71931174  1  0.050055  0  0.094531  0.093728  0  0.993316  0
H  H58  1  0.56817198  0.34045919  0.66191562  1  0.032792  0  0.112669  0.091153  0  1.002449  0
H  H59  1  0.54721071  0.34304835  0.73989105  1  0.049716  0  0.094099  0.094145  0  1.004073  0
H  H60  1  0.07029509  0.54663882  0.84187216  1  0.046716  0  0.098007  0.100507  0  1.01108  0
H  H61  1  0.00934018  0.54961602  0.78992318  1  0.074748  0  0.094628  0.093742  0  0.993556  0
H  H62  1  0.06161168  0.65012125  0.84188509  1  0.100722  0  0.111693  0.088006  0  1.009642  0
H  H63  1  0.04125580  0.64619956  0.76676118  1  0.040341  0  0.095748  0.096021  0  1.001571  0
H  H64  1  0.41568896  0.05577136  0.18538623  1  0.047283  0  0.097569  0.100067  0  1.011587  0
H  H65  1  0.48146593  0.05833508  0.23209553  1  0.066804  0  0.094581  0.093188  0  0.993682  0
H  H66  1  0.42812740  0.15845505  0.17271485  1  0.076069  0  0.111504  0.08829  0  1.009263  0
H  H67  1  0.45125864  0.15568312  0.24846840  1  0.036522  0  0.095433  0.095618  0  1.002045  0
H  H68  1  0.03708753  0.65803077  0.91697101  1  0.075767  0  0.098423  0.101607  0  1.009391  0
H  H69  1  0.03903874  0.71039499  0.97687905  1  0.048362  0  0.095088  0.094426  0  0.99326  0
H  H70  1  0.14260893  0.65204540  0.92553658  1  0.079511  0  0.111567  0.087704  0  1.01049  0
H  H71  1  0.13782691  0.73054705  0.94122296  1  0.044552  0  0.095383  0.095101  0  1.00299  0
H  H72  1  0.69486683  0.33889693  0.57908607  1  0.079207  0  0.100391  0.108022  0  1.00188  0
H  H73  1  0.69509530  0.27199711  0.53476836  1  0.050728  0  0.094833  0.094044  0  0.994394  0
H  H74  1  0.59053320  0.32134312  0.59156765  1  0.089838  0  0.112738  0.088385  0  1.004265  0
H  H75  1  0.59612147  0.30119423  0.51511888  1  0.039685  0  0.094376  0.093747  0  1.006186  0
H  H76  1  0.44899037  0.16104848  0.09673303  1  0.049519  0  0.098136  0.101582  0  1.010743  0
H  H77  1  0.44699284  0.21005707  0.03075190  1  0.030885  0  0.094207  0.092772  0  0.99434  0
H  H78  1  0.34294027  0.15854859  0.09193341  1  0.074231  0  0.111154  0.08761  0  1.008173  0
H  H79  1  0.34899056  0.23484180  0.06464362  1  0.041575  0  0.095138  0.094967  0  1.003062  0
H  H80  1  0.80746144  0.84085268  0.42104437  1  0.073632  0  0.097237  0.100497  0  1.015005  0
H  H81  1  0.80758117  0.77326261  0.46947728  1  0.0222  0  0.09458  0.093622  0  0.992859  0
H  H82  1  0.91176925  0.82167749  0.40832710  1  0.095768  0  0.112602  0.090925  0  1.001558  0
H  H83  1  0.90745476  0.79922793  0.48577202  1  0.021427  0  0.09431  0.094039  0  1.00683  0
C  C84  1  0.20171043  0.97362169  0.12646778  1  0.417991  0  0.005372  -0.055442  0  3.940937  0
C  C85  1  0.23482829  0.98114168  0.09177945  1  0.01286  0  -0.040397  0.01734  0  4.138932  0
C  C86  1  0.22446364  0.94855796  0.06152591  1  0.394434  0  0.003737  -0.063175  0  3.95584  0
C  C87  1  0.00969124  0.84825004  0.18452450  1  0.429904  0  0.003821  -0.062424  0  3.952606  0
C  C88  1  0.00732678  0.87759373  0.21971385  1  0.010642  0  -0.041332  0.017433  0  4.138469  0
C  C89  1  0.04638142  0.90497281  0.21170435  1  0.41852  0  0.00453  -0.056043  0  3.945879  0
C  C90  1  0.14123079  0.80057423  0.99861181  1  0.417936  0  0.003636  -0.062486  0  3.955966  0
C  C91  1  0.10831686  0.76643989  0.99609752  1  0.024939  0  -0.04101  0.015581  0  4.13883  0
C  C92  1  0.07806718  0.77324995  0.03277169  1  0.343608  0  0.005203  -0.055223  0  3.941468  0
C  C93  1  0.80547117  0.51051463  0.64838528  1  0.426804  0  0.003761  -0.062251  0  3.953596  0
C  C94  1  0.77025969  0.50567599  0.61870442  1  0.004388  0  -0.040776  0.016213  0  4.133269  0
C  C95  1  0.77528442  0.54396210  0.59028155  1  0.385992  0  0.005887  -0.054787  0  3.936959  0
C  C96  1  0.98093805  0.64987871  0.69861973  1  0.363911  0  0.004163  -0.061812  0  3.953129  0
C  C97  1  0.98640791  0.61673330  0.73217292  1  0.017684  0  -0.041115  0.016531  0  4.138835  0
C  C98  1  0.95172399  0.58540474  0.72485438  1  0.390436  0  0.005046  -0.056791  0  3.941135  0
C  C99  1  0.84624527  0.70425067  0.52434117  1  0.382221  0  0.005012  -0.056272  0  3.943244  0
C  C100  1  0.87627963  0.74122403  0.51976668  1  0.011742  0  -0.041307  0.016664  0  4.138938  0
C  C101  1  0.90734860  0.73305842  0.55331089  1  0.405923  0  0.002096  -0.062718  0  3.955963  0
C  C102  1  0.70700908  0.02806811  0.34968571  1  0.403694  0  0.005539  -0.053109  0  3.940706  0
C  C103  1  0.74570877  0.02429212  0.37587846  1  0.034103  0  -0.041122  0.012091  0  4.141367  0
C  C104  1  0.74019181  0.06051080  0.40406452  1  0.42057  0  0.003866  -0.060588  0  3.953666  0
C  C105  1  0.51638058  0.15871973  0.31251060  1  0.428455  0  0.003856  -0.060021  0  3.954952  0
C  C106  1  0.50952191  0.12639869  0.28098957  1  0.001979  0  -0.040944  0.015541  0  4.139254  0
C  C107  1  0.54670451  0.09630654  0.28630090  1  0.378299  0  0.005314  -0.055617  0  3.941592  0
C  C108  1  0.66036574  0.21025639  0.47570404  1  0.413925  0  0.004672  -0.055363  0  3.941573  0
C  C109  1  0.62800904  0.24514497  0.48222385  1  0.011514  0  -0.04153  0.015947  0  4.139083  0
C  C110  1  0.59553518  0.23807299  0.45032602  1  0.398687  0  0.002413  -0.063587  0  3.957145  0
C  C111  1  0.29796380  0.47909864  0.85723150  1  0.349315  0  0.003307  -0.061449  0  3.954167  0
C  C112  1  0.26132974  0.48562492  0.88823475  1  0.05728  0  -0.040854  0.014683  0  4.14064  0
C  C113  1  0.26738282  0.45069583  0.91999310  1  0.356507  0  0.005879  -0.053606  0  3.939833  0
C  C114  1  0.48428792  0.34259975  0.81224035  1  0.428221  0  0.003178  -0.062565  0  3.953302  0
C  C115  1  0.49026118  0.37356983  0.77641749  1  0.02832  0  -0.04159  0.016468  0  4.138537  0
C  C116  1  0.45356295  0.40419725  0.78275389  1  0.393474  0  0.004626  -0.056527  0  3.945899  0
C  C117  1  0.34673523  0.30234879  0.99928204  1  0.37932  0  0.003087  -0.063278  0  3.955585  0
C  C118  1  0.37898419  0.26747508  0.00571445  1  0.019319  0  -0.041342  0.015538  0  4.139891  0
C  C119  1  0.40978479  0.27240701  0.96878016  1  0.391481  0  0.004887  -0.054471  0  3.93994  0
C  C120  1  0.34393451  0.09014492  0.14752327  1  0.250545  0  0.002276  -0.042256  0  4.007712  0
C  C121  1  0.32352023  0.07056392  0.11392700  1  -0.029133  0  -0.115874  -0.160936  0  4.131132  0
C  C122  1  0.28751887  0.03798496  0.12011432  1  -0.005744  0  -0.109324  -0.097054  0  4.109583  0
C  C123  1  0.27100276  0.01417945  0.08710857  1  -0.024347  0  -0.102563  -0.135605  0  4.048672  0
C  C124  1  0.65302702  0.40806922  0.62349355  1  0.261397  0  0.006847  -0.026507  0  3.972615  0
C  C125  1  0.67351932  0.42753964  0.58673634  1  0.028949  0  -0.111129  -0.150899  0  4.100459  0
C  C126  1  0.70809186  0.46202031  0.58635073  1  -0.102676  0  -0.109886  -0.100592  0  4.09696  0
C  C127  1  0.73754270  0.46940966  0.61870694  1  -0.008032  0  -0.103851  -0.137003  0  4.053715  0
C  C128  1  0.84488168  0.90743088  0.37633101  1  0.297309  0  0.007262  -0.02503  0  3.969563  0
C  C129  1  0.82588237  0.92759588  0.34078566  1  -0.021884  0  -0.11106  -0.150064  0  4.102123  0
C  C130  1  0.79097175  0.96216297  0.34222092  1  0.005661  0  -0.110135  -0.099928  0  4.096374  0
C  C131  1  0.78280801  0.99171505  0.37465880  1  -0.044107  0  -0.102592  -0.133757  0  4.048902  0
C  C132  1  0.14042824  0.57945329  0.88107632  1  0.214582  0  0.003907  -0.035447  0  3.998317  0
C  C133  1  0.15962117  0.56345724  0.91844052  1  0.131657  0  -0.118267  -0.164588  0  4.114275  0
C  C134  1  0.19594371  0.53026707  0.92008125  1  -0.06266  0  -0.111349  -0.096445  0  4.094894  0
C  C135  1  0.22676783  0.52065387  0.88677683  1  -0.057625  0  -0.103214  -0.135535  0  4.050123  0
C  C136  1  0.91608115  0.87637675  0.34199206  1  0.291458  0  0.005688  -0.03505  0  3.991418  0
C  C137  1  0.93213496  0.91356757  0.31937484  1  -0.024989  0  -0.116364  -0.157639  0  4.110599  0
C  C138  1  0.96591815  0.91273834  0.28325368  1  0.02176  0  -0.109812  -0.097347  0  4.094268  0
C  C139  1  0.97227293  0.87886134  0.25485301  1  -0.096018  0  -0.106155  -0.142887  0  4.058852  0
C  C140  1  0.58490353  0.37293205  0.65589647  1  0.37275  0  0.00241  -0.042899  0  4.009255  0
C  C141  1  0.57041166  0.40971979  0.67789572  1  -0.079289  0  -0.124175  -0.173119  0  4.126415  0
C  C142  1  0.53652067  0.40908230  0.71396411  1  -0.005759  0  -0.111185  -0.093812  0  4.096673  0
C  C143  1  0.52627619  0.37366287  0.74209951  1  -0.063494  0  -0.106761  -0.142215  0  4.050638  0
C  C144  1  0.07515236  0.61647099  0.84894001  1  0.262684  0  0.004823  -0.033376  0  3.996725  0
C  C145  1  0.05958344  0.57971533  0.82918754  1  0.017753  0  -0.119171  -0.166065  0  4.116666  0
C  C146  1  0.02818692  0.58077473  0.79388023  1  -0.046684  0  -0.111349  -0.09626  0  4.095543  0
C  C147  1  0.02023509  0.61597958  0.76545832  1  -0.040608  0  -0.104341  -0.137139  0  4.047508  0
C  C148  1  0.41281075  0.12530251  0.17058815  1  0.305702  0  0.004466  -0.033621  0  3.996805  0
C  C149  1  0.42837876  0.08871586  0.19363524  1  -0.024976  0  -0.11913  -0.166485  0  4.114503  0
C  C150  1  0.46241907  0.08974035  0.22651930  1  -0.054852  0  -0.110785  -0.094094  0  4.093338  0
C  C151  1  0.47264052  0.12535270  0.25085422  1  -0.028284  0  -0.105238  -0.138832  0  4.048632  0
C  C152  1  0.10888761  0.64674947  0.91226972  1  0.29862  0  0.004054  -0.035108  0  4.000369  0
C  C153  1  0.07063888  0.66910582  0.92711706  1  -0.052201  0  -0.118622  -0.165502  0  4.11159  0
C  C154  1  0.07106741  0.70520308  0.95730910  1  -0.026991  0  -0.111407  -0.097201  0  4.093996  0
C  C155  1  0.10710774  0.73285493  0.96323717  1  -0.026995  0  -0.103921  -0.135868  0  4.04964  0
C  C156  1  0.62340718  0.33819712  0.59463227  1  0.246134  0  0.005921  -0.032904  0  3.990668  0
C  C157  1  0.66185385  0.32405733  0.57209166  1  0.021339  0  -0.117361  -0.161186  0  4.11516  0
C  C158  1  0.66247090  0.29024158  0.53948251  1  -0.078741  0  -0.1098  -0.096299  0  4.096802  0
C  C159  1  0.62733837  0.28038586  0.51352421  1  0.005947  0  -0.106757  -0.142608  0  4.057584  0
C  C160  1  0.37700547  0.15281194  0.10487461  1  0.305133  0  0.0045  -0.032902  0  4.001306  0
C  C161  1  0.41539402  0.17260940  0.08593401  1  -0.022565  0  -0.120406  -0.169446  0  4.11789  0
C  C162  1  0.41510361  0.20682429  0.05120161  1  -0.001635  0  -0.110744  -0.094323  0  4.095098  0
C  C163  1  0.37956948  0.23520706  0.04224886  1  -0.036988  0  -0.104347  -0.136717  0  4.049427  0
C  C164  1  0.87896757  0.83934307  0.40509480  1  0.260463  0  0.002602  -0.041049  0  4.007855  0
C  C165  1  0.84058457  0.82577483  0.42910371  1  -0.037823  0  -0.124146  -0.173413  0  4.123394  0
C  C166  1  0.84026857  0.79098936  0.46331721  1  0.001227  0  -0.111255  -0.093598  0  4.095779  0
C  C167  1  0.87615342  0.77888881  0.48844546  1  -0.013823  0  -0.107031  -0.142621  0  4.054616  0
N  N168  1  0.62118019  0.37289291  0.62436073  1  -1.269647  0  -0.249063  0.035504  0  3.828962  0
N  N169  1  0.37699751  0.12391064  0.14184538  1  -1.260567  0  -0.253384  0.033984  0  3.856474  0
N  N170  1  0.10908806  0.61507829  0.87979114  1  -1.252092  0  -0.251752  0.037087  0  3.857818  0
N  N171  1  0.88043124  0.87533162  0.37453396  1  -1.242368  0  -0.250091  0.032865  0  3.827222  0
N  N172  1  0.18840247  0.92355330  0.07715229  1  -0.771842  0  -0.340337  -0.14077  0  3.777536  0
N  N173  1  0.17415306  0.93931163  0.11739166  1  -0.792224  0  -0.338379  -0.139064  0  3.778071  0
N  N174  1  0.06966842  0.89291017  0.17471510  1  -0.770695  0  -0.337877  -0.13862  0  3.783484  0
N  N175  1  0.04689372  0.85768791  0.15771871  1  -0.791165  0  -0.339785  -0.141735  0  3.776275  0
N  N176  1  0.09193754  0.80864696  0.05491662  1  -0.76189  0  -0.337292  -0.138463  0  3.777478  0
N  N177  1  0.13116571  0.82572823  0.03368542  1  -0.799105  0  -0.339969  -0.141952  0  3.779089  0
N  N178  1  0.81065105  0.56911482  0.60219343  1  -0.771912  0  -0.336683  -0.137432  0  3.777934  0
N  N179  1  0.82946258  0.54836238  0.63830397  1  -0.769006  0  -0.340334  -0.141044  0  3.779275  0
N  N180  1  0.92797575  0.59891139  0.68974408  1  -0.758555  0  -0.338322  -0.137565  0  3.780582  0
N  N181  1  0.94607639  0.63897567  0.67335532  1  -0.78665  0  -0.339736  -0.142385  0  3.775728  0
N  N182  1  0.89640878  0.69462840  0.57611332  1  -0.775947  0  -0.340383  -0.143636  0  3.779795  0
N  N183  1  0.85847613  0.67671754  0.55800164  1  -0.780746  0  -0.337755  -0.138121  0  3.778619  0
N  N184  1  0.70157425  0.08391711  0.39515717  1  -0.781996  0  -0.339173  -0.140776  0  3.77492  0
N  N185  1  0.68100593  0.06367007  0.36136795  1  -0.77017  0  -0.337857  -0.139431  0  3.780053  0
N  N186  1  0.57313691  0.10971042  0.31849015  1  -0.764785  0  -0.338024  -0.139153  0  3.77849  0
N  N187  1  0.55429361  0.14846736  0.33487119  1  -0.777774  0  -0.340352  -0.142614  0  3.778858  0
N  N188  1  0.60775966  0.20211862  0.42672592  1  -0.790854  0  -0.33999  -0.142122  0  3.778712  0
N  N189  1  0.64805081  0.18486489  0.44257189  1  -0.775781  0  -0.33781  -0.138673  0  3.778201  0
N  N190  1  0.30471548  0.42583963  0.90871913  1  -0.760023  0  -0.336622  -0.137256  0  3.778066  0
N  N191  1  0.32378452  0.44346438  0.86973860  1  -0.784662  0  -0.341569  -0.142983  0  3.780268  0
N  N192  1  0.42827635  0.39241154  0.81946847  1  -0.781062  0  -0.339871  -0.139163  0  3.78791  0
N  N193  1  0.44732692  0.35418399  0.83790958  1  -0.778302  0  -0.340185  -0.142211  0  3.777329  0
N  N194  1  0.39685025  0.30746385  0.94286457  1  -0.783456  0  -0.337515  -0.137917  0  3.779984  0
N  N195  1  0.35768594  0.32618187  0.96178043  1  -0.77462  0  -0.339846  -0.142061  0  3.777119  0
