# generated using pymatgen
data_ZnH12C16S3(NO)4
_symmetry_space_group_name_H-M   'P 1'
_cell_length_a   8.78420710
_cell_length_b   10.20134043
_cell_length_c   11.35195306
_cell_angle_alpha   64.93900374
_cell_angle_beta   77.74630622
_cell_angle_gamma   74.14374947
_symmetry_Int_Tables_number   1
_chemical_formula_structural   ZnH12C16S3(NO)4
_chemical_formula_sum   'Zn2 H24 C32 S6 N8 O8'
_cell_volume   880.97351847
_cell_formula_units_Z   2
loop_
 _symmetry_equiv_pos_site_id
 _symmetry_equiv_pos_as_xyz
  1  'x, y, z'
loop_
 _atom_site_type_symbol
 _atom_site_label
 _atom_site_symmetry_multiplicity
 _atom_site_fract_x
 _atom_site_fract_y
 _atom_site_fract_z
 _atom_site_occupancy
 _atom_site_hle17_bader_spin_density
 _atom_site_hle17_ddec_charge
 _atom_site_hle17_ddec_spin_density
 _atom_site_hle17_ddec_sum_bond_order
 _atom_site_hle17_magmom
 _atom_site_hse06_10hf_bader_spin_density
 _atom_site_hse06_10hf_ddec_charge
 _atom_site_hse06_10hf_ddec_spin_density
 _atom_site_hse06_10hf_ddec_sum_bond_order
 _atom_site_hse06_10hf_magmom
 _atom_site_hse06_bader_spin_density
 _atom_site_hse06_ddec_charge
 _atom_site_hse06_ddec_spin_density
 _atom_site_hse06_ddec_sum_bond_order
 _atom_site_hse06_magmom
 _atom_site_pbe_bader_spin_density
 _atom_site_pbe_cm5_charge
 _atom_site_pbe_ddec_charge
 _atom_site_pbe_ddec_spin_density
 _atom_site_pbe_ddec_sum_bond_order
 _atom_site_pbe_magmom
Zn  Zn0  1  0.14211198  0.80601440  0.58877100  1  0  1.040178  0  1.792291  0  0  0.852179  0  2.246526  0  0  0.90406  0  2.189898  0  0  0.686847  0.816562  0  2.285398  0
Zn  Zn1  1  0.85788323  0.19398667  0.41122888  1  0  1.040178  0  1.792264  0  0  0.85223  0  2.246447  0  0  0.904109  0  2.189818  0  0  0.686872  0.816613  0  2.285319  0
H  H2  1  0.47511756  0.13011697  0.39454005  1  0  0.143114  0  0.934873  0  0  0.150854  0  1.001348  0  0  0.154433  0  0.998577  0  0  0.110067  0.148045  0  1.003748  0
H  H3  1  0.52488023  0.86988299  0.60546072  1  0  0.143191  0  0.934864  0  0  0.150896  0  1.001364  0  0  0.154477  0  0.998593  0  0  0.110079  0.148086  0  1.003766  0
H  H4  1  0.35031165  0.24151950  0.47421401  1  0  0.138913  0  0.901402  0  0  0.15793  0  0.948696  0  0  0.160606  0  0.94715  0  0  0.114418  0.156509  0  0.948686  0
H  H5  1  0.64968613  0.75848044  0.52578501  1  0  0.13897  0  0.901373  0  0  0.157985  0  0.948654  0  0  0.160665  0  0.947104  0  0  0.114441  0.156564  0  0.948644  0
H  H6  1  0.55490307  0.40800081  0.70398045  1  0  0.11861  0  0.954442  0  0  0.126756  0  1.024388  0  0  0.128858  0  1.024558  0  0  0.096365  0.125342  0  1.02422  0
H  H7  1  0.44509935  0.59200461  0.29601216  1  0  0.118665  0  0.954405  0  0  0.126807  0  1.024375  0  0  0.128913  0  1.024547  0  0  0.096372  0.125392  0  1.024206  0
H  H8  1  0.48456962  0.37531058  0.58668899  1  0  0.150536  0  0.935755  0  0  0.165143  0  0.990334  0  0  0.168971  0  0.98807  0  0  0.110902  0.162536  0  0.991705  0
H  H9  1  0.51542720  0.62469377  0.41330584  1  0  0.150496  0  0.935898  0  0  0.165122  0  0.990454  0  0  0.168954  0  0.988193  0  0  0.110893  0.162515  0  0.991822  0
H  H10  1  0.26430317  0.95035958  0.30941406  1  0  0.081654  0  0.985859  0  0  0.083071  0  1.061369  0  0  0.08595  0  1.058505  0  0  0.113432  0.081251  0  1.063016  0
H  H11  1  0.73570164  0.04963480  0.69058769  1  0  0.081633  0  0.985887  0  0  0.08304  0  1.061395  0  0  0.08592  0  1.058532  0  0  0.113429  0.081221  0  1.063043  0
H  H12  1  0.26559229  0.95036019  0.09736083  1  0  0.104479  0  1.014652  0  0  0.106313  0  1.089009  0  0  0.110239  0  1.086944  0  0  0.102635  0.103714  0  1.090387  0
H  H13  1  0.73441393  0.04963309  0.90264111  1  0  0.104512  0  1.014602  0  0  0.106348  0  1.088947  0  0  0.110275  0  1.086882  0  0  0.102672  0.103748  0  1.090327  0
H  H14  1  0.97004664  0.61978428  0.28148003  1  0  0.121004  0  1.001692  0  0  0.124052  0  1.074834  0  0  0.128676  0  1.071604  0  0  0.10103  0.120889  0  1.077018  0
H  H15  1  0.02994926  0.38021899  0.71851801  1  0  0.121025  0  1.001706  0  0  0.124068  0  1.074847  0  0  0.128687  0  1.071634  0  0  0.101036  0.120905  0  1.077032  0
H  H16  1  0.97965657  0.63912833  0.49076350  1  0  0.08291  0  0.93391  0  0  0.093517  0  0.993932  0  0  0.095494  0  0.993107  0  0  0.115798  0.092131  0  0.994564  0
H  H17  1  0.02034122  0.36087162  0.50923727  1  0  0.082919  0  0.933935  0  0  0.093524  0  0.993948  0  0  0.095501  0  0.993124  0  0  0.115784  0.092146  0  0.99457  0
H  H18  1  0.95152580  0.64053057  0.08896383  1  0  0.114103  0  0.976156  0  0  0.119371  0  1.046931  0  0  0.123013  0  1.045326  0  0  0.102966  0.116909  0  1.047951  0
H  H19  1  0.04847503  0.35946606  0.91103948  1  0  0.114145  0  0.976143  0  0  0.119399  0  1.046922  0  0  0.123041  0  1.045318  0  0  0.102983  0.116937  0  1.047943  0
H  H20  1  0.96934839  0.65504469  0.86115630  1  0  0.087515  0  0.942811  0  0  0.094756  0  1.009716  0  0  0.097156  0  1.007676  0  0  0.11429  0.093125  0  1.010952  0
H  H21  1  0.03065316  0.34494865  0.13885080  1  0  0.087481  0  0.942789  0  0  0.09477  0  1.009644  0  0  0.09717  0  1.007604  0  0  0.114312  0.093131  0  1.010889  0
H  H22  1  0.29775185  0.92378045  0.72294827  1  0  0.086103  0  0.957623  0  0  0.093719  0  1.022435  0  0  0.096671  0  1.019545  0  0  0.115942  0.091822  0  1.024071  0
H  H23  1  0.70224898  0.07621616  0.27705152  1  0  0.086092  0  0.957657  0  0  0.093703  0  1.022484  0  0  0.096657  0  1.019595  0  0  0.115944  0.091808  0  1.024114  0
H  H24  1  0.29937655  0.92007485  0.94027607  1  0  0.110215  0  0.980305  0  0  0.119035  0  1.04387  0  0  0.122114  0  1.042953  0  0  0.105384  0.116928  0  1.044523  0
H  H25  1  0.70062638  0.07992285  0.05972295  1  0  0.110173  0  0.980348  0  0  0.118998  0  1.043913  0  0  0.122077  0  1.042997  0  0  0.105371  0.116892  0  1.044566  0
C  C26  1  0.22504938  0.11669696  0.42851452  1  0  0.723981  0  3.862302  0  0  0.665589  0  4.175161  0  0  0.700879  0  4.166209  0  0  0.216434  0.641797  0  4.180706  0
C  C27  1  0.77494792  0.88330522  0.57148635  1  0  0.72396  0  3.862303  0  0  0.665484  0  4.175292  0  0  0.700777  0  4.166337  0  0  0.216406  0.641692  0  4.180835  0
C  C28  1  0.35727839  0.20226998  0.39628271  1  0  -0.292665  0  3.599468  0  0  -0.324346  0  3.857476  0  0  -0.328734  0  3.860882  0  0  -0.143368  -0.322044  0  3.855438  0
C  C29  1  0.64271894  0.79772665  0.60371765  1  0  -0.292819  0  3.599522  0  0  -0.324435  0  3.85751  0  0  -0.328833  0  3.860923  0  0  -0.143406  -0.322133  0  3.855473  0
C  C30  1  0.36805773  0.29464338  0.13420269  1  0  0.062639  0  3.824291  0  0  0.060504  0  4.133674  0  0  0.070974  0  4.147857  0  0  0.110941  0.053793  0  4.123824  0
C  C31  1  0.63194238  0.70535655  0.86579682  1  0  0.062708  0  3.824254  0  0  0.06056  0  4.133672  0  0  0.071031  0  4.147853  0  0  0.110971  0.053849  0  4.123825  0
C  C32  1  0.39086671  0.24173585  0.94326300  1  0  0.063059  0  3.774159  0  0  0.061549  0  4.085102  0  0  0.07183  0  4.098463  0  0  0.114062  0.054004  0  4.07676  0
C  C33  1  0.60913828  0.75826847  0.05673489  1  0  0.063036  0  3.773982  0  0  0.061528  0  4.08493  0  0  0.071807  0  4.098293  0  0  0.114044  0.053979  0  4.076604  0
C  C34  1  0.44790913  0.39453817  0.67836567  1  0  -0.321215  0  3.647482  0  0  -0.349716  0  3.899536  0  0  -0.355034  0  3.904169  0  0  -0.158562  -0.346096  0  3.895694  0
C  C35  1  0.55209119  0.60546617  0.32163035  1  0  -0.321276  0  3.647584  0  0  -0.349776  0  3.899631  0  0  -0.355122  0  3.904301  0  0  -0.158554  -0.346151  0  3.895783  0
C  C36  1  0.31949542  0.53573740  0.65443146  1  0  0.667107  0  3.919231  0  0  0.620585  0  4.219175  0  0  0.65319  0  4.214248  0  0  0.1823  0.598744  0  4.222031  0
C  C37  1  0.68050700  0.46426805  0.34556555  1  0  0.667211  0  3.9192  0  0  0.620652  0  4.219201  0  0  0.653265  0  4.21427  0  0  0.182293  0.598811  0  4.222059  0
C  C38  1  0.19835878  0.87959878  0.30043173  1  0  0.141248  0  3.69056  0  0  0.11013  0  3.94163  0  0  0.117285  0  3.958829  0  0  0.0453  0.105383  0  3.929626  0
C  C39  1  0.80164346  0.12039674  0.69957177  1  0  0.14141  0  3.690408  0  0  0.110298  0  3.941474  0  0  0.117454  0  3.958673  0  0  0.04537  0.105552  0  3.929469  0
C  C40  1  0.19854574  0.87766229  0.17909539  1  0  -0.153968  0  3.699809  0  0  -0.172456  0  3.947509  0  0  -0.17981  0  3.968222  0  0  -0.086597  -0.167387  0  3.933351  0
C  C41  1  0.80145787  0.12233765  0.82090707  1  0  -0.154084  0  3.699858  0  0  -0.172608  0  3.947514  0  0  -0.179964  0  3.968225  0  0  -0.086645  -0.16754  0  3.933359  0
C  C42  1  0.11778821  0.78414166  0.16662784  1  0  0.090705  0  3.739933  0  0  0.10239  0  3.969945  0  0  0.105806  0  3.991496  0  0  0.007372  0.100187  0  3.955398  0
C  C43  1  0.88220957  0.21585830  0.83337469  1  0  0.090666  0  3.740018  0  0  0.10249  0  3.969832  0  0  0.105907  0  3.991377  0  0  0.00735  0.100286  0  3.955289  0
C  C44  1  0.03652127  0.69580806  0.28170984  1  0  -0.176287  0  3.709741  0  0  -0.197558  0  3.96562  0  0  -0.204969  0  3.986527  0  0  -0.089178  -0.192653  0  3.951334  0
C  C45  1  0.96347767  0.30419188  0.71829074  1  0  -0.176237  0  3.709725  0  0  -0.197552  0  3.965555  0  0  -0.204964  0  3.986458  0  0  -0.089158  -0.192645  0  3.951269  0
C  C46  1  0.04070519  0.70585849  0.39951385  1  0  0.125604  0  3.691651  0  0  0.097164  0  3.937364  0  0  0.102867  0  3.957347  0  0  0.039375  0.093503  0  3.923716  0
C  C47  1  0.95929049  0.29414036  0.60048681  1  0  0.125503  0  3.691764  0  0  0.097072  0  3.937474  0  0  0.102772  0  3.957463  0  0  0.039349  0.093405  0  3.923823  0
C  C48  1  0.12218703  0.78201836  0.03621336  1  0  0.100095  0  3.730379  0  0  0.112551  0  3.959081  0  0  0.116749  0  3.98045  0  0  0.011062  0.110067  0  3.944632  0
C  C49  1  0.87780934  0.21798271  0.96378721  1  0  0.100092  0  3.730365  0  0  0.112503  0  3.95906  0  0  0.116702  0  3.980427  0  0  0.011076  0.110019  0  3.944614  0
C  C50  1  0.03038904  0.70507788  0.01120211  1  0  -0.16567  0  3.675757  0  0  -0.184148  0  3.926652  0  0  -0.192525  0  3.948479  0  0  -0.085902  -0.178495  0  3.91125  0
C  C51  1  0.96960898  0.29492096  0.98879817  1  0  -0.165728  0  3.675741  0  0  -0.184197  0  3.926671  0  0  -0.192575  0  3.948499  0  0  -0.085924  -0.178545  0  3.911267  0
C  C52  1  0.03944245  0.71213785  0.88462743  1  0  0.144157  0  3.675687  0  0  0.11023  0  3.929149  0  0  0.117366  0  3.947982  0  0  0.046064  0.105764  0  3.915668  0
C  C53  1  0.96055791  0.28786099  0.11537422  1  0  0.144193  0  3.675487  0  0  0.110248  0  3.928946  0  0  0.117379  0  3.947783  0  0  0.046036  0.105787  0  3.915467  0
C  C54  1  0.22340004  0.86185517  0.80683278  1  0  0.133935  0  3.705377  0  0  0.100297  0  3.959478  0  0  0.107049  0  3.978091  0  0  0.043489  0.095728  0  3.946734  0
C  C55  1  0.77660220  0.13814035  0.19316984  1  0  0.133915  0  3.705512  0  0  0.100281  0  3.959637  0  0  0.107028  0  3.978247  0  0  0.043466  0.095712  0  3.946893  0
C  C56  1  0.22133788  0.86036876  0.92966973  1  0  -0.157297  0  3.697499  0  0  -0.17694  0  3.946639  0  0  -0.185126  0  3.969225  0  0  -0.085794  -0.171437  0  3.931165  0
C  C57  1  0.77866130  0.13963008  0.07033123  1  0  -0.157187  0  3.69745  0  0  -0.176843  0  3.946618  0  0  -0.185028  0  3.969205  0  0  -0.085771  -0.17134  0  3.931144  0
S  S58  1  0.34461364  0.36964621  0.24957701  1  0  0.079852  0  2.470568  0  0  0.067675  0  2.819956  0  0  0.064882  0  2.81947  0  0  0.038528  0.069102  0  2.821076  0
S  S59  1  0.65538648  0.63035372  0.75042250  1  0  0.079842  0  2.470608  0  0  0.067657  0  2.819994  0  0  0.064872  0  2.819511  0  0  0.038518  0.069084  0  2.821115  0
S  S60  1  0.36567886  0.40586010  0.96771365  1  0  0.080764  0  2.493194  0  0  0.080164  0  2.825129  0  0  0.081352  0  2.827503  0  0  0.097303  0.077336  0  2.826896  0
S  S61  1  0.63432568  0.59414093  0.03228647  1  0  0.080746  0  2.493204  0  0  0.080166  0  2.825117  0  0  0.081356  0  2.82749  0  0  0.097329  0.077346  0  2.82687  0
S  S62  1  0.39122892  0.22618255  0.79693182  1  0  0.109168  0  2.450934  0  0  0.102264  0  2.78908  0  0  0.09937  0  2.78827  0  0  0.057129  0.1058  0  2.787671  0
S  S63  1  0.60877443  0.77382401  0.20306636  1  0  0.109165  0  2.450828  0  0  0.102276  0  2.788971  0  0  0.099386  0  2.788177  0  0  0.057125  0.105809  0  2.787567  0
N  N64  1  0.38610633  0.15263246  0.16137696  1  0  -0.215443  0  3.065572  0  0  -0.192009  0  3.355935  0  0  -0.202004  0  3.372302  0  0  -0.218173  -0.185073  0  3.344952  0
N  N65  1  0.61389145  0.84736748  0.83862293  1  0  -0.215446  0  3.065614  0  0  -0.192002  0  3.35595  0  0  -0.202001  0  3.37232  0  0  -0.218168  -0.185065  0  3.344967  0
N  N66  1  0.39990461  0.12342521  0.05273368  1  0  -0.211345  0  3.112069  0  0  -0.188907  0  3.407064  0  0  -0.197211  0  3.421955  0  0  -0.213597  -0.18319  0  3.398639  0
N  N67  1  0.60009571  0.87657914  0.94726322  1  0  -0.211359  0  3.111916  0  0  -0.188927  0  3.406933  0  0  -0.19723  0  3.421824  0  0  -0.213622  -0.183206  0  3.398494  0
N  N68  1  0.12038319  0.79589013  0.40973604  1  0  -0.324446  0  3.282947  0  0  -0.241775  0  3.542529  0  0  -0.260551  0  3.559378  0  0  -0.323493  -0.228376  0  3.530504  0
N  N69  1  0.87961647  0.20410650  0.59026570  1  0  -0.324473  0  3.282951  0  0  -0.241808  0  3.542514  0  0  -0.260586  0  3.559368  0  0  -0.323501  -0.22841  0  3.530493  0
N  N70  1  0.13346901  0.78990070  0.78327467  1  0  -0.320637  0  3.268081  0  0  -0.237235  0  3.529307  0  0  -0.256389  0  3.546153  0  0  -0.320245  -0.223854  0  3.51757  0
N  N71  1  0.86653090  0.21009482  0.21672746  1  0  -0.320651  0  3.268101  0  0  -0.237276  0  3.529369  0  0  -0.256432  0  3.546223  0  0  -0.320245  -0.223893  0  3.517628  0
O  O72  1  0.25354446  0.98569575  0.51521736  1  0  -0.637136  0  2.048151  0  0  -0.563375  0  2.316441  0  0  -0.591455  0  2.301589  0  0  -0.312386  -0.544316  0  2.326149  0
O  O73  1  0.74645099  0.01430422  0.48478291  1  0  -0.637084  0  2.048139  0  0  -0.563315  0  2.316462  0  0  -0.591395  0  2.301613  0  0  -0.312376  -0.544256  0  2.326168  0
O  O74  1  0.10197984  0.18013366  0.37031628  1  0  -0.651639  0  2.160511  0  0  -0.592031  0  2.454479  0  0  -0.619744  0  2.440993  0  0  -0.314577  -0.573565  0  2.463616  0
O  O75  1  0.89801839  0.81986961  0.62968314  1  0  -0.651683  0  2.160606  0  0  -0.591992  0  2.454551  0  0  -0.61972  0  2.441097  0  0  -0.314559  -0.573527  0  2.463691  0
O  O76  1  0.17511217  0.53141087  0.69533645  1  0  -0.633341  0  1.962118  0  0  -0.580133  0  2.202035  0  0  -0.605185  0  2.193787  0  0  -0.321502  -0.563239  0  2.207419  0
O  O77  1  0.82488650  0.46859569  0.30465986  1  0  -0.6333  0  1.962126  0  0  -0.580111  0  2.202105  0  0  -0.605167  0  2.193852  0  0  -0.32146  -0.563216  0  2.207488  0
O  O78  1  0.37020158  0.65603092  0.58925770  1  0  -0.640529  0  2.001177  0  0  -0.57717  0  2.252638  0  0  -0.607102  0  2.244948  0  0  -0.326078  -0.557261  0  2.257296  0
O  O79  1  0.62980059  0.34397563  0.41073892  1  0  -0.640629  0  2.001137  0  0  -0.577253  0  2.252607  0  0  -0.607163  0  2.244862  0  0  -0.326113  -0.557347  0  2.257275  0
