# generated using pymatgen
data_KCrH26C16(NO4)2
_symmetry_space_group_name_H-M   'P 1'
_cell_length_a   7.85437065
_cell_length_b   7.82407191
_cell_length_c   19.70700000
_cell_angle_alpha   90.00000000
_cell_angle_beta   90.00000000
_cell_angle_gamma   108.03146895
_symmetry_Int_Tables_number   1
_chemical_formula_structural   KCrH26C16(NO4)2
_chemical_formula_sum   'K2 Cr2 H52 C32 N4 O16'
_cell_volume   1151.57835070
_cell_formula_units_Z   2
loop_
 _symmetry_equiv_pos_site_id
 _symmetry_equiv_pos_as_xyz
  1  'x, y, z'
loop_
 _atom_site_type_symbol
 _atom_site_label
 _atom_site_symmetry_multiplicity
 _atom_site_fract_x
 _atom_site_fract_y
 _atom_site_fract_z
 _atom_site_occupancy
 _atom_site_hle17_ddec_charge
 _atom_site_hle17_ddec_spin_density
 _atom_site_hle17_ddec_sum_bond_order
 _atom_site_hle17_magmom
 _atom_site_hse06_10hf_ddec_charge
 _atom_site_hse06_10hf_ddec_spin_density
 _atom_site_hse06_10hf_ddec_sum_bond_order
 _atom_site_hse06_10hf_magmom
 _atom_site_hse06_ddec_charge
 _atom_site_hse06_ddec_spin_density
 _atom_site_hse06_ddec_sum_bond_order
 _atom_site_hse06_magmom
 _atom_site_pbe_bader_charge
 _atom_site_pbe_bader_spin_density
 _atom_site_pbe_cm5_charge
 _atom_site_pbe_ddec_charge
 _atom_site_pbe_ddec_spin_density
 _atom_site_pbe_ddec_sum_bond_order
 _atom_site_pbe_magmom
K  K0  1  0.50000585  0.50000097  0.00000000  1  0.92633  0.000872  0.490528  0.0  0.884972  0.000203  0.675342  0.0  0.898776  0.000375  0.653966  0.0  0.881016  -0.001138  0.812332  0.874414  -1.8e-05  0.690855  0.0
K  K1  1  0.50000263  0.99999926  0.50000051  1  0.926343  0.000866  0.490556  0.0  0.884966  0.000204  0.675394  0.0  0.898789  0.000374  0.654001  0.0  0.880959  -0.001139  0.812296  0.874404  -1.8e-05  0.690914  0.0
Cr  Cr2  1  0.99999940  0.99999926  0.99999797  1  1.305586  -3.234008  2.262377  -3.117  1.303967  -2.986112  2.654323  -2.897  1.385877  -3.014129  2.612239  -2.937  1.688749  -2.839948  1.03715  1.249046  -2.952813  2.68383  -2.853
Cr  Cr3  1  0.00000016  0.50000097  0.50000000  1  1.305619  -3.234023  2.262295  -3.117  1.30397  -2.986129  2.654252  -2.897  1.385877  -3.014144  2.61217  -2.937  1.688838  -2.839949  1.037192  1.24905  -2.952831  2.683764  -2.853
H  H4  1  0.37441237  0.01021263  0.91509007  1  0.128113  0.000457  0.925497  0.0  0.143642  0.000226  0.980117  0.0  0.146436  0.000299  0.978001  0.0  0.1265  -0.00013  0.126577  0.141518  0.000131  0.98187  0.0
H  H5  1  0.62558486  0.48977087  0.41508804  1  0.128126  0.000457  0.925571  0.0  0.143629  0.000225  0.980181  0.0  0.146469  0.000299  0.978005  0.0  0.126384  -0.00013  0.12661  0.14148  0.000131  0.981961  0.0
H  H6  1  0.62558659  0.98978931  0.08490942  1  0.128173  0.000457  0.925497  0.0  0.143692  0.000225  0.980111  0.0  0.146487  0.000299  0.977995  0.0  0.126512  -0.000129  0.126581  0.141567  0.000131  0.981867  0.0
H  H7  1  0.37441836  0.51022839  0.58491247  1  0.128107  0.000458  0.925541  0.0  0.143593  0.000225  0.980156  0.0  0.14642  0.000299  0.978002  0.0  0.126406  -0.00013  0.12659  0.141444  0.000131  0.981937  0.0
H  H8  1  0.29218684  0.77906875  0.89472725  1  0.110589  0.001614  0.935066  0.001  0.125751  0.000752  0.991131  0.0  0.128467  0.000753  0.988981  0.0  0.087028  0.000607  0.120409  0.123737  0.000695  0.992822  0.0
H  H9  1  0.70779760  0.72091132  0.39472624  1  0.110664  0.001614  0.93503  0.001  0.125815  0.000751  0.991069  0.0  0.12853  0.000752  0.988922  0.0  0.086962  0.000607  0.120423  0.123801  0.000695  0.992757  0.0
H  H10  1  0.70781127  0.22093454  0.10527275  1  0.110696  0.001615  0.935025  0.001  0.125857  0.000752  0.991053  0.0  0.128572  0.000752  0.988903  0.0  0.086995  0.000608  0.120457  0.123843  0.000695  0.992746  0.0
H  H11  1  0.29220352  0.27908525  0.60527275  1  0.110693  0.001615  0.934963  0.001  0.125831  0.000752  0.991004  0.0  0.128549  0.000752  0.988857  0.0  0.086939  0.000607  0.120444  0.123818  0.000695  0.992693  0.0
H  H12  1  0.99934187  0.08675630  0.84381895  1  0.115233  0.000211  0.930265  0.0  0.13012  6.3e-05  0.987514  0.0  0.132392  0.000149  0.986158  0.0  0.08278  -0.000307  0.121901  0.128429  -4e-05  0.988736  0.0
H  H13  1  0.00065993  0.41324198  0.34381793  1  0.115225  0.00021  0.930336  0.0  0.13011  6.3e-05  0.987556  0.0  0.13239  0.000149  0.986205  0.0  0.08318  -0.000306  0.121897  0.128415  -4e-05  0.988776  0.0
H  H14  1  0.00065627  0.91324296  0.15618105  1  0.115247  0.00021  0.930267  0.0  0.130127  6.3e-05  0.987514  0.0  0.132403  0.000149  0.986162  0.0  0.082795  -0.000307  0.121914  0.128436  -4e-05  0.988734  0.0
H  H15  1  0.99933820  0.58675727  0.65618156  1  0.115235  0.00021  0.93033  0.0  0.130115  6.3e-05  0.987556  0.0  0.132394  0.000149  0.986205  0.0  0.082738  -0.000307  0.121896  0.12842  -4e-05  0.988777  0.0
H  H16  1  0.21257367  0.06992253  0.81953012  1  0.107202  0.002111  0.912192  0.002  0.124597  0.00082  0.964092  0.0  0.126615  0.000826  0.963019  0.0  0.078288  0.000491  0.116188  0.123116  0.000731  0.965034  0.0
H  H17  1  0.78742605  0.43006904  0.31952961  1  0.107181  0.00211  0.912074  0.002  0.124558  0.00082  0.963991  0.0  0.126583  0.000826  0.962926  0.0  0.078491  0.000492  0.116174  0.123074  0.000731  0.964931  0.0
H  H18  1  0.78742404  0.93007539  0.18047090  1  0.107173  0.00211  0.912199  0.002  0.124564  0.000821  0.964096  0.0  0.126585  0.000826  0.963027  0.0  0.078415  0.000493  0.11617  0.123081  0.000732  0.965038  0.0
H  H19  1  0.21257336  0.56993022  0.68047039  1  0.107192  0.00211  0.912063  0.002  0.124565  0.00082  0.963981  0.0  0.12659  0.000826  0.962914  0.0  0.078499  0.000491  0.116177  0.123081  0.000731  0.964921  0.0
H  H20  1  0.94369945  0.59302625  0.77877911  1  0.106641  0.000388  0.947721  0.0  0.130864  0.000177  1.004672  0.0  0.131787  0.000157  1.005315  0.0  0.0049  0.000175  0.093466  0.13014  0.000172  1.004295  0.0
H  H21  1  0.05630056  0.90697129  0.27878013  1  0.106663  0.000387  0.947714  0.0  0.1309  0.000177  1.004651  0.0  0.131823  0.000157  1.005291  0.0  0.004853  0.000175  0.093489  0.130175  0.000172  1.004275  0.0
H  H22  1  0.05629910  0.40697435  0.22122139  1  0.106631  0.000387  0.947729  0.0  0.13086  0.000177  1.00468  0.0  0.131784  0.000157  1.005322  0.0  0.004885  0.000175  0.093458  0.130136  0.000172  1.004304  0.0
H  H23  1  0.94369716  0.09302663  0.72122038  1  0.106624  0.000387  0.947755  0.0  0.130858  0.000177  1.004695  0.0  0.131781  0.000157  1.005337  0.0  0.004816  0.000175  0.093475  0.130134  0.000172  1.004318  0.0
H  H24  1  0.03185607  0.82764126  0.76454914  1  0.106427  -5.6e-05  0.955158  0.0  0.126947  7.2e-05  1.017331  0.0  0.128195  6.1e-05  1.017703  0.0  0.027025  -2.8e-05  0.089786  0.125986  7.7e-05  1.017138  0.0
H  H25  1  0.96814349  0.67235897  0.26454965  1  0.106444  -5.6e-05  0.955186  0.0  0.126972  7.2e-05  1.017347  0.0  0.128222  6e-05  1.017715  0.0  0.027026  -2.8e-05  0.089801  0.126011  7.7e-05  1.017155  0.0
H  H26  1  0.96814289  0.17236069  0.23545136  1  0.106457  -5.6e-05  0.955153  0.0  0.126975  7.2e-05  1.01733  0.0  0.128222  6e-05  1.017703  0.0  0.027024  -2.8e-05  0.089799  0.126013  7.7e-05  1.01714  0.0
H  H27  1  0.03185464  0.32764028  0.73545035  1  0.106429  -5.5e-05  0.95516  0.0  0.12695  7.2e-05  1.017327  0.0  0.128198  6e-05  1.017699  0.0  0.027031  -2.8e-05  0.089793  0.12599  7.7e-05  1.017134  0.0
H  H28  1  0.16845369  0.70708434  0.80080276  1  0.113127  -6.3e-05  0.943268  0.0  0.135177  6.1e-05  1.000288  0.0  0.136964  5.3e-05  0.999596  0.0  0.038043  -5.4e-05  0.093995  0.133804  6e-05  1.000926  0.0
H  H29  1  0.83154715  0.79291589  0.30080378  1  0.113126  -6.3e-05  0.943288  0.0  0.135165  6.1e-05  1.000323  0.0  0.136949  5.3e-05  0.999634  0.0  0.038056  -5.3e-05  0.094007  0.133792  6e-05  1.00096  0.0
H  H30  1  0.83154782  0.29291760  0.19919673  1  0.113125  -6.3e-05  0.943289  0.0  0.135176  6.1e-05  1.000315  0.0  0.136962  5.3e-05  0.999622  0.0  0.038042  -5.3e-05  0.094002  0.133805  6e-05  1.000947  0.0
H  H31  1  0.16845226  0.20708337  0.69919673  1  0.113129  -6.3e-05  0.943214  0.0  0.135165  6.1e-05  1.000253  0.0  0.136949  5.3e-05  0.999564  0.0  0.038078  -5.4e-05  0.09399  0.133792  6e-05  1.000889  0.0
H  H32  1  0.77503794  0.87580918  0.82959659  1  0.107064  0.000135  0.947715  0.0  0.129457  0.000147  1.005358  0.0  0.131016  0.00014  1.004737  0.0  0.020732  -0.000112  0.090001  0.128279  0.000141  1.005926  0.0
H  H33  1  0.22496292  0.62418702  0.32960014  1  0.107109  0.000135  0.947626  0.0  0.129499  0.000147  1.005281  0.0  0.131058  0.00014  1.004659  0.0  0.020674  -0.000112  0.090005  0.12832  0.000141  1.005851  0.0
H  H34  1  0.22496063  0.12418739  0.17040442  1  0.107053  0.000135  0.947744  0.0  0.129448  0.000147  1.005392  0.0  0.131007  0.00014  1.004771  0.0  0.020719  -0.000111  0.089985  0.128268  0.000142  1.005963  0.0
H  H35  1  0.77503817  0.37581359  0.67039986  1  0.107109  0.000135  0.947623  0.0  0.129494  0.000147  1.005284  0.0  0.131054  0.00014  1.004663  0.0  0.020676  -0.000112  0.089998  0.128315  0.000141  1.005855  0.0
H  H36  1  0.68507627  0.64116192  0.84240980  1  0.11808  -3.4e-05  0.936649  0.0  0.143647  -1.6e-05  0.988669  0.0  0.145243  -1.2e-05  0.988481  0.0  0.041768  -0.000281  0.100955  0.142471  -3.1e-05  0.988889  0.0
H  H37  1  0.31491991  0.85883562  0.34241488  1  0.118082  -3.4e-05  0.936677  0.0  0.143648  -1.6e-05  0.988709  0.0  0.145242  -1.2e-05  0.988523  0.0  0.041875  -0.000281  0.100973  0.142472  -3.1e-05  0.988929  0.0
H  H38  1  0.31492399  0.35883599  0.15759020  1  0.118081  -3.5e-05  0.936721  0.0  0.143654  -1.6e-05  0.988739  0.0  0.145249  -1.2e-05  0.988552  0.0  0.041777  -0.000281  0.100952  0.142476  -3e-05  0.988961  0.0
H  H39  1  0.68507822  0.14116364  0.65758563  1  0.118108  -3.4e-05  0.936658  0.0  0.143663  -1.6e-05  0.988699  0.0  0.145258  -1.2e-05  0.988513  0.0  0.041864  -0.000282  0.100955  0.142488  -3.1e-05  0.988919  0.0
H  H40  1  0.72347808  0.79132848  0.91279748  1  0.115653  -0.000687  0.985892  0.0  0.129995  -0.00091  1.057458  0.0  0.132998  -0.000698  1.055385  0.0  0.054585  -0.001428  0.095877  0.127688  -0.0011  1.05915  0.0
H  H41  1  0.27651470  0.70867041  0.41280104  1  0.115583  -0.000687  0.985983  0.0  0.129957  -0.000911  1.057526  0.0  0.132958  -0.000698  1.055455  0.0  0.054418  -0.001426  0.095866  0.12765  -0.0011  1.059217  0.0
H  H42  1  0.27652005  0.20867078  0.08720302  1  0.115621  -0.000686  0.985963  0.0  0.129973  -0.00091  1.057513  0.0  0.132976  -0.000698  1.05544  0.0  0.054615  -0.001425  0.09586  0.127666  -0.001099  1.059207  0.0
H  H43  1  0.72348216  0.29132885  0.58719896  1  0.11558  -0.000686  0.985977  0.0  0.129958  -0.00091  1.057509  0.0  0.132958  -0.000698  1.055442  0.0  0.054419  -0.001426  0.09586  0.127652  -0.0011  1.0592  0.0
H  H44  1  0.92037353  0.59739465  0.96660780  1  0.121049  8.8e-05  0.984106  0.0  0.137315  -3.5e-05  1.050254  0.0  0.139751  5e-05  1.049754  0.0  0.076576  -0.000496  0.096404  0.135457  -0.000118  1.050769  0.0
H  H45  1  0.07962307  0.90260424  0.46660882  1  0.12106  8.9e-05  0.984116  0.0  0.137327  -3.4e-05  1.050256  0.0  0.139763  5e-05  1.049756  0.0  0.076555  -0.000496  0.096385  0.135468  -0.000118  1.050773  0.0
H  H46  1  0.07962673  0.40260327  0.03339321  1  0.121029  8.8e-05  0.984173  0.0  0.137324  -3.4e-05  1.050291  0.0  0.139759  5e-05  1.049787  0.0  0.076595  -0.000496  0.096408  0.135466  -0.000118  1.050808  0.0
H  H47  1  0.92037296  0.09739233  0.53339118  1  0.121028  8.8e-05  0.984096  0.0  0.137297  -3.5e-05  1.050253  0.0  0.139733  5e-05  1.049753  0.0  0.076553  -0.000496  0.096387  0.135439  -0.000118  1.050768  0.0
H  H48  1  0.84603913  0.46211423  0.89385802  1  0.120728  -4.8e-05  0.939136  0.0  0.143423  -3e-06  0.994572  0.0  0.145807  4e-06  0.993409  0.0  0.038868  -0.000217  0.09833  0.141634  -1.8e-05  0.995508  0.0
H  H49  1  0.15395546  0.03788137  0.39385802  1  0.120725  -4.7e-05  0.939127  0.0  0.143445  -3e-06  0.994524  0.0  0.145832  5e-06  0.993364  0.0  0.038947  -0.000217  0.098324  0.141657  -1.8e-05  0.99546  0.0
H  H50  1  0.15396069  0.53788637  0.10614198  1  0.120727  -4.8e-05  0.939116  0.0  0.14343  -3e-06  0.994553  0.0  0.145814  4e-06  0.993392  0.0  0.038876  -0.000216  0.098328  0.14164  -1.8e-05  0.995491  0.0
H  H51  1  0.84604267  0.96211789  0.60614198  1  0.120702  -4.7e-05  0.939131  0.0  0.143432  -3e-06  0.994534  0.0  0.145818  4e-06  0.99337  0.0  0.038929  -0.000217  0.098333  0.141644  -1.8e-05  0.99547  0.0
H  H52  1  0.07715046  0.54229375  0.91190897  1  0.116515  5.7e-05  0.9652  0.0  0.135367  5.4e-05  1.027867  0.0  0.136837  6.9e-05  1.028213  0.0  0.067191  -0.000158  0.092484  0.134241  3.6e-05  1.027721  0.0
H  H53  1  0.92284149  0.95770245  0.41190947  1  0.116527  5.7e-05  0.965166  0.0  0.135348  5.4e-05  1.027886  0.0  0.136818  6.9e-05  1.028231  0.0  0.0671  -0.000158  0.092443  0.134223  3.6e-05  1.027737  0.0
H  H54  1  0.92284767  0.45770551  0.08809154  1  0.116515  5.7e-05  0.965176  0.0  0.135359  5.4e-05  1.02787  0.0  0.136829  6.9e-05  1.028216  0.0  0.067186  -0.000158  0.092469  0.134233  3.6e-05  1.027725  0.0
H  H55  1  0.07715412  0.04229277  0.58809103  1  0.116505  5.7e-05  0.965167  0.0  0.135351  5.4e-05  1.027861  0.0  0.136822  6.9e-05  1.028207  0.0  0.067255  -0.000158  0.092461  0.134226  3.6e-05  1.027714  0.0
C  C56  1  0.28154126  0.84887703  0.00035419  1  0.702576  -0.006269  3.838755  -0.008  0.662481  -0.006687  4.144214  -0.008  0.697831  -0.004443  4.134576  -0.006  1.58908  -0.009549  0.214919  0.638126  -0.008981  4.150205  -0.009
C  C57  1  0.71845839  0.65111111  0.50035216  1  0.702875  -0.00627  3.838307  -0.008  0.662666  -0.006687  4.143903  -0.008  0.697997  -0.004445  4.134298  -0.006  1.589245  -0.009548  0.215024  0.638324  -0.008981  4.149865  -0.009
C  C58  1  0.71845939  0.15112626  0.99964632  1  0.702651  -0.006269  3.838727  -0.008  0.662503  -0.006688  4.144247  -0.008  0.697848  -0.004443  4.134615  -0.006  1.589085  -0.00955  0.214934  0.638148  -0.008982  4.150237  -0.009
C  C59  1  0.28154398  0.34888950  0.49964683  1  0.70271  -0.006269  3.838581  -0.008  0.662569  -0.006687  4.144059  -0.008  0.697929  -0.004444  4.13441  -0.006  1.58926  -0.009547  0.214946  0.638215  -0.00898  4.150042  -0.009
C  C60  1  0.26503763  0.88524760  0.92500076  1  -0.200103  -0.002911  3.608109  -0.005  -0.253655  -0.00253  3.856581  -0.004  -0.255089  -0.002221  3.86368  -0.003  0.1822  -0.004317  -0.073433  -0.252572  -0.002932  3.851946  -0.004
C  C61  1  0.73495569  0.61473650  0.42499975  1  -0.200271  -0.002909  3.608101  -0.005  -0.253719  -0.002529  3.856517  -0.004  -0.255167  -0.00222  3.863578  -0.003  0.182301  -0.004317  -0.073476  -0.252619  -0.002932  3.851897  -0.004
C  C62  1  0.73496260  0.11475434  0.07499975  1  -0.200399  -0.00291  3.60826  -0.005  -0.253907  -0.002529  3.856714  -0.004  -0.255337  -0.002221  3.863811  -0.003  0.182203  -0.004317  -0.073497  -0.252824  -0.002931  3.852079  -0.004
C  C63  1  0.26505008  0.38526276  0.57499975  1  -0.200146  -0.002913  3.60798  -0.005  -0.253549  -0.002528  3.85632  -0.004  -0.255009  -0.00222  3.863397  -0.003  0.182414  -0.004317  -0.073454  -0.252449  -0.002932  3.851707  -0.004
C  C64  1  0.12630465  0.07460948  0.86289948  1  -0.181564  -0.003779  3.637932  -0.005  -0.239581  -0.00348  3.895003  -0.003  -0.240686  -0.003115  3.902704  -0.003  0.226616  -0.004401  -0.074495  -0.238914  -0.003928  3.890201  -0.004
C  C65  1  0.87369969  0.42538881  0.36289897  1  -0.181627  -0.003773  3.637816  -0.005  -0.239574  -0.003479  3.894858  -0.003  -0.240732  -0.003112  3.902629  -0.003  0.22591  -0.004399  -0.074489  -0.23889  -0.003926  3.890046  -0.004
C  C66  1  0.87369431  0.92539247  0.13710103  1  -0.181548  -0.003775  3.637868  -0.005  -0.23954  -0.003479  3.894897  -0.003  -0.24067  -0.003114  3.902633  -0.003  0.226617  -0.0044  -0.074476  -0.238863  -0.003927  3.89008  -0.004
C  C67  1  0.12630140  0.57461179  0.63710052  1  -0.181572  -0.003775  3.637804  -0.005  -0.239514  -0.003479  3.894819  -0.003  -0.240666  -0.003113  3.902586  -0.003  0.226383  -0.004399  -0.074429  -0.238821  -0.003927  3.889985  -0.004
C  C68  1  0.21467348  0.24206009  0.90487948  1  0.675983  -0.005556  3.86532  -0.007  0.636477  -0.005603  4.171156  -0.007  0.671217  -0.00353  4.161427  -0.005  1.560505  -0.008845  0.192244  0.612568  -0.007798  4.177307  -0.008
C  C69  1  0.78534134  0.25795567  0.40488304  1  0.676159  -0.005559  3.864856  -0.007  0.636566  -0.005604  4.170798  -0.007  0.671326  -0.003531  4.161056  -0.005  1.560406  -0.008846  0.192189  0.612648  -0.007799  4.176938  -0.008
C  C70  1  0.78532844  0.75794320  0.09512001  1  0.676016  -0.005555  3.865283  -0.007  0.636523  -0.005603  4.171108  -0.007  0.671272  -0.003529  4.161371  -0.005  1.560349  -0.008845  0.192192  0.612611  -0.007798  4.177257  -0.008
C  C71  1  0.21465721  0.74204493  0.59511646  1  0.6762  -0.005557  3.864729  -0.007  0.636626  -0.005603  4.170641  -0.007  0.671378  -0.003531  4.160913  -0.005  1.560405  -0.008845  0.19222  0.61271  -0.007799  4.176785  -0.008
C  C72  1  0.96336005  0.74405977  0.87076014  1  0.331774  -0.002472  3.494908  -0.004  0.354916  -0.002562  3.735409  -0.003  0.360461  -0.002386  3.753924  -0.003  0.289299  -0.003425  0.071903  0.351108  -0.002795  3.722687  -0.003
C  C73  1  0.03663486  0.75593777  0.37076115  1  0.331777  -0.00247  3.494898  -0.004  0.354938  -0.002562  3.735362  -0.003  0.360484  -0.002385  3.753872  -0.003  0.289329  -0.003424  0.071948  0.351134  -0.002794  3.722639  -0.003
C  C74  1  0.03664062  0.25593949  0.12924037  1  0.331727  -0.002471  3.494845  -0.004  0.354915  -0.002561  3.73531  -0.003  0.36046  -0.002385  3.753821  -0.003  0.289368  -0.003424  0.071915  0.351107  -0.002794  3.722591  -0.003
C  C75  1  0.96336454  0.24406149  0.62923834  1  0.331771  -0.002471  3.494947  -0.004  0.35499  -0.002562  3.735335  -0.003  0.360537  -0.002385  3.753844  -0.003  0.289308  -0.003425  0.071973  0.351185  -0.002794  3.722613  -0.003
C  C76  1  0.03284411  0.71915858  0.79972954  1  -0.364413  0.004906  3.648662  0.003  -0.447439  0.002265  3.887728  0.001  -0.451324  0.002135  3.898775  0.001  -0.053082  0.001484  -0.241632  -0.444429  0.00225  3.880025  0.001
C  C77  1  0.96715590  0.78083896  0.29973055  1  -0.36444  0.004907  3.648748  0.003  -0.447478  0.002264  3.887814  0.001  -0.451358  0.002135  3.898854  0.001  -0.053008  0.001485  -0.241672  -0.444471  0.002251  3.880116  0.001
C  C78  1  0.96715612  0.28084336  0.20027097  1  -0.364448  0.004906  3.64872  0.003  -0.447492  0.002265  3.887779  0.001  -0.451375  0.002136  3.898822  0.001  -0.053088  0.001485  -0.241664  -0.44447  0.00225  3.880047  0.001
C  C79  1  0.03284055  0.21915895  0.70026945  1  -0.364382  0.004906  3.64872  0.003  -0.447418  0.002264  3.887768  0.001  -0.4513  0.002135  3.898812  0.001  -0.052951  0.001484  -0.241637  -0.44441  0.00225  3.880066  0.001
C  C80  1  0.77647278  0.76550119  0.86381184  1  -0.379011  -0.000266  3.655484  0.0  -0.463611  -0.00125  3.89386  0.0  -0.467143  -0.00097  3.901968  0.0  -0.075571  -0.001116  -0.242649  -0.460912  -0.001525  3.888436  0.0
C  C81  1  0.22352468  0.73449635  0.36381540  1  -0.379031  -0.000267  3.65539  0.0  -0.463674  -0.00125  3.893801  0.0  -0.467205  -0.000971  3.901906  0.0  -0.075394  -0.001117  -0.242715  -0.460974  -0.001525  3.888375  0.0
C  C82  1  0.22352959  0.23449941  0.13618866  1  -0.378915  -0.000266  3.655481  0.0  -0.463542  -0.001249  3.89386  0.0  -0.467075  -0.000969  3.901969  0.0  -0.075602  -0.001115  -0.242606  -0.460845  -0.001524  3.888441  0.0
C  C83  1  0.77647386  0.26550425  0.63618460  1  -0.379023  -0.000268  3.655379  0.0  -0.463665  -0.00125  3.893752  0.0  -0.467194  -0.000971  3.901852  0.0  -0.075387  -0.001117  -0.24267  -0.460964  -0.001525  3.888325  0.0
C  C84  1  0.95268486  0.57784978  0.91372000  1  -0.382629  0.000254  3.624398  0.0  -0.463029  1e-05  3.85793  0.0  -0.467641  0.000137  3.86749  0.0  -0.127752  -0.000215  -0.24779  -0.459539  -0.000125  3.85144  0.0
C  C85  1  0.04730964  0.92214642  0.41372152  1  -0.382612  0.000252  3.624339  0.0  -0.463018  1e-05  3.857875  0.0  -0.467636  0.000136  3.867437  0.0  -0.127765  -0.000215  -0.24771  -0.459528  -0.000125  3.851382  0.0
C  C86  1  0.04731455  0.42214948  0.08628000  1  -0.3826  0.000256  3.624421  0.0  -0.463045  1e-05  3.857972  0.0  -0.467652  0.000137  3.867528  0.0  -0.127837  -0.000215  -0.247794  -0.459558  -0.000125  3.851485  0.0
C  C87  1  0.95268935  0.07785150  0.58627899  1  -0.382533  0.000254  3.624333  0.0  -0.462992  1e-05  3.857876  0.0  -0.467605  0.000136  3.867433  0.0  -0.127927  -0.000216  -0.247761  -0.459502  -0.000125  3.851383  0.0
N  N88  1  0.08951266  0.91115823  0.90603491  1  -0.238524  0.066846  3.115788  0.073  -0.182065  0.028509  3.379268  0.039  -0.204278  0.030093  3.402648  0.04  -0.970155  0.012149  -0.334584  -0.167399  0.026111  3.363858  0.037
N  N89  1  0.91048651  0.58883663  0.40603491  1  -0.238462  0.066843  3.115691  0.073  -0.182019  0.028512  3.379079  0.039  -0.204223  0.030096  3.402476  0.04  -0.970237  0.01214  -0.334606  -0.167361  0.026113  3.36367  0.037
N  N90  1  0.91048716  0.08884238  0.09396458  1  -0.238508  0.066841  3.115843  0.073  -0.182092  0.028508  3.37934  0.039  -0.204299  0.030092  3.402723  0.04  -0.970182  0.012144  -0.334588  -0.167426  0.026111  3.363924  0.037
N  N91  1  0.08951544  0.41116263  0.59396407  1  -0.238656  0.066845  3.115894  0.073  -0.182261  0.02851  3.379312  0.039  -0.204461  0.030094  3.402703  0.04  -0.970367  0.012137  -0.334657  -0.1676  0.026111  3.363899  0.037
O  O92  1  0.17459749  0.89776675  0.04080834  1  -0.634065  0.028296  2.049034  0.042  -0.604481  -0.005809  2.319537  0.012  -0.63876  -0.00296  2.310971  0.014  -1.14774  -0.024968  -0.349006  -0.580696  -0.009049  2.325004  0.01
O  O93  1  0.82540205  0.60223752  0.54080733  1  -0.634097  0.028298  2.048954  0.042  -0.604494  -0.005806  2.319543  0.012  -0.638766  -0.002955  2.310988  0.014  -1.147912  -0.024973  -0.34904  -0.580709  -0.009047  2.325001  0.01
O  O94  1  0.82540485  0.10223789  0.95919267  1  -0.634014  0.028293  2.04903  0.042  -0.604399  -0.005812  2.319548  0.012  -0.638682  -0.002962  2.310995  0.014  -1.147725  -0.02498  -0.348988  -0.580612  -0.009053  2.325015  0.01
O  O95  1  0.17460449  0.39777249  0.45919267  1  -0.634043  0.028297  2.04905  0.042  -0.604494  -0.005808  2.31963  0.012  -0.638777  -0.002957  2.311064  0.014  -1.147914  -0.024972  -0.348973  -0.580705  -0.009049  2.325096  0.01
O  O96  1  0.18751934  0.22154746  0.97026336  1  -0.683867  0.02568  2.125286  0.041  -0.652048  -0.005454  2.403674  0.013  -0.686842  -0.003007  2.396721  0.014  -1.136006  -0.021497  -0.40063  -0.627865  -0.008274  2.40807  0.011
O  O97  1  0.81248624  0.27845486  0.47026387  1  -0.683888  0.025676  2.12539  0.041  -0.651996  -0.005453  2.403752  0.013  -0.686787  -0.003007  2.396789  0.014  -1.136034  -0.021496  -0.400605  -0.627845  -0.008274  2.408226  0.011
O  O98  1  0.81248471  0.77845449  0.02973664  1  -0.683859  0.025677  2.125375  0.041  -0.651998  -0.005456  2.403672  0.013  -0.68679  -0.003009  2.396713  0.014  -1.135959  -0.021499  -0.400606  -0.62783  -0.008276  2.408103  0.011
O  O99  1  0.18751355  0.72154978  0.52973563  1  -0.683875  0.025681  2.125355  0.041  -0.651992  -0.005447  2.403747  0.013  -0.686782  -0.003002  2.396793  0.014  -1.136065  -0.021494  -0.400563  -0.62783  -0.008268  2.40819  0.011
O  O100  1  0.39815257  0.78312934  0.01984523  1  -0.637451  0.003738  1.929048  0.002  -0.601746  -0.003216  2.160569  -0.005  -0.624651  -0.002596  2.150364  -0.004  -1.189322  -0.007057  -0.408214  -0.585428  -0.004051  2.166992  -0.005
O  O101  1  0.60184065  0.71686686  0.51984422  1  -0.637613  0.003741  1.928784  0.002  -0.601844  -0.003216  2.160322  -0.005  -0.624764  -0.002596  2.150154  -0.004  -1.189237  -0.007058  -0.408245  -0.585519  -0.004051  2.166723  -0.005
O  O102  1  0.60185189  0.21687395  0.98015375  1  -0.637436  0.003738  1.929042  0.002  -0.601723  -0.003216  2.160599  -0.005  -0.624625  -0.002596  2.150397  -0.004  -1.189335  -0.007058  -0.408223  -0.585407  -0.004052  2.167023  -0.005
O  O103  1  0.39815916  0.28313375  0.48015477  1  -0.637574  0.003741  1.928898  0.002  -0.601845  -0.003217  2.160424  -0.005  -0.624763  -0.002597  2.15022  -0.004  -1.189278  -0.007058  -0.408244  -0.585519  -0.004051  2.166838  -0.005
O  O104  1  0.30433196  0.38467000  0.87781296  1  -0.611109  0.00393  1.852077  0.003  -0.577038  -0.002645  2.056976  -0.004  -0.597976  -0.002108  2.047198  -0.003  -1.177251  -0.005984  -0.367742  -0.562319  -0.003452  2.063345  -0.005
O  O105  1  0.69566222  0.11532425  0.37781448  1  -0.611264  0.003933  1.851541  0.003  -0.577169  -0.002647  2.056467  -0.004  -0.598116  -0.00211  2.046677  -0.003  -1.177003  -0.005984  -0.367758  -0.562442  -0.003451  2.06284  -0.005
O  O106  1  0.69566658  0.61533060  0.12218450  1  -0.61113  0.00393  1.852026  0.003  -0.577065  -0.002645  2.056918  -0.004  -0.598004  -0.002109  2.047135  -0.003  -1.177203  -0.005982  -0.367728  -0.562346  -0.00345  2.063288  -0.005
O  O107  1  0.30433461  0.88467904  0.62218603  1  -0.611301  0.003933  1.851412  0.003  -0.577221  -0.002647  2.05633  -0.004  -0.598164  -0.00211  2.046545  -0.003  -1.177008  -0.005985  -0.367841  -0.562496  -0.003453  2.0627  -0.005
