# generated using pymatgen
data_CdH8C16N10O
_symmetry_space_group_name_H-M   'P 1'
_cell_length_a   8.03091766
_cell_length_b   14.81406319
_cell_length_c   15.45000000
_cell_angle_alpha   90.00000000
_cell_angle_beta   97.07428174
_cell_angle_gamma   90.00000000
_symmetry_Int_Tables_number   1
_chemical_formula_structural   CdH8C16N10O
_chemical_formula_sum   'Cd4 H32 C64 N40 O4'
_cell_volume   1824.10173312
_cell_formula_units_Z   4
loop_
 _symmetry_equiv_pos_site_id
 _symmetry_equiv_pos_as_xyz
  1  'x, y, z'
loop_
 _atom_site_type_symbol
 _atom_site_label
 _atom_site_symmetry_multiplicity
 _atom_site_fract_x
 _atom_site_fract_y
 _atom_site_fract_z
 _atom_site_occupancy
 _atom_site_hle17_bader_spin_density
 _atom_site_hle17_ddec_charge
 _atom_site_hle17_ddec_spin_density
 _atom_site_hle17_ddec_sum_bond_order
 _atom_site_hle17_magmom
 _atom_site_hse06_10hf_bader_spin_density
 _atom_site_hse06_10hf_ddec_charge
 _atom_site_hse06_10hf_ddec_spin_density
 _atom_site_hse06_10hf_ddec_sum_bond_order
 _atom_site_hse06_10hf_magmom
 _atom_site_hse06_bader_spin_density
 _atom_site_hse06_ddec_charge
 _atom_site_hse06_ddec_spin_density
 _atom_site_hse06_ddec_sum_bond_order
 _atom_site_hse06_magmom
 _atom_site_pbe_bader_charge
 _atom_site_pbe_bader_spin_density
 _atom_site_pbe_cm5_charge
 _atom_site_pbe_ddec_charge
 _atom_site_pbe_ddec_spin_density
 _atom_site_pbe_ddec_sum_bond_order
 _atom_site_pbe_magmom
Cd  Cd0  1  0.49999869  0.50000327  0.00000108  1  0  1.151037  0  1.863811  0  0  0.954049  0  2.360053  0  0  1.003294  0  2.310271  0  1.307388  0  0.825903  0.919558  0  2.393771  0
Cd  Cd1  1  0.00000376  0.99999776  0.49999895  1  0  1.151041  0  1.863899  0  0  0.954045  0  2.360179  0  0  1.003293  0  2.310392  0  1.307392  0  0.825915  0.919552  0  2.393899  0
Cd  Cd2  1  0.99998986  0.00000675  0.99999715  1  0  1.129609  0  1.899501  0  0  0.941588  0  2.391938  0  0  0.988778  0  2.346234  0  1.288998  0  0.830533  0.908589  0  2.42287  0
Cd  Cd3  1  0.50000120  0.49999652  0.49999801  1  0  1.129666  0  1.899388  0  0  0.941657  0  2.391804  0  0  0.988845  0  2.346103  0  1.289057  0  0.830544  0.908658  0  2.422737  0
H  H4  1  0.64370779  0.59609912  0.17747722  1  0  0.079643  0  0.944893  0  0  0.088152  0  1.007909  0  0  0.090152  0  1.006687  0  0.101711  0  0.113344  0.086682  0  1.008856  0
H  H5  1  0.85628829  0.09609450  0.32252149  1  0  0.079671  0  0.944805  0  0  0.088183  0  1.007827  0  0  0.090182  0  1.006603  0  0.101654  0  0.113344  0.086711  0  1.008778  0
H  H6  1  0.35628583  0.40390269  0.82252017  1  0  0.079636  0  0.944896  0  0  0.088154  0  1.007911  0  0  0.090153  0  1.006686  0  0.101702  0  0.113331  0.086683  0  1.008859  0
H  H7  1  0.14370659  0.90389786  0.67747598  1  0  0.079693  0  0.944851  0  0  0.088204  0  1.007865  0  0  0.090205  0  1.006643  0  0.101741  0  0.113369  0.086733  0  1.008814  0
H  H8  1  0.89231061  0.68157330  0.24932266  1  0  0.118584  0  0.977175  0  0  0.120791  0  1.047784  0  0  0.124827  0  1.045715  0  0.162034  0  0.1094  0.117922  0  1.049315  0
H  H9  1  0.60768421  0.18157071  0.25068050  1  0  0.118655  0  0.977005  0  0  0.120807  0  1.047653  0  0  0.124847  0  1.045586  0  0.162121  0  0.10939  0.117938  0  1.049186  0
H  H10  1  0.10768678  0.31842378  0.75068079  1  0  0.118572  0  0.977216  0  0  0.120808  0  1.047772  0  0  0.124849  0  1.045707  0  0.16219  0  0.109402  0.117938  0  1.049306  0
H  H11  1  0.39231192  0.81842772  0.74932352  1  0  0.118579  0  0.977124  0  0  0.120757  0  1.047773  0  0  0.124797  0  1.045706  0  0.162019  0  0.109377  0.117886  0  1.049307  0
H  H12  1  0.08124314  0.68495590  0.99884751  1  0  0.110352  0  0.968723  0  0  0.11877  0  1.031772  0  0  0.121109  0  1.031501  0  0.097247  0  0.110355  0.117067  0  1.032135  0
H  H13  1  0.41876810  0.18495736  0.50116085  1  0  0.110395  0  0.968769  0  0  0.11876  0  1.031853  0  0  0.121097  0  1.031586  0  0.096942  0  0.110388  0.117058  0  1.032216  0
H  H14  1  0.91876554  0.31504658  0.00116120  1  0  0.110382  0  0.968801  0  0  0.118757  0  1.03189  0  0  0.121093  0  1.031626  0  0.09694  0  0.110355  0.117054  0  1.032254  0
H  H15  1  0.58124559  0.81504175  0.49884818  1  0  0.110422  0  0.968664  0  0  0.118773  0  1.031768  0  0  0.12111  0  1.031501  0  0.097208  0  0.110355  0.11707  0  1.032131  0
H  H16  1  0.82394486  0.60191251  0.93768528  1  0  0.087171  0  0.939941  0  0  0.094921  0  1.001803  0  0  0.097379  0  0.999769  0  0.13231  0  0.118453  0.093124  0  1.003312  0
H  H17  1  0.67606501  0.10190992  0.56231755  1  0  0.087305  0  0.939766  0  0  0.095004  0  1.001687  0  0  0.097462  0  0.999653  0  0.132237  0  0.118497  0.09321  0  1.003196  0
H  H18  1  0.17606507  0.39809267  0.06231574  1  0  0.08731  0  0.939803  0  0  0.095015  0  1.001713  0  0  0.097471  0  0.999682  0  0.132249  0  0.1185  0.09322  0  1.003222  0
H  H19  1  0.32394743  0.89808446  0.43768493  1  0  0.087199  0  0.939916  0  0  0.09496  0  1.001771  0  0  0.09742  0  0.999735  0  0.132509  0  0.118467  0.093158  0  1.003282  0
H  H20  1  0.87766027  0.97553384  0.19428901  1  0  0.077525  0  0.937214  0  0  0.086781  0  0.999365  0  0  0.08841  0  0.998427  0  0.094527  0  0.115606  0.085552  0  1.000123  0
H  H21  1  0.62234334  0.47552855  0.30570372  1  0  0.077602  0  0.937254  0  0  0.086848  0  0.999417  0  0  0.088477  0  0.998479  0  0.094632  0  0.115633  0.085619  0  1.000176  0
H  H22  1  0.12233837  0.02447134  0.80570482  1  0  0.077596  0  0.937199  0  0  0.086853  0  0.999332  0  0  0.088483  0  0.998391  0  0.094601  0  0.115625  0.085623  0  1.000091  0
H  H23  1  0.37766660  0.52446853  0.69428889  1  0  0.077559  0  0.937202  0  0  0.0868  0  0.999367  0  0  0.088428  0  0.998429  0  0.094508  0  0.115606  0.085571  0  1.000125  0
H  H24  1  0.63592589  0.90959582  0.26072856  1  0  0.120955  0  0.942207  0  0  0.127796  0  1.005897  0  0  0.131028  0  1.004888  0  0.139442  0  0.113881  0.125448  0  1.006804  0
H  H25  1  0.86408148  0.40959121  0.23926764  1  0  0.121026  0  0.942142  0  0  0.127851  0  1.005876  0  0  0.131078  0  1.00487  0  0.14053  0  0.113947  0.125493  0  1.006793  0
H  H26  1  0.36408027  0.09040734  0.73926898  1  0  0.121046  0  0.942151  0  0  0.127842  0  1.005913  0  0  0.131101  0  1.00487  0  0.140468  0  0.113936  0.125476  0  1.006837  0
H  H27  1  0.13592971  0.59040453  0.76072764  1  0  0.120964  0  0.942217  0  0  0.127795  0  1.005921  0  0  0.131025  0  1.004913  0  0.139213  0  0.113901  0.125442  0  1.006831  0
H  H28  1  0.49813540  0.76879650  0.01692387  1  0  0.113401  0  0.96646  0  0  0.119898  0  1.032639  0  0  0.122497  0  1.03227  0  0.113672  0  0.111263  0.118036  0  1.032994  0
H  H29  1  0.00186454  0.26879459  0.48307341  1  0  0.113391  0  0.966482  0  0  0.119881  0  1.032675  0  0  0.122489  0  1.032283  0  0.113652  0  0.111255  0.11802  0  1.03303  0
H  H30  1  0.50186324  0.23120463  0.98307449  1  0  0.113408  0  0.966459  0  0  0.1199  0  1.032646  0  0  0.122505  0  1.03226  0  0.113679  0  0.111265  0.118038  0  1.033002  0
H  H31  1  0.99813284  0.73120047  0.51692293  1  0  0.113395  0  0.96647  0  0  0.119886  0  1.032651  0  0  0.122481  0  1.032294  0  0.113857  0  0.111243  0.118025  0  1.033007  0
H  H32  1  0.74326511  0.84203570  0.96039682  1  0  0.090847  0  0.926644  0  0  0.099386  0  0.987638  0  0  0.101756  0  0.985718  0  0.142984  0  0.120798  0.097646  0  0.989062  0
H  H33  1  0.75673975  0.34203783  0.53959858  1  0  0.090858  0  0.926544  0  0  0.099395  0  0.987535  0  0  0.101764  0  0.985616  0  0.143086  0  0.120819  0.097658  0  0.988957  0
H  H34  1  0.25673604  0.15796274  0.03959911  1  0  0.090792  0  0.926608  0  0  0.099331  0  0.987609  0  0  0.1017  0  0.985689  0  0.143056  0  0.1208  0.097594  0  0.989031  0
H  H35  1  0.24326265  0.65796263  0.46039549  1  0  0.09082  0  0.926635  0  0  0.099357  0  0.987638  0  0  0.101728  0  0.985717  0  0.142953  0  0.120782  0.097617  0  0.989063  0
C  C36  1  0.74449475  0.61728709  0.14069042  1  0  0.123095  0  3.709443  0  0  0.09369  0  3.962787  0  0  0.099422  0  3.981686  0  0.489331  0  0.04439  0.089947  0  3.949861  0
C  C37  1  0.75550258  0.11728518  0.35931031  1  0  0.123112  0  3.709494  0  0  0.0937  0  3.96282  0  0  0.099438  0  3.981714  0  0.489271  0  0.044365  0.089957  0  3.949893  0
C  C38  1  0.25550263  0.38271539  0.85930980  1  0  0.123203  0  3.709469  0  0  0.093772  0  3.962824  0  0  0.09951  0  3.981719  0  0.489326  0  0.04442  0.090028  0  3.949898  0
C  C39  1  0.24449606  0.88271056  0.64068999  1  0  0.123037  0  3.709432  0  0  0.093623  0  3.962775  0  0  0.099358  0  3.98167  0  0.488815  0  0.044358  0.089881  0  3.949849  0
C  C40  1  0.88230155  0.66469677  0.18030587  1  0  -0.11763  0  3.683326  0  0  -0.142967  0  3.938808  0  0  -0.148263  0  3.958623  0  -0.014824  0  -0.071793  -0.139502  0  3.925497  0
C  C41  1  0.61769829  0.16469418  0.31969827  1  0  -0.117793  0  3.683435  0  0  -0.143082  0  3.938861  0  0  -0.14839  0  3.958682  0  -0.014709  0  -0.071786  -0.139617  0  3.92555  0
C  C42  1  0.11769709  0.33530301  0.81969832  1  0  -0.117721  0  3.683396  0  0  -0.143077  0  3.938833  0  0  -0.148386  0  3.958655  0  -0.014773  0  -0.071766  -0.139611  0  3.925523  0
C  C43  1  0.38230411  0.83530223  0.68030616  1  0  -0.117555  0  3.683267  0  0  -0.142869  0  3.938726  0  0  -0.148174  0  3.958548  0  -0.014297  0  -0.071762  -0.139405  0  3.925415  0
C  C44  1  0.00748829  0.69003891  0.12944507  1  0  0.035996  0  3.790817  0  0  0.047968  0  4.029399  0  0  0.049003  0  4.05024  0  -0.033092  0  0.013706  0.047333  0  4.015297  0
C  C45  1  0.49251417  0.19003767  0.37055949  1  0  0.036025  0  3.790851  0  0  0.048123  0  4.029267  0  0  0.049165  0  4.050103  0  -0.03298  0  0.013708  0.047486  0  4.015164  0
C  C46  1  0.99251412  0.30996155  0.87056000  1  0  0.036111  0  3.790671  0  0  0.048163  0  4.029152  0  0  0.049203  0  4.049988  0  -0.032958  0  0.013664  0.047527  0  4.01505  0
C  C47  1  0.50748949  0.80995874  0.62944631  1  0  0.035943  0  3.790826  0  0  0.04793  0  4.029331  0  0  0.048969  0  4.05017  0  -0.033359  0  0.013635  0.047298  0  4.015229  0
C  C48  1  0.98700581  0.66735978  0.04065981  1  0  -0.11811  0  3.6742  0  0  -0.142421  0  3.924041  0  0  -0.147874  0  3.945057  0  0.011657  0  -0.073577  -0.138869  0  3.909943  0
C  C49  1  0.51300156  0.16735854  0.45934610  1  0  -0.118181  0  3.674366  0  0  -0.142475  0  3.924184  0  0  -0.147929  0  3.945197  0  0.012189  0  -0.073635  -0.138918  0  3.910071  0
C  C50  1  0.01299785  0.33264338  0.95934599  1  0  -0.11823  0  3.674107  0  0  -0.142549  0  3.923971  0  0  -0.148002  0  3.944983  0  0.012172  0  -0.07363  -0.138994  0  3.909865  0
C  C51  1  0.48700837  0.83263787  0.54066075  1  0  -0.118248  0  3.674293  0  0  -0.142512  0  3.924156  0  0  -0.147965  0  3.945172  0  0.011738  0  -0.073602  -0.138957  0  3.910048  0
C  C52  1  0.84431807  0.62018366  0.00653578  1  0  0.129609  0  3.701196  0  0  0.102915  0  3.947522  0  0  0.108567  0  3.966751  0  0.520143  0  0.051185  0.099238  0  3.934373  0
C  C53  1  0.65568804  0.12018175  0.49346681  1  0  0.129481  0  3.701216  0  0  0.102825  0  3.947575  0  0  0.108477  0  3.966802  0  0.520144  0  0.051138  0.099143  0  3.934435  0
C  C54  1  0.15568810  0.37982084  0.99346565  1  0  0.129505  0  3.701156  0  0  0.102852  0  3.947505  0  0  0.108503  0  3.966734  0  0.520135  0  0.051202  0.09917  0  3.934364  0
C  C55  1  0.34432063  0.87981399  0.50653608  1  0  0.129625  0  3.701263  0  0  0.10292  0  3.947564  0  0  0.108572  0  3.96679  0  0.520002  0  0.0512  0.099247  0  3.934412  0
C  C56  1  0.15637820  0.73680326  0.16915772  1  0  0.346143  0  3.696949  0  0  0.31189  0  3.980358  0  0  0.327019  0  3.9894  0  1.065647  0  0.224514  0.301791  0  3.974082  0
C  C57  1  0.34362676  0.23680134  0.33084635  1  0  0.346099  0  3.696958  0  0  0.311737  0  3.98045  0  0  0.326871  0  3.989485  0  1.065198  0  0.224424  0.301651  0  3.974159  0
C  C58  1  0.84362546  0.26319720  0.83084743  1  0  0.345968  0  3.697034  0  0  0.311717  0  3.98039  0  0  0.326849  0  3.989425  0  1.065665  0  0.224449  0.301625  0  3.974106  0
C  C59  1  0.65638066  0.76319507  0.66915840  1  0  0.346115  0  3.696941  0  0  0.311915  0  3.980256  0  0  0.327044  0  3.989295  0  1.065974  0  0.224591  0.30181  0  3.973988  0
C  C60  1  0.39835223  0.79874035  0.17619823  1  0  0.345461  0  3.704365  0  0  0.313632  0  3.984714  0  0  0.329024  0  3.993645  0  1.028859  0  0.2253  0.303399  0  3.978469  0
C  C61  1  0.10165022  0.29873573  0.32380180  1  0  0.345433  0  3.704369  0  0  0.313502  0  3.984769  0  0  0.328895  0  3.993697  0  1.028101  0  0.225197  0.303271  0  3.978526  0
C  C62  1  0.60164892  0.20126281  0.82380223  1  0  0.345487  0  3.704416  0  0  0.313576  0  3.98482  0  0  0.328969  0  3.993748  0  1.028426  0  0.225273  0.303345  0  3.978576  0
C  C63  1  0.89835594  0.70125865  0.67619899  1  0  0.345447  0  3.704482  0  0  0.313758  0  3.984665  0  0  0.329147  0  3.993592  0  1.02865  0  0.22532  0.303527  0  3.97842  0
C  C64  1  0.79006313  0.92935138  0.15734153  1  0  0.132628  0  3.707368  0  0  0.104513  0  3.956284  0  0  0.11066  0  3.975902  0  0.451648  0  0.050635  0.100507  0  3.942857  0
C  C65  1  0.70993671  0.42934676  0.34265224  1  0  0.132462  0  3.707386  0  0  0.104353  0  3.95631  0  0  0.110501  0  3.975929  0  0.451469  0  0.050527  0.100348  0  3.942881  0
C  C66  1  0.20993300  0.07065313  0.84265278  1  0  0.132505  0  3.7074  0  0  0.104429  0  3.956266  0  0  0.110576  0  3.975893  0  0.451439  0  0.050555  0.100425  0  3.942834  0
C  C67  1  0.29007071  0.57064965  0.65734150  1  0  0.132453  0  3.707256  0  0  0.104346  0  3.956151  0  0  0.110492  0  3.975769  0  0.451669  0  0.050566  0.100341  0  3.942724  0
C  C68  1  0.65628906  0.89248843  0.19434347  1  0  -0.11984  0  3.668724  0  0  -0.141663  0  3.915745  0  0  -0.147816  0  3.936838  0  0.012213  0  -0.070687  -0.137677  0  3.901638  0
C  C69  1  0.84371580  0.39248381  0.30565127  1  0  -0.119783  0  3.668749  0  0  -0.141647  0  3.915707  0  0  -0.147799  0  3.936802  0  0.011345  0  -0.07075  -0.137652  0  3.901604  0
C  C70  1  0.34371083  0.10751540  0.80565173  1  0  -0.119892  0  3.668747  0  0  -0.141732  0  3.915708  0  0  -0.147912  0  3.936786  0  0.011148  0  -0.070733  -0.137729  0  3.901609  0
C  C71  1  0.15629288  0.60751192  0.69434385  1  0  -0.119748  0  3.668779  0  0  -0.141552  0  3.915769  0  0  -0.147703  0  3.936859  0  0.012444  0  -0.070674  -0.137562  0  3.901666  0
C  C72  1  0.54614927  0.83478448  0.14316843  1  0  0.041407  0  3.789879  0  0  0.052948  0  4.02805  0  0  0.05418  0  4.04905  0  0.02221  0  0.015817  0.052194  0  4.013832  0
C  C73  1  0.95384931  0.33477986  0.35682656  1  0  0.041331  0  3.789885  0  0  0.053021  0  4.027917  0  0  0.054253  0  4.04892  0  0.022338  0  0.015877  0.052269  0  4.013694  0
C  C74  1  0.45384811  0.16521936  0.85682791  1  0  0.041325  0  3.789836  0  0  0.052968  0  4.027929  0  0  0.054198  0  4.048937  0  0.022643  0  0.015818  0.052215  0  4.013706  0
C  C75  1  0.04615434  0.66521520  0.64317018  1  0  0.041435  0  3.789908  0  0  0.05292  0  4.02807  0  0  0.054155  0  4.049064  0  0.022413  0  0.015822  0.052165  0  4.013852  0
C  C76  1  0.57830574  0.81473866  0.05806710  1  0  -0.118942  0  3.66851  0  0  -0.142739  0  3.918359  0  0  -0.148021  0  3.938399  0  0.072046  0  -0.074506  -0.139339  0  3.904937  0
C  C77  1  0.92169536  0.31473472  0.44192999  1  0  -0.118878  0  3.668565  0  0  -0.142724  0  3.918379  0  0  -0.148005  0  3.938422  0  0.071973  0  -0.074436  -0.139326  0  3.904958  0
C  C78  1  0.42169165  0.18526382  0.94193053  1  0  -0.118939  0  3.668421  0  0  -0.142763  0  3.918244  0  0  -0.148044  0  3.938285  0  0.072015  0  -0.074468  -0.139364  0  3.904824  0
C  C79  1  0.07830579  0.68526034  0.55806659  1  0  -0.119116  0  3.668316  0  0  -0.14291  0  3.918218  0  0  -0.148195  0  3.938252  0  0.071843  0  -0.074544  -0.139509  0  3.904797  0
C  C80  1  0.71480510  0.85497273  0.02656002  1  0  0.13353  0  3.700287  0  0  0.105131  0  3.950806  0  0  0.111576  0  3.969261  0  0.4311  0  0.051312  0.100926  0  3.938189  0
C  C81  1  0.78519474  0.35497148  0.47343505  1  0  0.13349  0  3.700447  0  0  0.10512  0  3.950965  0  0  0.111562  0  3.969427  0  0.431176  0  0.051241  0.100913  0  3.938345  0
C  C82  1  0.28519228  0.14502908  0.97343632  1  0  0.133552  0  3.700302  0  0  0.105163  0  3.950841  0  0  0.111606  0  3.969304  0  0.431127  0  0.051239  0.100956  0  3.938221  0
C  C83  1  0.21480766  0.64502628  0.52655966  1  0  0.13366  0  3.70012  0  0  0.105254  0  3.950641  0  0  0.1117  0  3.969096  0  0.43113  0  0.05134  0.101051  0  3.938023  0
C  C84  1  0.28876327  0.53010237  0.18009275  1  0  0.513732  0  3.991365  0  0  0.473819  0  4.276345  0  0  0.500782  0  4.286722  0  1.550024  0  0.308011  0.45545  0  4.268996  0
C  C85  1  0.21123416  0.03009708  0.31990889  1  0  0.513797  0  3.991082  0  0  0.473872  0  4.276062  0  0  0.500836  0  4.286437  0  1.550166  0  0.308113  0.455504  0  4.26871  0
C  C86  1  0.71122909  0.46990147  0.81990520  1  0  0.513893  0  3.990906  0  0  0.473997  0  4.275889  0  0  0.500951  0  4.286263  0  1.550931  0  0.308129  0.455638  0  4.26854  0
C  C87  1  0.78877326  0.96989731  0.68008873  1  0  0.513802  0  3.991246  0  0  0.473908  0  4.276214  0  0  0.500861  0  4.286583  0  1.551423  0  0.308083  0.455545  0  4.268866  0
C  C88  1  0.24564916  0.49762175  0.32086024  1  0  0.514667  0  3.980619  0  0  0.476323  0  4.263969  0  0  0.502675  0  4.275264  0  1.543755  0  0.305386  0.458365  0  4.255999  0
C  C89  1  0.25434953  0.99763514  0.17913825  1  0  0.514544  0  3.981034  0  0  0.476184  0  4.264393  0  0  0.502539  0  4.275689  0  1.544342  0  0.305347  0.458225  0  4.256418  0
C  C90  1  0.75435324  0.50236994  0.67913577  1  0  0.514622  0  3.981219  0  0  0.476286  0  4.264557  0  0  0.502629  0  4.275845  0  1.544364  0  0.305389  0.458338  0  4.256589  0
C  C91  1  0.74565413  0.00237747  0.82085655  1  0  0.514608  0  3.981155  0  0  0.476265  0  4.264488  0  0  0.502608  0  4.275776  0  1.543663  0  0.305374  0.458312  0  4.256521  0
C  C92  1  0.68566252  0.30946270  0.10526981  1  0  0.503424  0  4.010042  0  0  0.461702  0  4.303311  0  0  0.488643  0  4.312135  0  1.537485  0  0.302425  0.443283  0  4.29713  0
C  C93  1  0.81431850  0.80945922  0.39473506  1  0  0.503398  0  4.009958  0  0  0.461693  0  4.303243  0  0  0.48863  0  4.31206  0  1.538904  0  0.302379  0.443278  0  4.297063  0
C  C94  1  0.31432232  0.69054586  0.89473931  1  0  0.503407  0  4.009904  0  0  0.461727  0  4.303191  0  0  0.488664  0  4.312009  0  1.538469  0  0.302436  0.443309  0  4.297013  0
C  C95  1  0.18567512  0.19054124  0.60526881  1  0  0.503283  0  4.009928  0  0  0.461586  0  4.303213  0  0  0.488522  0  4.312035  0  1.538646  0  0.302346  0.443169  0  4.297033  0
C  C96  1  0.84352508  0.17831705  0.10477046  1  0  0.512342  0  3.994146  0  0  0.471756  0  4.28277  0  0  0.498825  0  4.292693  0  1.559647  0  0.30344  0.453273  0  4.275753  0
C  C97  1  0.65644590  0.67831491  0.39523312  1  0  0.512549  0  3.993912  0  0  0.471999  0  4.282518  0  0  0.499068  0  4.292434  0  1.560231  0  0.303533  0.453518  0  4.275504  0
C  C98  1  0.15643968  0.82168814  0.89523609  1  0  0.512673  0  3.993883  0  0  0.472136  0  4.282488  0  0  0.499205  0  4.2924  0  1.559943  0  0.303624  0.453654  0  4.275476  0
C  C99  1  0.34354019  0.32168487  0.60477026  1  0  0.512457  0  3.993852  0  0  0.471905  0  4.282475  0  0  0.498974  0  4.292393  0  1.560166  0  0.30348  0.453424  0  4.275459  0
N  N100  1  0.72542020  0.59474702  0.05560720  1  0  -0.330904  0  3.25795  0  0  -0.254005  0  3.519295  0  0  -0.272656  0  3.539023  0  -1.233618  0  -0.322282  -0.241124  0  3.505489  0
N  N101  1  0.77458215  0.09474376  0.44439451  1  0  -0.330904  0  3.257837  0  0  -0.254018  0  3.519189  0  0  -0.272666  0  3.538912  0  -1.233691  0  -0.322242  -0.241137  0  3.505385  0
N  N102  1  0.27457719  0.40525749  0.94439238  1  0  -0.330926  0  3.258098  0  0  -0.254028  0  3.519447  0  0  -0.272679  0  3.539174  0  -1.233795  0  -0.3223  -0.241147  0  3.505644  0
N  N103  1  0.22542276  0.90525063  0.55560684  1  0  -0.33089  0  3.257929  0  0  -0.253982  0  3.51927  0  0  -0.27263  0  3.538991  0  -1.233661  0  -0.322265  -0.241101  0  3.505461  0
N  N104  1  0.81792713  0.91224061  0.07481073  1  0  -0.329084  0  3.252967  0  0  -0.2544  0  3.515353  0  0  -0.27308  0  3.534894  0  -1.227203  0  -0.323094  -0.24153  0  3.501685  0
N  N105  1  0.68207522  0.41223734  0.42518321  1  0  -0.329046  0  3.253051  0  0  -0.254381  0  3.515442  0  0  -0.273061  0  3.534985  0  -1.227113  0  -0.323044  -0.241511  0  3.501776  0
N  N106  1  0.18207025  0.08776323  0.92518302  1  0  -0.328983  0  3.252971  0  0  -0.254323  0  3.515363  0  0  -0.273004  0  3.534906  0  -1.227127  0  -0.322997  -0.241453  0  3.501695  0
N  N107  1  0.31793095  0.58776042  0.57481045  1  0  -0.329001  0  3.252833  0  0  -0.254306  0  3.515215  0  0  -0.272986  0  3.534756  0  -1.227279  0  -0.323015  -0.241437  0  3.501548  0
N  N108  1  0.19690378  0.76216159  0.25062711  1  0  -0.247159  0  2.85105  0  0  -0.233613  0  3.130337  0  0  -0.240952  0  3.140851  0  -0.682131  0  -0.215239  -0.228628  0  3.123202  0
N  N109  1  0.30310495  0.26215833  0.24937655  1  0  -0.247124  0  2.850922  0  0  -0.233567  0  3.130238  0  0  -0.240907  0  3.140748  0  -0.682135  0  -0.215209  -0.228584  0  3.123096  0
N  N110  1  0.80310364  0.23784022  0.74937828  1  0  -0.247083  0  2.850869  0  0  -0.233554  0  3.130151  0  0  -0.240894  0  3.140661  0  -0.682506  0  -0.215182  -0.22857  0  3.123011  0
N  N111  1  0.69690498  0.73783471  0.75062706  1  0  -0.247203  0  2.850916  0  0  -0.233679  0  3.130195  0  0  -0.241018  0  3.140704  0  -0.682559  0  -0.215293  -0.228692  0  3.123062  0
N  N112  1  0.35379768  0.80193056  0.25524309  1  0  -0.256129  0  2.879975  0  0  -0.243358  0  3.165082  0  0  -0.25193  0  3.176436  0  -0.655361  0  -0.214737  -0.237563  0  3.157345  0
N  N113  1  0.14620854  0.30192459  0.24475718  1  0  -0.256099  0  2.879863  0  0  -0.243288  0  3.164962  0  0  -0.251861  0  3.176313  0  -0.655266  0  -0.214667  -0.237493  0  3.157226  0
N  N114  1  0.64620472  0.19807327  0.74475810  1  0  -0.256151  0  2.87986  0  0  -0.24335  0  3.164969  0  0  -0.251922  0  3.176323  0  -0.655331  0  -0.214747  -0.237555  0  3.157233  0
N  N115  1  0.85380265  0.69806709  0.75524328  1  0  -0.256063  0  2.879839  0  0  -0.243336  0  3.164907  0  0  -0.251908  0  3.176264  0  -0.654987  0  -0.214702  -0.23754  0  3.157169  0
N  N116  1  0.35989823  0.53979856  0.11826146  1  0  -0.619563  0  2.803933  0  0  -0.571587  0  3.089235  0  0  -0.594388  0  3.091967  0  -1.286202  0  -0.39099  -0.555882  0  3.087146  0
N  N117  1  0.14009670  0.03978314  0.38173938  1  0  -0.619582  0  2.803815  0  0  -0.571626  0  3.089192  0  0  -0.594438  0  3.091953  0  -1.286384  0  -0.391101  -0.555921  0  3.087104  0
N  N118  1  0.64008786  0.46021337  0.88173804  1  0  -0.619743  0  2.803462  0  0  -0.5718  0  3.088845  0  0  -0.594606  0  3.091589  0  -1.286679  0  -0.39116  -0.556094  0  3.086756  0
N  N119  1  0.85990947  0.96020314  0.61825622  1  0  -0.619703  0  2.803921  0  0  -0.571758  0  3.089287  0  0  -0.594576  0  3.092052  0  -1.285933  0  -0.391118  -0.556053  0  3.087201  0
N  N120  1  0.19727268  0.52592931  0.24292581  1  0  -0.458243  0  3.310883  0  0  -0.402211  0  3.568654  0  0  -0.427573  0  3.575573  0  -1.290011  0  -0.306841  -0.384638  0  3.563335  0
N  N121  1  0.30272351  0.02593482  0.25707447  1  0  -0.458254  0  3.310774  0  0  -0.40219  0  3.56852  0  0  -0.427569  0  3.575458  0  -1.290146  0  -0.306862  -0.384615  0  3.563198  0
N  N122  1  0.80271969  0.47406373  0.75707474  1  0  -0.458223  0  3.310818  0  0  -0.402204  0  3.568581  0  0  -0.42756  0  3.575504  0  -1.290504  0  -0.306799  -0.384652  0  3.563273  0
N  N123  1  0.69728643  0.97406767  0.74292073  1  0  -0.458169  0  3.310844  0  0  -0.402144  0  3.568595  0  0  -0.42749  0  3.575508  0  -1.291676  0  -0.306796  -0.384583  0  3.563283  0
N  N124  1  0.27410791  0.47124478  0.39341347  1  0  -0.618487  0  2.778663  0  0  -0.576732  0  3.054409  0  0  -0.598573  0  3.059567  0  -1.254057  0  -0.400197  -0.561734  0  3.050717  0
N  N125  1  0.22589078  0.97126695  0.10658373  1  0  -0.618333  0  2.779045  0  0  -0.576567  0  3.054777  0  0  -0.598404  0  3.059931  0  -1.254414  0  -0.40014  -0.561574  0  3.051089  0
N  N126  1  0.72590202  0.52874015  0.60658561  1  0  -0.61842  0  2.779329  0  0  -0.576661  0  3.055035  0  0  -0.598496  0  3.060193  0  -1.254628  0  -0.400204  -0.561668  0  3.051345  0
N  N127  1  0.77410410  0.02875308  0.89340597  1  0  -0.618366  0  2.779104  0  0  -0.576612  0  3.054837  0  0  -0.598451  0  3.059995  0  -1.253899  0  -0.400164  -0.561615  0  3.051143  0
N  N128  1  0.63307763  0.38203158  0.08584461  1  0  -0.610015  0  2.764423  0  0  -0.564915  0  3.044647  0  0  -0.586909  0  3.047365  0  -1.246864  0  -0.388191  -0.549807  0  3.042689  0
N  N129  1  0.86691217  0.88202405  0.41415823  1  0  -0.609969  0  2.764444  0  0  -0.56486  0  3.044637  0  0  -0.586847  0  3.047351  0  -1.248228  0  -0.388133  -0.549753  0  3.042679  0
N  N130  1  0.36692477  0.61798103  0.91416176  1  0  -0.609913  0  2.764303  0  0  -0.564812  0  3.044491  0  0  -0.586803  0  3.047209  0  -1.248457  0  -0.388151  -0.549705  0  3.042533  0
N  N131  1  0.13309149  0.11797439  0.58584045  1  0  -0.60991  0  2.764413  0  0  -0.564806  0  3.044615  0  0  -0.586795  0  3.047334  0  -1.248249  0  -0.388127  -0.549699  0  3.042657  0
N  N132  1  0.73292103  0.23017385  0.13329967  1  0  -0.461789  0  3.316478  0  0  -0.402647  0  3.574224  0  0  -0.427113  0  3.577706  0  -1.342491  0  -0.305481  -0.38561  0  3.571226  0
N  N133  1  0.76705120  0.73017104  0.36670658  1  0  -0.461814  0  3.316383  0  0  -0.40274  0  3.574171  0  0  -0.427205  0  3.577643  0  -1.342651  0  -0.305487  -0.385707  0  3.571176  0
N  N134  1  0.26704875  0.76983403  0.86671108  1  0  -0.461946  0  3.316789  0  0  -0.402913  0  3.574618  0  0  -0.427379  0  3.578086  0  -1.341802  0  -0.305558  -0.385877  0  3.571626  0
N  N135  1  0.23293489  0.26983009  0.63330004  1  0  -0.461741  0  3.316233  0  0  -0.402669  0  3.574042  0  0  -0.427135  0  3.57752  0  -1.342694  0  -0.305465  -0.385636  0  3.571048  0
N  N136  1  0.94239229  0.12536669  0.08541351  1  0  -0.61407  0  2.785221  0  0  -0.569938  0  3.066552  0  0  -0.592338  0  3.070155  0  -1.26439  0  -0.390966  -0.554597  0  3.063972  0
N  N137  1  0.55757619  0.62536388  0.41458732  1  0  -0.614278  0  2.78503  0  0  -0.570127  0  3.066302  0  0  -0.592528  0  3.069904  0  -1.264771  0  -0.391076  -0.554785  0  3.063721  0
N  N138  1  0.05756495  0.87463917  0.91458738  1  0  -0.614352  0  2.784769  0  0  -0.570199  0  3.06603  0  0  -0.5926  0  3.069631  0  -1.264712  0  -0.391148  -0.554857  0  3.06345  0
N  N139  1  0.44241116  0.37463186  0.58541032  1  0  -0.614216  0  2.785055  0  0  -0.570087  0  3.066363  0  0  -0.592486  0  3.069964  0  -1.26444  0  -0.39103  -0.554745  0  3.063784  0
O  O140  1  0.27931508  0.75752478  0.11861542  1  0  -0.250911  0  2.333021  0  0  -0.177434  0  2.550063  0  0  -0.196104  0  2.55447  0  -1.047677  0  -0.088833  -0.164786  0  2.54682  0
O  O141  1  0.22068361  0.25752219  0.38138566  1  0  -0.250885  0  2.333101  0  0  -0.177361  0  2.550173  0  0  -0.196032  0  2.554575  0  -1.047386  0  -0.088799  -0.164724  0  2.546933  0
O  O142  1  0.72068230  0.24247568  0.88138545  1  0  -0.250853  0  2.333147  0  0  -0.17736  0  2.550189  0  0  -0.196031  0  2.554593  0  -1.047718  0  -0.08882  -0.164716  0  2.546945  0
O  O143  1  0.77931879  0.74247489  0.61861553  1  0  -0.250873  0  2.33297  0  0  -0.177458  0  2.54996  0  0  -0.196123  0  2.554361  0  -1.047682  0  -0.088868  -0.164812  0  2.546723  0
