# generated using pymatgen
data_NiH8C12(BrN2)2
_symmetry_space_group_name_H-M   'P 1'
_cell_length_a   3.71432336
_cell_length_b   7.07605358
_cell_length_c   26.55244496
_cell_angle_alpha   90.00067055
_cell_angle_beta   90.00012200
_cell_angle_gamma   89.99974284
_symmetry_Int_Tables_number   1
_chemical_formula_structural   NiH8C12(BrN2)2
_chemical_formula_sum   'Ni2 H16 C24 Br4 N8'
_cell_volume   697.87130182
_cell_formula_units_Z   2
loop_
 _symmetry_equiv_pos_site_id
 _symmetry_equiv_pos_as_xyz
  1  'x, y, z'
loop_
 _atom_site_type_symbol
 _atom_site_label
 _atom_site_symmetry_multiplicity
 _atom_site_fract_x
 _atom_site_fract_y
 _atom_site_fract_z
 _atom_site_occupancy
 _atom_site_hle17_ddec_charge
 _atom_site_hle17_ddec_spin_density
 _atom_site_hle17_ddec_sum_bond_order
 _atom_site_hle17_magmom
 _atom_site_hse06_10hf_ddec_charge
 _atom_site_hse06_10hf_ddec_spin_density
 _atom_site_hse06_10hf_ddec_sum_bond_order
 _atom_site_hse06_10hf_magmom
 _atom_site_hse06_ddec_charge
 _atom_site_hse06_ddec_spin_density
 _atom_site_hse06_ddec_sum_bond_order
 _atom_site_hse06_magmom
 _atom_site_pbe_cm5_charge
 _atom_site_pbe_ddec_charge
 _atom_site_pbe_ddec_spin_density
 _atom_site_pbe_ddec_sum_bond_order
 _atom_site_pbe_magmom
Ni  Ni0  1  0.00000136  0.00000490  0.99999868  1  0.512024  1.603362  2.246002  1.342  0.553917  1.697277  2.615044  1.496  0.671055  1.787721  2.529041  1.621  0.411972  0.479816  1.626412  2.670724  1.4
Ni  Ni1  1  0.49999007  0.50000230  0.50000077  1  0.51199  1.603352  2.246079  1.342  0.55391  1.697287  2.615099  1.496  0.671049  1.787692  2.52906  1.621  0.411963  0.4798  1.626417  2.670812  1.4
H  H2  1  0.99999866  0.90040007  0.89019003  1  0.073908  0.000833  0.973583  0.001  0.083358  0.000805  1.036704  0.001  0.087078  0.000573  1.031733  0.001  0.102907  0.080331  0.001024  1.040805  0.001
H  H3  1  0.99999673  0.09960191  0.10981055  1  0.073848  0.000832  0.973565  0.001  0.083311  0.000805  1.036716  0.001  0.087033  0.000573  1.031742  0.001  0.102894  0.08028  0.001024  1.040816  0.001
H  H4  1  0.50000199  0.40040681  0.60981009  1  0.073974  0.000832  0.97353  0.001  0.083415  0.000805  1.03664  0.001  0.087137  0.000573  1.031665  0.001  0.102944  0.080382  0.001024  1.04074  0.001
H  H5  1  0.49998891  0.59959072  0.39019070  1  0.07393  0.000832  0.973532  0.001  0.083375  0.000805  1.036674  0.001  0.087098  0.000572  1.031701  0.001  0.102948  0.080347  0.001024  1.04078  0.001
H  H6  1  0.00000484  0.40672244  0.96802486  1  0.078952  0.001738  0.979466  0.001  0.086493  0.001709  1.047507  0.001  0.091078  0.001236  1.040605  0.001  0.09835  0.082575  0.00214  1.053411  0.001
H  H7  1  0.00000044  0.59328761  0.03197124  1  0.079011  0.001736  0.979357  0.001  0.086543  0.001708  1.047431  0.001  0.091125  0.001236  1.040527  0.001  0.098407  0.082625  0.00214  1.05333  0.001
H  H8  1  0.49999398  0.90672123  0.53197624  1  0.07896  0.001735  0.979442  0.001  0.086504  0.001708  1.047475  0.001  0.09109  0.001236  1.040576  0.001  0.098355  0.082587  0.00214  1.053371  0.001
H  H9  1  0.50000501  0.09328337  0.46802756  1  0.079037  0.001735  0.979323  0.001  0.086561  0.001708  1.047401  0.001  0.091143  0.001236  1.040496  0.001  0.098352  0.082641  0.00214  1.053304  0.001
H  H10  1  0.99999978  0.06538317  0.80669229  1  0.132705  0.000104  0.954522  0.0  0.138943  0.000283  1.017255  0.0  0.142575  0.000197  1.015255  0.0  0.114382  0.136479  0.000364  1.018709  0.0
H  H11  1  0.99999920  0.93460872  0.19330737  1  0.132678  0.000102  0.954658  0.0  0.138935  0.000283  1.017348  0.0  0.142564  0.000197  1.015361  0.0  0.114368  0.136468  0.000364  1.018802  0.0
H  H12  1  0.49999918  0.56539608  0.69330812  1  0.13274  0.000103  0.954553  0.0  0.138995  0.000283  1.017238  0.0  0.142631  0.000197  1.015234  0.0  0.114392  0.13653  0.000364  1.018692  0.0
H  H13  1  0.49999173  0.43459580  0.30669267  1  0.132805  0.000102  0.95452  0.0  0.139047  0.000283  1.017212  0.0  0.142677  0.000197  1.015223  0.0  0.114406  0.136578  0.000364  1.018671  0.0
H  H14  1  0.00000622  0.59355508  0.88925275  1  0.112069  0.001294  0.966968  0.0  0.12259  0.001466  1.02674  0.001  0.127248  0.001063  1.022902  0.0  0.101591  0.119032  0.001839  1.029826  0.001
H  H15  1  0.00000713  0.40644649  0.11074223  1  0.112122  0.001295  0.966954  0.0  0.122646  0.001465  1.026718  0.001  0.127302  0.001063  1.022882  0.0  0.101622  0.119091  0.001839  1.029796  0.001
H  H16  1  0.49999251  0.09355783  0.61074851  1  0.112073  0.001294  0.966885  0.0  0.122592  0.001465  1.026672  0.001  0.127252  0.001063  1.02283  0.0  0.101578  0.119036  0.001839  1.029751  0.001
H  H17  1  0.50001725  0.90643688  0.38925568  1  0.112007  0.001293  0.967007  0.0  0.122532  0.001465  1.026781  0.001  0.127171  0.001064  1.022963  0.0  0.101545  0.118971  0.001839  1.02987  0.001
C  C18  1  0.00000307  0.05375134  0.88795071  1  0.132227  -0.015121  3.68081  -0.011  0.105087  -0.003197  3.930834  -0.002  0.114197  -0.004305  3.948233  -0.003  0.043635  0.098464  -0.002703  3.920453  -0.002
C  C19  1  0.99999591  0.94624902  0.11204896  1  0.132489  -0.015107  3.680784  -0.011  0.105224  -0.003196  3.930897  -0.002  0.114336  -0.004304  3.948297  -0.003  0.043727  0.0986  -0.002702  3.920504  -0.002
C  C20  1  0.49999868  0.55375929  0.61205005  1  0.132224  -0.015116  3.680855  -0.011  0.10511  -0.003195  3.930826  -0.002  0.114219  -0.004305  3.94823  -0.003  0.043709  0.098493  -0.002702  3.920435  -0.002
C  C21  1  0.49998954  0.44623966  0.38795263  1  0.132402  -0.01512  3.680681  -0.011  0.105193  -0.003196  3.930785  -0.002  0.114303  -0.004306  3.948182  -0.003  0.043634  0.098569  -0.002703  3.920406  -0.002
C  C22  1  0.00000488  0.33600850  0.93172037  1  0.140005  -0.015237  3.676104  -0.012  0.111522  -0.003191  3.92692  -0.003  0.122547  -0.004383  3.940756  -0.003  0.041843  0.103297  -0.002535  3.919831  -0.002
C  C23  1  0.99999770  0.66399590  0.06827724  1  0.140034  -0.015225  3.676021  -0.012  0.111521  -0.003191  3.92679  -0.003  0.122555  -0.004382  3.940619  -0.003  0.041766  0.103299  -0.002534  3.919685  -0.002
C  C24  1  0.49999721  0.83601312  0.56828051  1  0.13994  -0.015231  3.67609  -0.012  0.111416  -0.003189  3.926962  -0.003  0.122439  -0.004384  3.940803  -0.003  0.041738  0.103194  -0.002534  3.919858  -0.002
C  C25  1  0.49999908  0.16398865  0.43172254  1  0.140053  -0.015231  3.675997  -0.012  0.111573  -0.00319  3.926762  -0.003  0.122605  -0.004384  3.940587  -0.003  0.041871  0.103352  -0.002534  3.919664  -0.002
C  C26  1  0.00000238  0.14513319  0.84168430  1  -0.120464  0.009688  3.654236  0.012  -0.143224  0.003028  3.900774  0.004  -0.149745  0.002937  3.919499  0.004  -0.065683  -0.138654  0.00327  3.8882  0.004
C  C27  1  0.00000020  0.85486414  0.15831444  1  -0.1205  0.00968  3.6543  0.012  -0.143243  0.003025  3.900858  0.004  -0.149766  0.002936  3.919579  0.004  -0.065748  -0.138668  0.003269  3.88828  0.004
C  C28  1  0.49999861  0.64514457  0.65831674  1  -0.120495  0.009686  3.654256  0.012  -0.143245  0.003026  3.900782  0.004  -0.149776  0.002937  3.919513  0.004  -0.065757  -0.138677  0.003269  3.888209  0.004
C  C29  1  0.49999230  0.35485155  0.34168518  1  -0.120679  0.009688  3.654074  0.012  -0.143405  0.003026  3.900653  0.004  -0.149929  0.002938  3.919371  0.004  -0.065811  -0.138825  0.00327  3.888073  0.004
C  C30  1  0.00000685  0.44005423  0.88739957  1  -0.134661  0.010548  3.683447  0.012  -0.154122  0.003987  3.924124  0.004  -0.159515  0.003653  3.939937  0.004  -0.075524  -0.150809  0.004448  3.914556  0.005
C  C31  1  0.00000112  0.55994735  0.11259691  1  -0.134956  0.010539  3.68355  0.012  -0.154406  0.003984  3.924204  0.004  -0.159799  0.003652  3.940013  0.004  -0.075662  -0.151095  0.004447  3.914635  0.005
C  C32  1  0.49999707  0.94006079  0.61260164  1  -0.134713  0.010546  3.683506  0.012  -0.154163  0.003984  3.924194  0.004  -0.159566  0.003653  3.940009  0.004  -0.075543  -0.15085  0.004447  3.914623  0.005
C  C33  1  0.50000730  0.05993675  0.38740217  1  -0.134803  0.010548  3.683552  0.012  -0.154255  0.003985  3.924196  0.004  -0.159634  0.003654  3.940017  0.004  -0.075601  -0.150939  0.004448  3.914626  0.005
C  C34  1  0.00000694  0.34343863  0.84131628  1  0.079025  -0.014983  3.850118  -0.011  0.095187  -0.00414  4.080691  -0.003  0.098352  -0.004454  4.100481  -0.003  0.02184  0.092899  -0.004605  4.06741  -0.003
C  C35  1  0.00000103  0.65655729  0.15867982  1  0.079274  -0.014968  3.849804  -0.011  0.095436  -0.004135  4.08036  -0.003  0.0986  -0.004452  4.100147  -0.003  0.022056  0.093146  -0.004604  4.067087  -0.003
C  C36  1  0.49999779  0.84345003  0.65868312  1  0.079114  -0.014979  3.850032  -0.011  0.095247  -0.004135  4.080632  -0.003  0.098426  -0.004454  4.10042  -0.003  0.021873  0.092953  -0.004604  4.067361  -0.003
C  C37  1  0.50000120  0.15654609  0.34131880  1  0.079246  -0.014981  3.8501  -0.011  0.095397  -0.004136  4.08067  -0.003  0.098563  -0.004455  4.100454  -0.003  0.02201  0.093107  -0.004604  4.067387  -0.003
C  C38  1  0.00000350  0.44786306  0.79534667  1  0.27217  0.002475  3.717363  0.004  0.260879  0.000212  3.98404  0.001  0.270543  0.000366  4.000489  0.001  0.196107  0.254025  9.9e-05  3.973499  0.001
C  C39  1  0.00000177  0.55212720  0.20465019  1  0.272079  0.002468  3.717286  0.004  0.260764  0.000215  3.983982  0.001  0.270431  0.000365  4.000427  0.001  0.196046  0.253906  9.9e-05  3.973447  0.001
C  C40  1  0.50000035  0.94788637  0.70465570  1  0.271606  0.002471  3.71791  0.004  0.26031  0.000214  3.984589  0.001  0.269963  0.000366  4.001043  0.001  0.195939  0.253459  9.9e-05  3.974044  0.001
C  C41  1  0.50000132  0.05211823  0.29534999  1  0.271982  0.002476  3.717389  0.004  0.260689  0.000213  3.984085  0.001  0.270354  0.000367  4.000537  0.001  0.196051  0.253834  9.9e-05  3.973546  0.001
Br  Br42  1  0.50000156  0.21718333  0.03336308  1  -0.389057  0.175278  1.25957  0.206  -0.423943  0.120716  1.602251  0.141  -0.478461  0.085756  1.57873  0.104  -0.175329  -0.383735  0.149236  1.617462  0.169
Br  Br43  1  0.50000012  0.78282834  0.96663094  1  -0.389183  0.175265  1.259618  0.206  -0.424026  0.120712  1.602267  0.141  -0.47854  0.085754  1.578742  0.104  -0.175333  -0.383826  0.149232  1.617492  0.169
Br  Br44  1  0.99999118  0.71718417  0.46663553  1  -0.389091  0.175269  1.259583  0.206  -0.423947  0.120709  1.602244  0.141  -0.478461  0.085761  1.57871  0.104  -0.175331  -0.383747  0.149226  1.61749  0.169
Br  Br45  1  0.99999613  0.28282487  0.53336656  1  -0.389086  0.175275  1.259581  0.206  -0.423962  0.120712  1.602273  0.141  -0.478476  0.085763  1.57874  0.104  -0.17531  -0.383751  0.149238  1.617488  0.169
N  N46  1  0.00000299  0.14580221  0.93241493  1  -0.256582  0.049532  3.329738  0.077  -0.203535  0.031607  3.59561  0.05  -0.235109  0.025616  3.620766  0.043  -0.324664  -0.184267  0.036414  3.581043  0.056
N  N47  1  0.99999600  0.85420522  0.06758360  1  -0.256659  0.049522  3.329623  0.077  -0.203509  0.031604  3.595426  0.05  -0.235086  0.025613  3.620586  0.043  -0.324627  -0.184233  0.036412  3.580833  0.056
N  N48  1  0.49999800  0.64580397  0.56758574  1  -0.256539  0.049533  3.329749  0.077  -0.203503  0.031603  3.595602  0.05  -0.235077  0.025616  3.620759  0.043  -0.324609  -0.184229  0.036412  3.581022  0.056
N  N49  1  0.49999022  0.35419921  0.43241656  1  -0.256794  0.049535  3.329947  0.077  -0.2037  0.031602  3.595775  0.05  -0.235276  0.025615  3.62093  0.043  -0.324654  -0.184431  0.03641  3.581211  0.056
N  N50  1  0.00000018  0.53923806  0.75875056  1  -0.376296  -0.00783  2.57284  -0.007  -0.356215  -0.001918  2.787963  -0.002  -0.366339  -0.002109  2.801201  -0.002  -0.285471  -0.349564  -0.002194  2.779431  -0.002
N  N51  1  0.99999881  0.46075100  0.24124459  1  -0.376275  -0.007815  2.572971  -0.007  -0.356175  -0.001924  2.788122  -0.002  -0.366298  -0.002108  2.801361  -0.002  -0.285479  -0.349522  -0.002194  2.77959  -0.002
N  N52  1  0.50000169  0.03927053  0.74124714  1  -0.375741  -0.007818  2.573523  -0.007  -0.355612  -0.00192  2.788622  -0.002  -0.365731  -0.00211  2.80187  -0.002  -0.285252  -0.348961  -0.002192  2.780081  -0.002
N  N53  1  0.49999460  0.96073266  0.25875252  1  -0.376126  -0.007833  2.57284  -0.007  -0.356034  -0.001921  2.787972  -0.002  -0.366158  -0.002112  2.801218  -0.002  -0.285432  -0.349385  -0.002195  2.779438  -0.002
