# generated using pymatgen
data_AlH11C12NO5
_symmetry_space_group_name_H-M   'P 1'
_cell_length_a   6.62622640
_cell_length_b   11.01313258
_cell_length_c   16.98326878
_cell_angle_alpha   88.95868409
_cell_angle_beta   82.47176514
_cell_angle_gamma   72.37456526
_symmetry_Int_Tables_number   1
_chemical_formula_structural   AlH11C12NO5
_chemical_formula_sum   'Al2 H22 C24 N2 O10'
_cell_volume   1170.69806230
_cell_formula_units_Z   2
loop_
 _symmetry_equiv_pos_site_id
 _symmetry_equiv_pos_as_xyz
  1  'x, y, z'
loop_
 _atom_site_type_symbol
 _atom_site_label
 _atom_site_symmetry_multiplicity
 _atom_site_fract_x
 _atom_site_fract_y
 _atom_site_fract_z
 _atom_site_occupancy
 _atom_site_pbe_bader_charge
 _atom_site_pbe_bader_spin_density
 _atom_site_pbe_cm5_charge
 _atom_site_pbe_ddec_charge
 _atom_site_pbe_ddec_spin_density
 _atom_site_pbe_ddec_sum_bond_order
 _atom_site_pbe_magmom
Al  Al0  1  0.00290405  0.49997682  0.50192916  1  2.49902  0  0.396981  1.641386  0  2.587226  0
Al  Al1  1  0.50738594  0.49197666  0.50162548  1  2.49861  0  0.39655  1.642464  0  2.58499  0
H  H2  1  0.17373614  0.64665451  0.54443376  1  0.611788  0  0.350675  0.426475  0  0.864323  0
H  H3  1  0.82836848  0.42089125  0.40846968  1  0.63346  0  0.352006  0.427589  0  0.860122  0
H  H4  1  0.67409464  0.45014592  0.25851943  1  0.07035  0  0.106117  0.107009  0  1.000668  0
H  H5  1  0.72684748  0.44847641  0.10922062  1  0.104937  0  0.106289  0.107939  0  1.019813  0
H  H6  1  0.04595601  0.57364496  0.10954095  1  0.09699  0  0.108519  0.112112  0  0.998284  0
H  H7  1  0.99323644  0.57241352  0.25947970  1  0.099345  0  0.108994  0.113094  0  0.995917  0
H  H8  1  0.89354511  0.55344537  0.89205563  1  0.086061  0  0.107937  0.110621  0  1.00187  0
H  H9  1  0.33035553  0.43721013  0.89003445  1  0.110182  0  0.105421  0.10687  0  1.01955  0
H  H10  1  0.39237914  0.42691331  0.74019733  1  0.098753  0  0.112292  0.118833  0  0.991127  0
H  H11  1  0.95476085  0.54299235  0.74172382  1  0.136638  0  0.112284  0.119035  0  0.993274  0
H  H12  1  0.54727607  0.11642242  0.37696471  1  -0.003106  0  0.090236  0.083787  0  0.981811  0
H  H13  1  0.74484048  0.09982349  0.44021744  1  0.044677  0  0.094984  0.096959  0  0.987253  0
H  H14  1  0.83255140  0.87888762  0.41582853  1  0.018633  0  0.092946  0.092276  0  0.993062  0
H  H15  1  0.59681771  0.89726594  0.37252728  1  0.021694  0  0.090788  0.086836  0  0.975814  0
H  H16  1  0.80240615  0.89885293  0.56570696  1  0.060805  0  0.092302  0.090207  0  0.990991  0
H  H17  1  0.57688494  0.88023959  0.62691419  1  0.013782  0  0.092391  0.08738  0  0.978392  0
H  H18  1  0.64640952  0.11906338  0.58907648  1  0.044754  0  0.096583  0.096815  0  0.983661  0
H  H19  1  0.39935703  0.09908324  0.63062871  1  0.01931  0  0.092625  0.089039  0  0.974296  0
H  H20  1  0.18303709  0.09719220  0.43891275  1  0.020106  0  0.090244  0.085978  0  0.980979  0
H  H21  1  0.10783953  0.11630952  0.54198427  1  0.043895  0  0.094573  0.095288  0  0.988474  0
H  H22  1  0.24239087  0.89628581  0.56178156  1  0.020048  0  0.088141  0.081552  0  0.989493  0
H  H23  1  0.26150816  0.87683398  0.45814998  1  0.02481  0  0.091305  0.087764  0  0.989869  0
C  C24  1  0.63998138  0.72877023  0.49974888  1  1.541306  0  0.272447  0.638444  0  4.028866  0
C  C25  1  0.70627282  0.48424574  0.64448029  1  1.610409  0  0.267211  0.630851  0  4.110776  0
C  C26  1  0.36050517  0.26687995  0.50461733  1  1.5983  0  0.276482  0.638275  0  4.034314  0
C  C27  1  0.30260812  0.50686578  0.35601614  1  1.587606  0  0.262251  0.634252  0  4.110634  0
C  C28  1  0.33071668  0.51118263  0.26743637  1  0.048106  0  -0.011773  -0.03624  0  3.959821  0
C  C29  1  0.53783209  0.47755759  0.22526774  1  -0.06646  0  -0.080178  -0.080372  0  3.981612  0
C  C30  1  0.56769960  0.47717802  0.14296960  1  -0.089428  0  -0.083734  -0.143905  0  3.953086  0
C  C31  1  0.38877049  0.51274243  0.10147982  1  0.412546  0  0.089646  0.174982  0  4.042355  0
C  C32  1  0.18143331  0.54678498  0.14332696  1  -0.047769  0  -0.079212  -0.139622  0  3.947896  0
C  C33  1  0.15277292  0.54586332  0.22595263  1  -0.071316  0  -0.08036  -0.086339  0  3.975915  0
C  C34  1  0.78557787  0.52610587  0.85764549  1  -0.091803  0  -0.079062  -0.140103  0  3.949167  0
C  C35  1  0.60693157  0.49850003  0.89880153  1  0.407344  0  0.088651  0.17035  0  4.045762  0
C  C36  1  0.46482233  0.46117863  0.85678746  1  -0.064998  0  -0.082928  -0.141767  0  3.949275  0
C  C37  1  0.49945766  0.45528020  0.77444011  1  0.04051  0  -0.077981  -0.081331  0  3.968491  0
C  C38  1  0.67539179  0.48579783  0.73308522  1  -0.094621  0  -0.009514  -0.038332  0  3.960957  0
C  C39  1  0.81897361  0.52048648  0.77505724  1  -0.056957  0  -0.077971  -0.08271  0  3.969263  0
C  C40  1  0.60403563  0.07121223  0.43158620  1  -0.01985  0  -0.157797  -0.174866  0  3.864732  0
C  C41  1  0.65889661  0.92462594  0.42427493  1  0.015845  0  -0.15848  -0.173065  0  3.862177  0
C  C42  1  0.55853577  0.87343650  0.49991904  1  0.060588  0  -0.015389  0.015503  0  3.805972  0
C  C43  1  0.62705488  0.92578035  0.57278991  1  -0.058639  0  -0.155412  -0.170465  0  3.856377  0
C  C44  1  0.52630274  0.07232285  0.57970763  1  -0.026034  0  -0.154179  -0.171955  0  3.850159  0
C  C45  1  0.42921604  0.12220252  0.50297187  1  0.034348  0  -0.014351  0.014435  0  3.812291  0
C  C46  1  0.24141051  0.07004161  0.49639783  1  -0.030517  0  -0.163274  -0.179993  0  3.889208  0
C  C47  1  0.31385181  0.92367980  0.50471341  1  -0.025212  0  -0.16403  -0.180316  0  3.89743  0
N  N48  1  0.40324274  0.51242909  0.01772974  1  -0.499343  0  -0.149231  -0.138851  0  3.273061  0
N  N49  1  0.58638648  0.50769581  0.98237656  1  -0.499309  0  -0.146164  -0.13227  0  3.282998  0
O  O50  1  0.84199040  0.67714252  0.49264586  1  -1.282796  0  -0.242987  -0.607706  0  2.349117  0
O  O51  1  0.55846468  0.46638421  0.60971263  1  -1.261701  0  -0.230779  -0.576669  0  2.341606  0
O  O52  1  0.50821340  0.31969249  0.49709538  1  -1.277642  0  -0.235369  -0.593938  0  2.360013  0
O  O53  1  0.12417727  0.49877164  0.39029218  1  -1.260309  0  -0.238916  -0.600279  0  2.34099  0
O  O54  1  0.16185536  0.32604946  0.51236925  1  -1.266368  0  -0.231342  -0.581409  0  2.36497  0
O  O55  1  0.46126194  0.50987540  0.39027261  1  -1.257866  0  -0.240557  -0.601678  0  2.342297  0
O  O56  1  0.50175200  0.66886961  0.50858573  1  -1.278193  0  -0.237443  -0.604479  0  2.373524  0
O  O57  1  0.87589082  0.50377325  0.61003232  1  -1.260105  0  -0.232061  -0.584405  0  2.350519  0
O  O58  1  0.21602079  0.55525239  0.53482662  1  -1.413303  0  -0.44826  -0.990726  0  2.20228  0
O  O59  1  0.79554343  0.44384989  0.46449830  1  -1.431914  0  -0.449133  -0.990608  0  2.217017  0
