# generated using pymatgen
data_ZnH23C42N6Cl11O9
_symmetry_space_group_name_H-M   'P 1'
_cell_length_a   18.47991271
_cell_length_b   19.13130524
_cell_length_c   27.90006746
_cell_angle_alpha   91.29007232
_cell_angle_beta   89.63951814
_cell_angle_gamma   89.98625416
_symmetry_Int_Tables_number   1
_chemical_formula_structural   ZnH23C42N6Cl11O9
_chemical_formula_sum   'Zn2 H46 C84 N12 Cl22 O18'
_cell_volume   9861.22903337
_cell_formula_units_Z   2
loop_
 _symmetry_equiv_pos_site_id
 _symmetry_equiv_pos_as_xyz
  1  'x, y, z'
loop_
 _atom_site_type_symbol
 _atom_site_label
 _atom_site_symmetry_multiplicity
 _atom_site_fract_x
 _atom_site_fract_y
 _atom_site_fract_z
 _atom_site_occupancy
 _atom_site_pbe_bader_charge
 _atom_site_pbe_bader_spin_density
 _atom_site_pbe_cm5_charge
 _atom_site_pbe_ddec_charge
 _atom_site_pbe_ddec_spin_density
 _atom_site_pbe_ddec_sum_bond_order
 _atom_site_pbe_magmom
Zn  Zn0  1  0.42021430  0.49662005  0.49829855  1  1.313033  0  0.672839  0.899502  0  2.29548  0
Zn  Zn1  1  0.58238510  0.50055430  0.49705521  1  1.342491  0  0.677006  0.907557  0  2.295629  0
H  H2  1  0.38101844  0.52272592  0.64635378  1  0.128341  0  0.106196  0.127258  0  1.011589  0
H  H3  1  0.51329877  0.09467648  0.14956271  1  0.045108  0  0.092351  0.121569  0  0.996099  0
H  H4  1  0.56060930  0.13182198  0.10085808  1  0.01511  0  0.08437  0.106733  0  1.010233  0
H  H5  1  0.52263483  0.77675047  0.85489831  1  0.074625  0  0.113438  0.084616  0  0.944591  0
H  H6  1  0.54687864  0.74011650  0.91062649  1  0.040558  0  0.099583  0.055598  0  1.005722  0
H  H7  1  0.39872136  0.80367545  0.88729240  1  0.042028  0  0.09846  0.095982  0  0.962444  0
H  H8  1  0.42366269  0.77216960  0.94392867  1  0.061034  0  0.09266  0.088311  0  0.98608  0
H  H9  1  0.52380962  0.86295857  0.94931852  1  -0.005909  0  0.083249  0.103577  0  1.016239  0
H  H10  1  0.43773999  0.90263032  0.94308018  1  0.04545  0  0.090401  0.118529  0  0.997137  0
H  H11  1  0.49719032  0.89541250  0.89296142  1  0.044826  0  0.088202  0.111458  0  1.001908  0
H  H12  1  0.47424668  0.22921193  0.83429506  1  0.059916  0  0.110542  0.08416  0  0.946061  0
H  H13  1  0.38062255  0.47520162  0.34818901  1  0.135323  0  0.109599  0.130561  0  1.000289  0
H  H14  1  0.41144568  0.29804624  0.84391696  1  0.077516  0  0.100856  0.072859  0  1.000888  0
H  H15  1  0.46173895  0.19626397  0.92098231  1  0.037423  0  0.088577  0.082874  0  0.986376  0
H  H16  1  0.39827059  0.26419626  0.93043242  1  0.036412  0  0.087401  0.082148  0  0.981172  0
H  H17  1  0.31558596  0.20818144  0.86800352  1  0.008994  0  0.086754  0.111549  0  1.001918  0
H  H18  1  0.33331439  0.15054340  0.91547888  1  0.0128  0  0.085727  0.111463  0  1.005681  0
H  H19  1  0.37867601  0.13905575  0.85958330  1  0.007926  0  0.08522  0.108357  0  1.00457  0
H  H20  1  0.44846465  0.77759926  0.16466497  1  0.066373  0  0.1105  0.084846  0  0.945998  0
H  H21  1  0.39345074  0.70444664  0.15054647  1  0.076748  0  0.100704  0.070675  0  0.996921  0
H  H22  1  0.43861658  0.81624607  0.07856935  1  0.032384  0  0.089816  0.085404  0  0.9764  0
H  H23  1  0.37966799  0.74551460  0.06630011  1  0.017468  0  0.087392  0.081292  0  0.980047  0
H  H24  1  0.48597313  0.33427660  0.03394954  1  0.118039  0  0.109378  0.116696  0  1.094102  0
H  H25  1  0.29217622  0.79260951  0.13041216  1  0.033763  0  0.086699  0.111421  0  1.001879  0
H  H26  1  0.30705078  0.85400041  0.08465980  1  0.041113  0  0.086131  0.111949  0  1.005119  0
H  H27  1  0.35082117  0.86464123  0.14079946  1  -0.000243  0  0.085604  0.108543  0  1.004963  0
H  H28  1  0.61749821  0.34009386  0.00905993  1  0.051804  0  0.091926  0.050467  0  0.994072  0
H  H29  1  0.63410764  0.32336198  0.94656818  1  0.056147  0  0.103299  0.069651  0  0.966483  0
H  H30  1  0.57747039  0.21214478  0.01461584  1  0.035892  0  0.089826  0.076  0  1.004585  0
H  H31  1  0.60744468  0.19883229  0.95492481  1  0.032807  0  0.096933  0.092652  0  0.966422  0
H  H32  1  0.73462457  0.23651606  0.97994900  1  0.034974  0  0.088676  0.115183  0  0.996829  0
H  H33  1  0.70447469  0.16337241  0.01248397  1  0.048879  0  0.089838  0.11801  0  0.998759  0
H  H34  1  0.70329775  0.24801091  0.03987866  1  0.024366  0  0.085834  0.109426  0  1.004717  0
H  H35  1  0.48032414  0.67955651  0.96194851  1  0.148903  0  0.110195  0.11797  0  1.087978  0
H  H36  1  0.59421327  0.76052137  0.99591311  1  0.073496  0  0.105344  0.07122  0  0.972409  0
H  H37  1  0.60633095  0.66916111  0.98420943  1  0.034426  0  0.092799  0.051412  0  1.005241  0
H  H38  1  0.63270831  0.74341077  0.08135794  1  0.063726  0  0.097658  0.099662  0  0.966818  0
H  H39  1  0.64683684  0.65360815  0.06855401  1  0.030239  0  0.092144  0.087035  0  0.975117  0
H  H40  1  0.74070100  0.68386859  0.00534714  1  0.027728  0  0.085827  0.109256  0  1.003835  0
H  H41  1  0.76472546  0.71734876  0.06288255  1  0.002091  0  0.092299  0.121818  0  0.994546  0
H  H42  1  0.72835664  0.77401751  0.01970945  1  0.024905  0  0.085105  0.107299  0  1.005336  0
H  H43  1  0.54142540  0.26188796  0.08307158  1  0.044722  0  0.100811  0.06217  0  0.991616  0
H  H44  1  0.44547494  0.25069913  0.08051679  1  0.035369  0  0.101925  0.064525  0  0.964337  0
H  H45  1  0.53987764  0.22162272  0.16798215  1  0.039177  0  0.101798  0.100471  0  0.955512  0
H  H46  1  0.44570299  0.20755867  0.16448159  1  0.018859  0  0.099399  0.094809  0  0.960407  0
H  H47  1  0.46577819  0.11756231  0.09712793  1  0.020735  0  0.08466  0.106615  0  1.007941  0
C  C48  1  0.51951496  0.36469188  0.49938791  1  1.625167  0  0.207235  0.613315  0  4.207289  0
C  C49  1  0.48715163  0.43312078  0.87053482  1  0.030374  0  -0.023041  -0.176438  0  3.971284  0
C  C50  1  0.48720004  0.51845854  0.35387680  1  -0.057589  0  -0.014408  -0.056181  0  3.922839  0
C  C51  1  0.49070494  0.48692139  0.64252106  1  0.015355  0  -0.020407  -0.063068  0  3.938109  0
C  C52  1  0.49923779  0.44001236  0.97301097  1  0.032176  0  -0.003611  -0.040485  0  3.95827  0
C  C53  1  0.49731379  0.57427163  0.02319294  1  0.052348  0  -0.00554  -0.04786  0  3.959165  0
C  C54  1  0.49204594  0.56953677  0.97067524  1  -0.03514  0  0.00255  0.086523  0  3.974467  0
C  C55  1  0.49412818  0.44455398  0.02555412  1  -0.013832  0  0.002831  0.088364  0  3.975819  0
C  C56  1  0.49205777  0.50267251  0.94644408  1  -0.036554  0  -0.009425  -0.022394  0  3.94638  0
C  C57  1  0.49257503  0.51133269  0.04975327  1  0.010422  0  -0.01071  -0.023798  0  3.952383  0
C  C58  1  0.50951002  0.37684585  0.94695986  1  0.488201  0  0.079846  0.100974  0  4.006462  0
C  C59  1  0.51188469  0.63319627  0.50329829  1  1.639396  0  0.208274  0.612946  0  4.211045  0
C  C60  1  0.50424997  0.63781431  0.04929700  1  0.440428  0  0.082405  0.109023  0  3.994387  0
C  C61  1  0.50089139  0.37247248  0.89641975  1  0.597726  0  0.098377  0.170398  0  4.046209  0
C  C62  1  0.49253428  0.64179488  0.09974470  1  0.599836  0  0.100414  0.171283  0  4.042618  0
C  C63  1  0.48485672  0.50888886  0.40728720  1  1.582338  0  0.217951  0.619932  0  4.134369  0
C  C64  1  0.48832333  0.49125258  0.58879910  1  1.607897  0  0.208845  0.599285  0  4.184255  0
C  C65  1  0.48833323  0.38440190  0.05265770  1  0.063452  0  -0.112064  -0.28216  0  3.994132  0
C  C66  1  0.48419649  0.62927776  0.94351216  1  0.010601  0  -0.108867  -0.278018  0  3.992524  0
C  C67  1  0.50097326  0.26184340  0.55278495  1  0.108399  0  0.012369  0.068819  0  4.02916  0
C  C68  1  0.51059455  0.75572315  0.47193901  1  0.113794  0  0.011317  0.072197  0  4.032983  0
C  C69  1  0.49517463  0.73949385  0.55739257  1  0.070952  0  0.009602  0.06297  0  4.030186  0
C  C70  1  0.48807216  0.51415426  0.10118254  1  -0.026938  0  0.000994  0.064524  0  3.99715  0
C  C71  1  0.52396192  0.23936622  0.46820135  1  0.07819  0  0.009407  0.06798  0  4.032488  0
C  C72  1  0.49489444  0.18976923  0.56015775  1  0.085861  0  0.014839  0.066856  0  4.030978  0
C  C73  1  0.50500210  0.82833636  0.47921128  1  0.195767  0  0.014251  0.066137  0  4.024425  0
C  C74  1  0.48908505  0.81214057  0.56472641  1  0.131671  0  0.013356  0.066077  0  4.032544  0
C  C75  1  0.51733690  0.16721578  0.47542368  1  0.129756  0  0.012529  0.065097  0  4.027735  0
C  C76  1  0.50300217  0.14244767  0.52141386  1  0.103871  0  -0.0125  -0.082476  0  4.003779  0
C  C77  1  0.49460573  0.85657208  0.52555759  1  0.040211  0  -0.01271  -0.083821  0  4.001347  0
C  C78  1  0.51586980  0.28662137  0.50688407  1  0.169151  0  -0.013076  -0.097041  0  3.926115  0
C  C79  1  0.50629030  0.71148436  0.51112612  1  0.09852  0  -0.013623  -0.098717  0  3.936302  0
C  C80  1  0.49183139  0.93356586  0.53229856  1  1.020502  0  0.239723  0.262779  0  4.039976  0
C  C81  1  0.48693330  0.49953655  0.89508399  1  0.008672  0  0.00202  0.065246  0  3.990659  0
C  C82  1  0.49645439  0.06634012  0.52934071  1  1.013417  0  0.239418  0.25996  0  4.041878  0
C  C83  1  0.73812033  0.46939678  0.46291594  1  0.682646  0  0.148103  0.233826  0  4.042259  0
C  C84  1  0.26404248  0.54626882  0.52694817  1  0.738502  0  0.149334  0.234458  0  4.036849  0
C  C85  1  0.73654846  0.53793629  0.53307267  1  0.728516  0  0.148898  0.236143  0  4.036569  0
C  C86  1  0.26350363  0.44606487  0.47810813  1  0.623705  0  0.148795  0.231889  0  4.049644  0
C  C87  1  0.81426510  0.46772994  0.46222242  1  0.150669  0  0.019497  0.023291  0  4.023982  0
C  C88  1  0.18789492  0.54881057  0.52776065  1  0.121862  0  0.020511  0.023385  0  4.024775  0
C  C89  1  0.81266730  0.53716311  0.53551290  1  0.115614  0  0.020462  0.023918  0  4.020888  0
C  C90  1  0.18740093  0.44415248  0.47788552  1  0.290509  0  0.020221  0.022874  0  4.028351  0
C  C91  1  0.85165495  0.50171850  0.49939796  1  0.11694  0  0.009383  -0.028072  0  3.97562  0
C  C92  1  0.48898424  0.45154209  0.12784020  1  0.002602  0  -0.027895  -0.188211  0  3.953657  0
C  C93  1  0.14948729  0.49689337  0.50276803  1  -0.010002  0  0.010172  -0.027597  0  3.978749  0
C  C94  1  0.06918328  0.49814079  0.50219147  1  1.024337  0  0.245127  0.253405  0  4.033041  0
C  C95  1  0.93192823  0.50040912  0.50045584  1  1.015598  0  0.246488  0.255464  0  4.021346  0
C  C96  1  0.49668630  0.45427532  0.18020674  1  1.322374  0  0.229782  0.453931  0  4.115646  0
C  C97  1  0.49060281  0.55975287  0.81576561  1  1.364204  0  0.230805  0.457405  0  4.11062  0
C  C98  1  0.47446103  0.58414476  0.17843368  1  1.339437  0  0.233797  0.455097  0  4.108007  0
C  C99  1  0.47759641  0.42873345  0.81809858  1  1.36003  0  0.234047  0.455348  0  4.10839  0
C  C100  1  0.42492597  0.49772613  0.27860979  1  0.037119  0  0.020745  0.09878  0  4.035458  0
C  C101  1  0.42473701  0.50834146  0.71685203  1  6.2e-05  0  0.020265  0.0995  0  4.036268  0
C  C102  1  0.42653156  0.49544063  0.32826367  1  0.1556  0  -0.086634  -0.145633  0  3.956911  0
C  C103  1  0.48371899  0.56217961  0.86834872  1  -0.011662  0  -0.027323  -0.188741  0  3.946438  0
C  C104  1  0.42775018  0.50745915  0.66715534  1  0.142509  0  -0.090084  -0.146013  0  3.95952  0
C  C105  1  0.54665414  0.54641513  0.32883523  1  0.126748  0  0.014889  0.076824  0  3.988319  0
C  C106  1  0.55163183  0.46532483  0.66856774  1  0.056479  0  0.013746  0.077958  0  3.987999  0
C  C107  1  0.54500927  0.54773647  0.27837654  1  0.15614  0  0.018467  0.037355  0  3.99952  0
C  C108  1  0.54846822  0.46734315  0.71904428  1  0.159137  0  0.018982  0.038453  0  3.99502  0
C  C109  1  0.48459040  0.52282884  0.25307856  1  0.489023  0  0.091455  0.100864  0  4.009772  0
C  C110  1  0.48538387  0.48910685  0.74328769  1  0.478376  0  0.091429  0.101586  0  4.010656  0
C  C111  1  0.49135228  0.26123442  0.10481135  1  0.386328  0  -0.059636  0.037583  0  3.888559  0
C  C112  1  0.49610456  0.20663943  0.14326719  1  0.03999  0  -0.162592  -0.130128  0  3.977854  0
C  C113  1  0.50962136  0.13375620  0.12145952  1  -0.075346  0  -0.241512  -0.355003  0  3.991848  0
C  C114  1  0.48656118  0.38674143  0.10288794  1  0.472116  0  0.102635  0.273369  0  4.057331  0
C  C115  1  0.50107595  0.75078772  0.88675758  1  0.403435  0  -0.058297  0.036799  0  3.873804  0
C  C116  1  0.44479122  0.79731150  0.91161621  1  -0.048987  0  -0.16753  -0.142562  0  3.982972  0
C  C117  1  0.47761324  0.86848162  0.92496952  1  -0.081018  0  -0.240014  -0.34793  0  3.984568  0
C  C118  1  0.45194516  0.26562606  0.86158177  1  0.383088  0  -0.063791  0.04052  0  3.861558  0
C  C119  1  0.41928763  0.22650926  0.90334948  1  -0.02664  0  -0.173559  -0.142612  0  4.000934  0
C  C120  1  0.35839451  0.17845156  0.88568741  1  -0.02143  0  -0.242022  -0.34965  0  3.990598  0
C  C121  1  0.43152375  0.74214874  0.13532928  1  0.3916  0  -0.062363  0.042784  0  3.861691  0
C  C122  1  0.39752607  0.78234876  0.09475823  1  -0.00645  0  -0.173122  -0.141791  0  3.999072  0
C  C123  1  0.33338135  0.82574011  0.11361404  1  -0.075644  0  -0.241793  -0.350112  0  3.990415  0
C  C124  1  0.60276017  0.30632251  0.97794064  1  0.385166  0  -0.064037  0.034614  0  3.877526  0
C  C125  1  0.48028442  0.62682228  0.89336075  1  0.489481  0  0.103313  0.275855  0  4.054933  0
C  C126  1  0.61709029  0.22997113  0.98789779  1  -0.026364  0  -0.165913  -0.130229  0  3.991427  0
C  C127  1  0.69405101  0.21886806  0.00602126  1  -0.094587  0  -0.2409  -0.353332  0  3.981325  0
C  C128  1  0.59366872  0.70884931  0.01239699  1  0.351819  0  -0.064368  0.033007  0  3.878304  0
C  C129  1  0.64842675  0.70583728  0.05276563  1  -0.013108  0  -0.169626  -0.139335  0  3.97508  0
C  C130  1  0.72468656  0.72107695  0.03414167  1  -0.038633  0  -0.240529  -0.348706  0  3.981628  0
C  C131  1  0.48364279  0.58042321  0.12580319  1  -0.011581  0  -0.024118  -0.180123  0  3.972112  0
N  N132  1  0.48489976  0.52081389  0.20196342  1  -1.20814  0  -0.249333  -0.236503  0  3.674976  0
N  N133  1  0.03448235  0.45698406  0.53336330  1  -0.560401  0  -0.147631  -0.128104  0  3.150598  0
N  N134  1  0.96280420  0.45833103  0.53253684  1  -0.505974  0  -0.146131  -0.125985  0  3.152297  0
N  N135  1  0.03835408  0.54049181  0.47025682  1  -0.531962  0  -0.147066  -0.128611  0  3.153196  0
N  N136  1  0.48381754  0.49242364  0.79436422  1  -1.18365  0  -0.249406  -0.23872  0  3.679415  0
N  N137  1  0.55367077  0.03409671  0.54884999  1  -0.579374  0  -0.155142  -0.136353  0  3.168302  0
N  N138  1  0.42954496  0.96666536  0.52245371  1  -0.564646  0  -0.157867  -0.142117  0  3.168042  0
N  N139  1  0.55129657  0.96502076  0.55036000  1  -0.498542  0  -0.155023  -0.13705  0  3.166192  0
N  N140  1  0.43193941  0.03587788  0.52093660  1  -0.5225  0  -0.15736  -0.140489  0  3.165593  0
N  N141  1  0.70089300  0.50394255  0.49764888  1  -1.19318  0  -0.297153  -0.277519  0  3.424924  0
N  N142  1  0.30018125  0.49625489  0.50206593  1  -1.166545  0  -0.294122  -0.273109  0  3.422356  0
N  N143  1  0.96671740  0.54156140  0.46927585  1  -0.499308  0  -0.146907  -0.126474  0  3.154455  0
Cl  Cl144  1  0.62077970  0.58151317  0.35743272  1  -0.166224  0  -0.005226  -0.051633  0  1.654493  0
Cl  Cl145  1  0.31105759  0.38329378  0.44751613  1  -0.097373  0  0.070286  0.020254  0  1.606337  0
Cl  Cl146  1  0.86072708  0.42404197  0.41760608  1  -0.136511  0  0.028093  -0.016004  0  1.533385  0
Cl  Cl147  1  0.14238369  0.61335353  0.55878587  1  -0.141993  0  0.029998  -0.014262  0  1.527716  0
Cl  Cl148  1  0.85728781  0.57972825  0.58106205  1  -0.142293  0  0.02893  -0.015706  0  1.535018  0
Cl  Cl149  1  0.14137427  0.37971958  0.44749687  1  -0.141099  0  0.029428  -0.015606  0  1.526514  0
Cl  Cl150  1  0.61764347  0.57872772  0.24665075  1  -0.168652  0  0.000379  -0.044879  0  1.551663  0
Cl  Cl151  1  0.62220104  0.44372392  0.75207986  1  -0.169223  0  0.002267  -0.041932  0  1.553078  0
Cl  Cl152  1  0.34595587  0.53312240  0.74591486  1  -0.19308  0  -0.009809  -0.065101  0  1.442541  0
Cl  Cl153  1  0.34924127  0.46864386  0.24833902  1  -0.194213  0  -0.011416  -0.068654  0  1.443711  0
Cl  Cl154  1  0.48874717  0.31967630  0.59997157  1  -0.159491  0  0.023068  -0.016306  0  1.66078  0
Cl  Cl155  1  0.62907306  0.43376266  0.64152746  1  -0.162511  0  -0.006176  -0.055159  0  1.657857  0
Cl  Cl156  1  0.52265843  0.72041923  0.41536649  1  -0.161891  0  0.009566  -0.033856  0  1.583246  0
Cl  Cl157  1  0.48920241  0.68431053  0.60517616  1  -0.17095  0  0.012246  -0.022847  0  1.563798  0
Cl  Cl158  1  0.54045083  0.27058563  0.41182591  1  -0.169701  0  0.000994  -0.041912  0  1.514704  0
Cl  Cl159  1  0.47593263  0.15906375  0.61623046  1  -0.158924  0  0.006222  -0.043392  0  1.525208  0
Cl  Cl160  1  0.51227313  0.88381081  0.43171544  1  -0.170561  0  0.002782  -0.045525  0  1.527362  0
Cl  Cl161  1  0.47374243  0.84718098  0.62109770  1  -0.158114  0  0.003038  -0.047482  0  1.517133  0
Cl  Cl162  1  0.52722395  0.10804656  0.42845193  1  -0.178996  0  -0.001239  -0.050317  0  1.519263  0
Cl  Cl163  1  0.69150737  0.42700390  0.41891492  1  -0.088858  0  0.069226  0.016973  0  1.668695  0
Cl  Cl164  1  0.31168536  0.60788090  0.55811288  1  -0.095768  0  0.068445  0.015547  0  1.650948  0
Cl  Cl165  1  0.68873659  0.58280459  0.57568945  1  -0.079415  0  0.07007  0.022354  0  1.675886  0
O  O166  1  0.45894448  0.39391419  0.49369260  1  -1.159602  0  -0.314488  -0.562917  0  2.385125  0
O  O167  1  0.50217949  0.60975892  0.78990032  1  -1.08761  0  -0.28577  -0.441938  0  2.096354  0
O  O168  1  0.46627287  0.37488918  0.79432318  1  -1.106642  0  -0.276562  -0.441601  0  2.131454  0
O  O169  1  0.46025532  0.63721036  0.20246597  1  -1.103279  0  -0.278142  -0.444354  0  2.13422  0
O  O170  1  0.48229724  0.32811348  0.12864040  1  -1.041154  0  -0.160972  -0.168997  0  2.580536  0
O  O171  1  0.47257085  0.68559155  0.86801925  1  -1.052148  0  -0.16875  -0.177604  0  2.550002  0
O  O172  1  0.51347024  0.30897315  0.87518567  1  -1.067911  0  -0.197585  -0.218685  0  2.541911  0
O  O173  1  0.49768060  0.70632113  0.12067822  1  -1.063578  0  -0.192935  -0.217757  0  2.562696  0
O  O174  1  0.52629490  0.31474535  0.96821528  1  -1.06686  0  -0.195213  -0.217261  0  2.590939  0
O  O175  1  0.51925672  0.70059583  0.02834532  1  -1.069028  0  -0.196968  -0.218747  0  2.565803  0
O  O176  1  0.57505468  0.60813051  0.49894792  1  -1.139247  0  -0.315407  -0.542485  0  2.338309  0
O  O177  1  0.45218392  0.60110962  0.50219146  1  -1.158061  0  -0.313736  -0.558956  0  2.38931  0
O  O178  1  0.58160661  0.39271696  0.50001770  1  -1.147775  0  -0.314743  -0.539978  0  2.318574  0
O  O179  1  0.42201667  0.50670080  0.42647443  1  -1.141809  0  -0.320176  -0.545926  0  2.327207  0
O  O180  1  0.54745363  0.50003433  0.56671307  1  -1.169411  0  -0.317762  -0.567809  0  2.48166  0
O  O181  1  0.42562003  0.48791729  0.57001353  1  -1.154883  0  -0.322904  -0.555372  0  2.374516  0
O  O182  1  0.54453384  0.50121875  0.42858918  1  -1.172296  0  -0.318406  -0.570559  0  2.458189  0
O  O183  1  0.51256006  0.40494220  0.20560682  1  -1.091248  0  -0.285725  -0.442447  0  2.100053  0
