# generated using pymatgen
data_Ag2H6C7SO4
_symmetry_space_group_name_H-M   'P 1'
_cell_length_a   6.06799799
_cell_length_b   11.73465897
_cell_length_c   11.88511038
_cell_angle_alpha   90.00050117
_cell_angle_beta   90.00038240
_cell_angle_gamma   92.60428509
_symmetry_Int_Tables_number   1
_chemical_formula_structural   Ag2H6C7SO4
_chemical_formula_sum   'Ag8 H24 C28 S4 O16'
_cell_volume   845.41575805
_cell_formula_units_Z   4
loop_
 _symmetry_equiv_pos_site_id
 _symmetry_equiv_pos_as_xyz
  1  'x, y, z'
loop_
 _atom_site_type_symbol
 _atom_site_label
 _atom_site_symmetry_multiplicity
 _atom_site_fract_x
 _atom_site_fract_y
 _atom_site_fract_z
 _atom_site_occupancy
 _atom_site_hle17_bader_spin_density
 _atom_site_hle17_ddec_charge
 _atom_site_hle17_ddec_spin_density
 _atom_site_hle17_ddec_sum_bond_order
 _atom_site_hle17_magmom
 _atom_site_hse06_10hf_bader_spin_density
 _atom_site_hse06_10hf_ddec_charge
 _atom_site_hse06_10hf_ddec_spin_density
 _atom_site_hse06_10hf_ddec_sum_bond_order
 _atom_site_hse06_10hf_magmom
 _atom_site_hse06_bader_spin_density
 _atom_site_hse06_ddec_charge
 _atom_site_hse06_ddec_spin_density
 _atom_site_hse06_ddec_sum_bond_order
 _atom_site_hse06_magmom
 _atom_site_pbe_bader_spin_density
 _atom_site_pbe_cm5_charge
 _atom_site_pbe_ddec_charge
 _atom_site_pbe_ddec_spin_density
 _atom_site_pbe_ddec_sum_bond_order
 _atom_site_pbe_magmom
Ag  Ag0  1  0.11973334  0.64214523  0.35024289  1  0  0.649363  0  1.331759  0  0  0.545518  0  1.751715  0  0  0.575078  0  1.699937  0  0  0.440138  0.52395  0  1.788181  0
Ag  Ag1  1  0.38027178  0.35785965  0.85024085  1  0  0.649354  0  1.331743  0  0  0.545528  0  1.751675  0  0  0.57509  0  1.699896  0  0  0.440144  0.523955  0  1.788135  0
Ag  Ag2  1  0.88026238  0.35784964  0.64975476  1  0  0.649322  0  1.33169  0  0  0.545494  0  1.751612  0  0  0.575055  0  1.699844  0  0  0.440117  0.523915  0  1.78808  0
Ag  Ag3  1  0.61973107  0.64214380  0.14975680  1  0  0.64931  0  1.331732  0  0  0.545483  0  1.751665  0  0  0.575047  0  1.699887  0  0  0.440113  0.523913  0  1.788126  0
Ag  Ag4  1  0.28441260  0.53431778  0.63963170  1  0  0.686944  0  1.250351  0  0  0.570739  0  1.681149  0  0  0.604387  0  1.623147  0  0  0.441311  0.546006  0  1.722014  0
Ag  Ag5  1  0.21559800  0.46568521  0.13963256  1  0  0.68693  0  1.250346  0  0  0.570713  0  1.681165  0  0  0.604362  0  1.623157  0  0  0.441306  0.545977  0  1.722041  0
Ag  Ag6  1  0.71558499  0.46568051  0.36036763  1  0  0.687048  0  1.250277  0  0  0.570859  0  1.681066  0  0  0.604501  0  1.623067  0  0  0.441377  0.546133  0  1.721933  0
Ag  Ag7  1  0.78440651  0.53431824  0.86036593  1  0  0.686995  0  1.250342  0  0  0.57082  0  1.681125  0  0  0.604462  0  1.623124  0  0  0.441358  0.54609  0  1.721993  0
H  H8  1  0.55944045  0.19238560  0.73554990  1  0  0.106087  0  0.978423  0  0  0.116311  0  1.041183  0  0  0.119702  0  1.039381  0  0  0.094526  0.113862  0  1.042606  0
H  H9  1  0.94055164  0.80762140  0.23554946  1  0  0.106191  0  0.978563  0  0  0.116424  0  1.041268  0  0  0.119811  0  1.039482  0  0  0.094561  0.113973  0  1.042696  0
H  H10  1  0.44054911  0.80761605  0.26444775  1  0  0.10618  0  0.978216  0  0  0.116415  0  1.040975  0  0  0.119804  0  1.039178  0  0  0.094553  0.113961  0  1.042396  0
H  H11  1  0.05944951  0.19238119  0.76444819  1  0  0.106168  0  0.978294  0  0  0.116368  0  1.041073  0  0  0.119758  0  1.039272  0  0  0.094558  0.113916  0  1.042499  0
H  H12  1  0.78652454  0.06788354  0.61939015  1  0  0.086713  0  0.957443  0  0  0.100976  0  1.018024  0  0  0.103102  0  1.01692  0  0  0.099645  0.099409  0  1.018919  0
H  H13  1  0.71347772  0.93212503  0.11938996  1  0  0.086657  0  0.957442  0  0  0.100918  0  1.018048  0  0  0.103046  0  1.016937  0  0  0.099617  0.099349  0  1.018943  0
H  H14  1  0.21346007  0.93211808  0.38061255  1  0  0.086651  0  0.957473  0  0  0.100901  0  1.018071  0  0  0.103026  0  1.016967  0  0  0.099617  0.099333  0  1.018966  0
H  H15  1  0.28652694  0.06788099  0.88060937  1  0  0.086655  0  0.957471  0  0  0.100933  0  1.018041  0  0  0.103058  0  1.016938  0  0  0.099605  0.099365  0  1.018936  0
H  H16  1  0.48038276  0.19373254  0.32081655  1  0  0.117344  0  0.965137  0  0  0.127362  0  1.026706  0  0  0.130371  0  1.024942  0  0  0.106431  0.125167  0  1.028054  0
H  H17  1  0.01962639  0.80626357  0.82081792  1  0  0.117319  0  0.965273  0  0  0.127364  0  1.026814  0  0  0.130372  0  1.02505  0  0  0.106442  0.125169  0  1.02816  0
H  H18  1  0.51961637  0.80626406  0.67917941  1  0  0.117308  0  0.965163  0  0  0.127283  0  1.026803  0  0  0.130293  0  1.025036  0  0  0.106394  0.125088  0  1.02815  0
H  H19  1  0.98037620  0.19373561  0.17917552  1  0  0.11738  0  0.965179  0  0  0.127339  0  1.026829  0  0  0.130349  0  1.02506  0  0  0.106417  0.125142  0  1.028177  0
H  H20  1  0.74088505  0.04481175  0.30265921  1  0  0.10558  0  0.949376  0  0  0.128758  0  1.008022  0  0  0.129717  0  1.008345  0  0  0.089575  0.128002  0  1.007843  0
H  H21  1  0.75913377  0.95518752  0.80265935  1  0  0.105605  0  0.949471  0  0  0.128773  0  1.008113  0  0  0.129731  0  1.008433  0  0  0.089588  0.128018  0  1.007934  0
H  H22  1  0.25912556  0.95518408  0.69734686  1  0  0.105629  0  0.949384  0  0  0.128779  0  1.008069  0  0  0.129738  0  1.008389  0  0  0.089585  0.128023  0  1.007891  0
H  H23  1  0.24089212  0.04481523  0.19733914  1  0  0.105486  0  0.949514  0  0  0.128698  0  1.00813  0  0  0.129659  0  1.00845  0  0  0.089526  0.127941  0  1.007953  0
H  H24  1  0.81533022  0.96592015  0.42365503  1  0  0.103571  0  0.964814  0  0  0.124133  0  1.028998  0  0  0.124049  0  1.031678  0  0  0.086657  0.124121  0  1.027212  0
H  H25  1  0.68467705  0.03408100  0.92365792  1  0  0.103606  0  0.96478  0  0  0.124174  0  1.028958  0  0  0.124086  0  1.031641  0  0  0.086675  0.124159  0  1.027172  0
H  H26  1  0.18467225  0.03407733  0.57635272  1  0  0.103614  0  0.964767  0  0  0.124175  0  1.028929  0  0  0.124077  0  1.031622  0  0  0.086666  0.124171  0  1.027134  0
H  H27  1  0.31533240  0.96592249  0.07633720  1  0  0.103554  0  0.964814  0  0  0.124149  0  1.028959  0  0  0.124056  0  1.031648  0  0  0.086646  0.124135  0  1.027171  0
H  H28  1  0.96876526  0.09307189  0.38578652  1  0  0.107337  0  0.944505  0  0  0.127763  0  1.008317  0  0  0.128843  0  1.008093  0  0  0.087985  0.126812  0  1.008709  0
H  H29  1  0.53122998  0.90692883  0.88578207  1  0  0.107326  0  0.94458  0  0  0.127753  0  1.008385  0  0  0.12883  0  1.008162  0  0  0.087998  0.1268  0  1.008777  0
H  H30  1  0.03122898  0.90692553  0.61422375  1  0  0.107356  0  0.944476  0  0  0.127814  0  1.008269  0  0  0.128896  0  1.008041  0  0  0.087979  0.126861  0  1.008662  0
H  H31  1  0.46877612  0.09307378  0.11420716  1  0  0.107321  0  0.944488  0  0  0.127741  0  1.008311  0  0  0.12882  0  1.008088  0  0  0.088006  0.126788  0  1.008703  0
C  C32  1  0.37439659  0.26451648  0.47683878  1  0  -0.258668  0  3.71663  0  0  -0.23102  0  3.971567  0  0  -0.244415  0  3.992798  0  0  -0.048571  -0.222416  0  3.957589  0
C  C33  1  0.12559680  0.73548606  0.97683824  1  0  -0.25882  0  3.716835  0  0  -0.231145  0  3.971682  0  0  -0.244538  0  3.992914  0  0  -0.048629  -0.222539  0  3.957704  0
C  C34  1  0.62560770  0.73548356  0.52315887  1  0  -0.258657  0  3.716574  0  0  -0.231096  0  3.97145  0  0  -0.244492  0  3.992682  0  0  -0.048622  -0.222486  0  3.957473  0
C  C35  1  0.87438776  0.26451471  0.02316278  1  0  -0.258849  0  3.716614  0  0  -0.231136  0  3.971414  0  0  -0.244531  0  3.992645  0  0  -0.048615  -0.222531  0  3.957433  0
C  C36  1  0.39673170  0.27018544  0.59586929  1  0  0.359611  0  3.880401  0  0  0.336478  0  4.130707  0  0  0.35435  0  4.148102  0  0  0.06601  0.324105  0  4.11866  0
C  C37  1  0.10326013  0.72981618  0.09586697  1  0  0.359682  0  3.880431  0  0  0.336634  0  4.130575  0  0  0.354506  0  4.147972  0  0  0.06603  0.324259  0  4.118528  0
C  C38  1  0.60325935  0.72981367  0.40412920  1  0  0.359445  0  3.880654  0  0  0.336538  0  4.130637  0  0  0.354415  0  4.148027  0  0  0.066059  0.324158  0  4.118603  0
C  C39  1  0.89674267  0.27018641  0.90413573  1  0  0.359664  0  3.880262  0  0  0.336612  0  4.130396  0  0  0.354486  0  4.14779  0  0  0.066062  0.324239  0  4.118349  0
C  C40  1  0.54832377  0.19527629  0.64386122  1  0  -0.24253  0  3.800582  0  0  -0.246069  0  4.050685  0  0  -0.256223  0  4.070746  0  0  -0.130492  -0.239158  0  4.037132  0
C  C41  1  0.95167365  0.80472906  0.14386584  1  0  -0.242764  0  3.800678  0  0  -0.246337  0  4.050772  0  0  -0.256495  0  4.070828  0  0  -0.130535  -0.239425  0  4.037214  0
C  C42  1  0.45166073  0.80472363  0.35614064  1  0  -0.242542  0  3.800569  0  0  -0.246169  0  4.050624  0  0  -0.256325  0  4.070681  0  0  -0.130474  -0.239248  0  4.037068  0
C  C43  1  0.04832591  0.19527436  0.85613770  1  0  -0.242655  0  3.80047  0  0  -0.246207  0  4.050568  0  0  -0.256361  0  4.070626  0  0  -0.130556  -0.239296  0  4.037012  0
C  C44  1  0.67283778  0.12387401  0.57792990  1  0  -0.08485  0  3.745267  0  0  -0.107525  0  3.989438  0  0  -0.104601  0  4.008475  0  0  -0.091035  -0.1092  0  3.976483  0
C  C45  1  0.82716399  0.87613503  0.07792460  1  0  -0.084683  0  3.745027  0  0  -0.10739  0  3.989169  0  0  -0.104465  0  4.008207  0  0  -0.090944  -0.109061  0  3.976209  0
C  C46  1  0.32715343  0.87612765  0.42206943  1  0  -0.084727  0  3.745009  0  0  -0.1074  0  3.989195  0  0  -0.104471  0  4.008228  0  0  -0.091002  -0.109072  0  3.97624  0
C  C47  1  0.17283556  0.12386840  0.92206800  1  0  -0.084771  0  3.745177  0  0  -0.10744  0  3.989366  0  0  -0.104517  0  4.008405  0  0  -0.090957  -0.109112  0  3.976407  0
C  C48  1  0.65398738  0.12203961  0.46030201  1  0  0.123383  0  3.757727  0  0  0.150688  0  3.9955  0  0  0.147031  0  4.021802  0  0  -0.022718  0.152736  0  3.977712  0
C  C49  1  0.84601751  0.87796867  0.96030012  1  0  0.123401  0  3.757663  0  0  0.150795  0  3.995326  0  0  0.147137  0  4.021627  0  0  -0.022767  0.152845  0  3.977532  0
C  C50  1  0.34600839  0.87795612  0.53970237  1  0  0.123338  0  3.757686  0  0  0.15069  0  3.995397  0  0  0.147034  0  4.021695  0  0  -0.022723  0.152739  0  3.977615  0
C  C51  1  0.15398535  0.12203477  0.03969416  1  0  0.123383  0  3.757717  0  0  0.150643  0  3.995587  0  0  0.146985  0  4.02189  0  0  -0.022756  0.152692  0  3.977795  0
C  C52  1  0.49977316  0.19157758  0.41180690  1  0  -0.093333  0  3.7146  0  0  -0.128272  0  3.96267  0  0  -0.124953  0  3.981568  0  0  -0.090272  -0.130102  0  3.949947  0
C  C53  1  0.00022421  0.80842270  0.91179896  1  0  -0.093204  0  3.714697  0  0  -0.128237  0  3.962749  0  0  -0.124915  0  3.981642  0  0  -0.090204  -0.13007  0  3.950024  0
C  C54  1  0.50022613  0.80842158  0.58819075  1  0  -0.093256  0  3.714584  0  0  -0.128162  0  3.962635  0  0  -0.124846  0  3.981537  0  0  -0.090249  -0.129986  0  3.949901  0
C  C55  1  0.99977172  0.19157559  0.08819364  1  0  -0.093265  0  3.714488  0  0  -0.128202  0  3.962609  0  0  -0.124882  0  3.981504  0  0  -0.090252  -0.130033  0  3.949886  0
C  C56  1  0.80181698  0.05220262  0.38931147  1  0  -0.321018  0  3.714321  0  0  -0.401137  0  3.948391  0  0  -0.402866  0  3.960124  0  0  -0.240121  -0.399576  0  3.940448  0
C  C57  1  0.69818335  0.94779987  0.88930712  1  0  -0.321124  0  3.714494  0  0  -0.401265  0  3.948541  0  0  -0.402984  0  3.960272  0  0  -0.240198  -0.399705  0  3.940597  0
C  C58  1  0.19818050  0.94779397  0.61069544  1  0  -0.321158  0  3.714365  0  0  -0.401303  0  3.948421  0  0  -0.403022  0  3.960164  0  0  -0.240162  -0.39975  0  3.940472  0
C  C59  1  0.30182291  0.05220530  0.11068548  1  0  -0.320918  0  3.714393  0  0  -0.401063  0  3.948447  0  0  -0.402785  0  3.960189  0  0  -0.240084  -0.3995  0  3.940501  0
S  S60  1  0.20353394  0.35786433  0.40415717  1  0  1.29469  0  5.592296  0  0  1.195275  0  6.082589  0  0  1.244571  0  6.064335  0  0  0.494488  1.161223  0  6.093694  0
S  S61  1  0.29645327  0.64213325  0.90415055  1  0  1.294651  0  5.592173  0  0  1.195259  0  6.082461  0  0  1.24455  0  6.064213  0  0  0.494516  1.161209  0  6.093559  0
S  S62  1  0.79646551  0.64213739  0.59585646  1  0  1.294687  0  5.592028  0  0  1.195242  0  6.082335  0  0  1.244531  0  6.064087  0  0  0.494476  1.161193  0  6.093439  0
S  S63  1  0.70355591  0.35786598  0.09586392  1  0  1.294959  0  5.591782  0  0  1.195517  0  6.082057  0  0  1.24481  0  6.063804  0  0  0.494667  1.161467  0  6.093158  0
O  O64  1  0.30662418  0.47485557  0.42125404  1  0  -0.717762  0  2.162804  0  0  -0.642202  0  2.473425  0  0  -0.669682  0  2.452817  0  0  -0.347351  -0.622539  0  2.486824  0
O  O65  1  0.19337327  0.52514394  0.92124941  1  0  -0.717682  0  2.162819  0  0  -0.642101  0  2.473396  0  0  -0.669581  0  2.45279  0  0  -0.347358  -0.622438  0  2.486791  0
O  O66  1  0.69338182  0.52514534  0.57874613  1  0  -0.717662  0  2.162627  0  0  -0.642088  0  2.473231  0  0  -0.66957  0  2.452629  0  0  -0.347304  -0.622424  0  2.486625  0
O  O67  1  0.80661943  0.47485518  0.07874655  1  0  -0.717663  0  2.162847  0  0  -0.64211  0  2.47346  0  0  -0.66959  0  2.452857  0  0  -0.34731  -0.622446  0  2.486854  0
O  O68  1  0.97940642  0.34748128  0.45428427  1  0  -0.6735  0  2.14467  0  0  -0.592077  0  2.435194  0  0  -0.620537  0  2.419767  0  0  -0.341431  -0.571789  0  2.445005  0
O  O69  1  0.52058892  0.65250727  0.95428937  1  0  -0.673547  0  2.144665  0  0  -0.592137  0  2.435186  0  0  -0.6206  0  2.419764  0  0  -0.341461  -0.571847  0  2.444992  0
O  O70  1  0.02059628  0.65251961  0.54570413  1  0  -0.673595  0  2.144375  0  0  -0.592113  0  2.434859  0  0  -0.620576  0  2.419435  0  0  -0.341446  -0.571824  0  2.444668  0
O  O71  1  0.47941197  0.34749105  0.04570912  1  0  -0.67368  0  2.143957  0  0  -0.592231  0  2.434464  0  0  -0.620696  0  2.41904  0  0  -0.341544  -0.571938  0  2.44427  0
O  O72  1  0.20494102  0.32432998  0.28534366  1  0  -0.643624  0  2.093177  0  0  -0.574105  0  2.369199  0  0  -0.600431  0  2.355389  0  0  -0.323075  -0.555365  0  2.377922  0
O  O73  1  0.29507809  0.67567440  0.78534069  1  0  -0.64358  0  2.093108  0  0  -0.574071  0  2.369057  0  0  -0.600393  0  2.355246  0  0  -0.3231  -0.555343  0  2.377784  0
O  O74  1  0.79506119  0.67566323  0.71465735  1  0  -0.64361  0  2.093509  0  0  -0.574093  0  2.369588  0  0  -0.600413  0  2.355775  0  0  -0.323066  -0.555368  0  2.378317  0
O  O75  1  0.70493631  0.32432912  0.21466285  1  0  -0.643731  0  2.093487  0  0  -0.574162  0  2.369416  0  0  -0.600482  0  2.355603  0  0  -0.32315  -0.555434  0  2.378145  0
O  O76  1  0.28407159  0.33871433  0.66125708  1  0  -0.705382  0  2.301766  0  0  -0.601693  0  2.595927  0  0  -0.637588  0  2.585886  0  0  -0.37171  -0.575332  0  2.601194  0
O  O77  1  0.21592269  0.66128705  0.16125710  1  0  -0.70533  0  2.301593  0  0  -0.601667  0  2.595691  0  0  -0.637557  0  2.585638  0  0  -0.371695  -0.575316  0  2.600982  0
O  O78  1  0.71593775  0.66128746  0.33874478  1  0  -0.705311  0  2.301775  0  0  -0.601698  0  2.595833  0  0  -0.637593  0  2.58579  0  0  -0.371742  -0.575346  0  2.601133  0
O  O79  1  0.78406676  0.33871290  0.83874644  1  0  -0.705348  0  2.301482  0  0  -0.601708  0  2.595617  0  0  -0.637604  0  2.585573  0  0  -0.371745  -0.575353  0  2.600903  0
