# generated using pymatgen
data_AgH14C12S(NO)3
_symmetry_space_group_name_H-M   'P 1'
_cell_length_a   7.75983324
_cell_length_b   12.03480697
_cell_length_c   14.75055526
_cell_angle_alpha   93.84913298
_cell_angle_beta   90.07168306
_cell_angle_gamma   108.77156347
_symmetry_Int_Tables_number   1
_chemical_formula_structural   AgH14C12S(NO)3
_chemical_formula_sum   'Ag4 H56 C48 S4 N12 O12'
_cell_volume   1300.93149366
_cell_formula_units_Z   4
loop_
 _symmetry_equiv_pos_site_id
 _symmetry_equiv_pos_as_xyz
  1  'x, y, z'
loop_
 _atom_site_type_symbol
 _atom_site_label
 _atom_site_symmetry_multiplicity
 _atom_site_fract_x
 _atom_site_fract_y
 _atom_site_fract_z
 _atom_site_occupancy
 _atom_site_hle17_bader_spin_density
 _atom_site_hle17_ddec_charge
 _atom_site_hle17_ddec_spin_density
 _atom_site_hle17_ddec_sum_bond_order
 _atom_site_hle17_magmom
 _atom_site_hse06_10hf_bader_spin_density
 _atom_site_hse06_10hf_ddec_charge
 _atom_site_hse06_10hf_ddec_spin_density
 _atom_site_hse06_10hf_ddec_sum_bond_order
 _atom_site_hse06_10hf_magmom
 _atom_site_hse06_bader_spin_density
 _atom_site_hse06_ddec_charge
 _atom_site_hse06_ddec_spin_density
 _atom_site_hse06_ddec_sum_bond_order
 _atom_site_hse06_magmom
 _atom_site_pbe_bader_spin_density
 _atom_site_pbe_cm5_charge
 _atom_site_pbe_ddec_charge
 _atom_site_pbe_ddec_spin_density
 _atom_site_pbe_ddec_sum_bond_order
 _atom_site_pbe_magmom
Ag  Ag0  1  0.64878897  0.71349582  0.33426716  1  0  0.53477  0  1.43867  0  0  0.403408  0  1.867143  0  0  0.423549  0  1.827142  0  0  0.510506  0.391547  0  1.893788  0
Ag  Ag1  1  0.93443939  0.28589005  0.16570384  1  0  0.535479  0  1.433657  0  0  0.403684  0  1.861364  0  0  0.423967  0  1.821346  0  0  0.509518  0.391688  0  1.888059  0
Ag  Ag2  1  0.35120871  0.28650393  0.66573323  1  0  0.534858  0  1.438504  0  0  0.403401  0  1.866993  0  0  0.423547  0  1.826988  0  0  0.510494  0.391544  0  1.893649  0
Ag  Ag3  1  0.06556336  0.71409922  0.83430082  1  0  0.535467  0  1.43359  0  0  0.403693  0  1.86119  0  0  0.423981  0  1.821167  0  0  0.50949  0.391699  0  1.887887  0
H  H4  1  0.02852372  0.90682721  0.29154255  1  0  0.100154  0  0.953329  0  0  0.10693  0  1.017871  0  0  0.109544  0  1.016493  0  0  0.121466  0.104932  0  1.019097  0
H  H5  1  0.12121912  0.09240299  0.20923405  1  0  0.099612  0  0.952994  0  0  0.106122  0  1.017544  0  0  0.108711  0  1.016215  0  0  0.121282  0.104159  0  1.018738  0
H  H6  1  0.97146126  0.09316006  0.70844642  1  0  0.100093  0  0.953436  0  0  0.10678  0  1.018039  0  0  0.109391  0  1.016667  0  0  0.121446  0.104783  0  1.019268  0
H  H7  1  0.87876900  0.90759054  0.79076199  1  0  0.099527  0  0.953105  0  0  0.106078  0  1.017654  0  0  0.108676  0  1.016304  0  0  0.121255  0.10411  0  1.01885  0
H  H8  1  0.49067470  0.90563849  0.29062362  1  0  0.098714  0  0.977849  0  0  0.104082  0  1.045562  0  0  0.107412  0  1.042992  0  0  0.119647  0.101485  0  1.047804  0
H  H9  1  0.58439228  0.09336218  0.20897114  1  0  0.098477  0  0.977948  0  0  0.103946  0  1.04556  0  0  0.107263  0  1.042959  0  0  0.119464  0.101377  0  1.047783  0
H  H10  1  0.50931829  0.09435962  0.70938415  1  0  0.098656  0  0.977819  0  0  0.104009  0  1.045577  0  0  0.107344  0  1.042995  0  0  0.119671  0.101412  0  1.047819  0
H  H11  1  0.41559516  0.90663771  0.79103807  1  0  0.098515  0  0.977865  0  0  0.103954  0  1.045516  0  0  0.107273  0  1.042912  0  0  0.119464  0.101385  0  1.047744  0
H  H12  1  0.32664842  0.62968072  0.46836547  1  0  0.094061  0  0.945757  0  0  0.10326  0  1.01037  0  0  0.105635  0  1.00851  0  0  0.125318  0.1014  0  1.012024  0
H  H13  1  0.69678845  0.37092153  0.03131811  1  0  0.093439  0  0.946043  0  0  0.102022  0  1.011661  0  0  0.104419  0  1.009763  0  0  0.124707  0.100156  0  1.013333  0
H  H14  1  0.67334873  0.37031542  0.53162798  1  0  0.093949  0  0.945877  0  0  0.103218  0  1.010398  0  0  0.105559  0  1.008577  0  0  0.125308  0.101364  0  1.01205  0
H  H15  1  0.30323850  0.62907488  0.96869435  1  0  0.093531  0  0.945988  0  0  0.102064  0  1.011656  0  0  0.104451  0  1.009782  0  0  0.124752  0.100208  0  1.013322  0
H  H16  1  0.77891989  0.52340783  0.41690382  1  0  0.107275  0  0.946336  0  0  0.115114  0  1.009086  0  0  0.117821  0  1.007236  0  0  0.125738  0.113092  0  1.010618  0
H  H17  1  0.25519324  0.47541277  0.08301567  1  0  0.105788  0  0.946975  0  0  0.114481  0  1.008924  0  0  0.117321  0  1.006938  0  0  0.12526  0.112317  0  1.010647  0
H  H18  1  0.22107469  0.47658831  0.58309031  1  0  0.107217  0  0.946203  0  0  0.115018  0  1.009017  0  0  0.117724  0  1.007167  0  0  0.125694  0.112991  0  1.010557  0
H  H19  1  0.74483450  0.52458007  0.91699324  1  0  0.105788  0  0.947  0  0  0.114382  0  1.009084  0  0  0.117212  0  1.007112  0  0  0.125262  0.112217  0  1.010802  0
H  H20  1  0.19098009  0.98605040  0.96330231  1  0  0.101368  0  0.977223  0  0  0.120492  0  1.042509  0  0  0.121249  0  1.043739  0  0  0.083598  0.119979  0  1.041622  0
H  H21  1  0.20431015  0.01337969  0.53692619  1  0  0.1009  0  0.978238  0  0  0.12002  0  1.043278  0  0  0.120724  0  1.044582  0  0  0.083308  0.119542  0  1.042338  0
H  H22  1  0.80901488  0.01393878  0.03669624  1  0  0.10138  0  0.977235  0  0  0.120509  0  1.042509  0  0  0.121268  0  1.043734  0  0  0.083593  0.119996  0  1.041619  0
H  H23  1  0.79570094  0.98663145  0.46307134  1  0  0.100883  0  0.978254  0  0  0.119969  0  1.043358  0  0  0.120669  0  1.044655  0  0  0.083296  0.119492  0  1.042416  0
H  H24  1  0.35604736  0.91407353  0.97284115  1  0  0.104975  0  0.963641  0  0  0.124457  0  1.031637  0  0  0.125989  0  1.030656  0  0  0.086695  0.123343  0  1.032309  0
H  H25  1  0.44130889  0.08510102  0.52792299  1  0  0.105226  0  0.964229  0  0  0.124184  0  1.03275  0  0  0.125707  0  1.031794  0  0  0.086523  0.123095  0  1.033376  0
H  H26  1  0.64394933  0.08591910  0.02715349  1  0  0.104941  0  0.963673  0  0  0.124426  0  1.031651  0  0  0.125959  0  1.030669  0  0  0.086676  0.123316  0  1.032314  0
H  H27  1  0.55869359  0.91490835  0.47207378  1  0  0.105183  0  0.96417  0  0  0.12416  0  1.032669  0  0  0.125684  0  1.031713  0  0  0.086536  0.123071  0  1.033296  0
H  H28  1  0.34668445  0.02448626  0.05716322  1  0  0.12319  0  0.965374  0  0  0.146157  0  1.021901  0  0  0.147613  0  1.021591  0  0  0.089343  0.145078  0  1.022143  0
H  H29  1  0.32190280  0.97465272  0.44348096  1  0  0.123511  0  0.964909  0  0  0.146393  0  1.021172  0  0  0.147856  0  1.020861  0  0  0.089547  0.145302  0  1.021434  0
H  H30  1  0.65331696  0.97550550  0.94283138  1  0  0.123119  0  0.965398  0  0  0.146045  0  1.022003  0  0  0.147507  0  1.021676  0  0  0.089271  0.144964  0  1.022246  0
H  H31  1  0.67810230  0.02535933  0.55651865  1  0  0.12358  0  0.964617  0  0  0.146389  0  1.02098  0  0  0.147853  0  1.020667  0  0  0.089543  0.145274  0  1.02127  0
H  H32  1  0.33846822  0.84210677  0.15513067  1  0  0.093705  0  0.96471  0  0  0.107752  0  1.024074  0  0  0.109819  0  1.023829  0  0  0.100205  0.106295  0  1.024257  0
H  H33  1  0.49609859  0.15686604  0.34523959  1  0  0.093437  0  0.962658  0  0  0.107796  0  1.021731  0  0  0.109837  0  1.021539  0  0  0.100382  0.106361  0  1.02187  0
H  H34  1  0.66153021  0.15788418  0.84486865  1  0  0.093724  0  0.964665  0  0  0.107748  0  1.024047  0  0  0.109807  0  1.023815  0  0  0.100214  0.106292  0  1.024226  0
H  H35  1  0.50389739  0.84314065  0.65475435  1  0  0.09346  0  0.962645  0  0  0.107787  0  1.021783  0  0  0.109829  0  1.02159  0  0  0.100372  0.106347  0  1.021927  0
H  H36  1  0.81835738  0.55752302  0.25390459  1  0  0.317194  0  0.927977  0  0  0.300776  0  0.991018  0  0  0.307666  0  0.985567  0  0  0.291219  0.295931  0  0.994803  0
H  H37  1  0.26040656  0.44174473  0.24595999  1  0  0.317961  0  0.926937  0  0  0.301403  0  0.990227  0  0  0.308301  0  0.984776  0  0  0.291499  0.296572  0  0.993977  0
H  H38  1  0.18163425  0.44247496  0.74609505  1  0  0.317191  0  0.92798  0  0  0.30077  0  0.991031  0  0  0.307659  0  0.985581  0  0  0.29119  0.295927  0  0.994816  0
H  H39  1  0.73959334  0.55826464  0.75403678  1  0  0.318004  0  0.927007  0  0  0.301449  0  0.990267  0  0  0.308336  0  0.984829  0  0  0.29154  0.296611  0  0.994024  0
H  H40  1  0.64504095  0.55152642  0.18319498  1  0  0.317661  0  0.928869  0  0  0.301852  0  0.990602  0  0  0.308345  0  0.986104  0  0  0.29042  0.297319  0  0.993665  0
H  H41  1  0.09335935  0.44787705  0.31660155  1  0  0.317175  0  0.92767  0  0  0.301695  0  0.9892  0  0  0.308216  0  0.984653  0  0  0.290046  0.297138  0  0.992292  0
H  H42  1  0.35495289  0.44847598  0.81680621  1  0  0.317697  0  0.928962  0  0  0.301905  0  0.99066  0  0  0.308386  0  0.986178  0  0  0.290442  0.297373  0  0.993733  0
H  H43  1  0.90663887  0.55213411  0.68339734  1  0  0.317123  0  0.927753  0  0  0.301647  0  0.989247  0  0  0.308171  0  0.984697  0  0  0.29008  0.297088  0  0.992347  0
H  H44  1  0.53923978  0.70001716  0.12747297  1  0  0.117919  0  0.963943  0  0  0.136861  0  1.029858  0  0  0.138746  0  1.029225  0  0  0.089115  0.135448  0  1.030358  0
H  H45  1  0.83936259  0.29973421  0.37250340  1  0  0.118188  0  0.963669  0  0  0.13701  0  1.029819  0  0  0.138895  0  1.029173  0  0  0.089196  0.135599  0  1.030321  0
H  H46  1  0.46075825  0.29997816  0.87252451  1  0  0.117924  0  0.963894  0  0  0.136876  0  1.029803  0  0  0.138767  0  1.029158  0  0  0.089111  0.135466  0  1.030301  0
H  H47  1  0.16063558  0.70027171  0.62749728  1  0  0.118177  0  0.963723  0  0  0.137024  0  1.02983  0  0  0.138909  0  1.029182  0  0  0.089199  0.135609  0  1.030332  0
H  H48  1  0.57406655  0.60047918  0.04161938  1  0  0.099529  0  0.95464  0  0  0.119648  0  1.022422  0  0  0.120791  0  1.022325  0  0  0.087969  0.118831  0  1.022478  0
H  H49  1  0.97442993  0.39952298  0.45808594  1  0  0.099197  0  0.955014  0  0  0.119442  0  1.022667  0  0  0.120593  0  1.022587  0  0  0.087648  0.11863  0  1.022696  0
H  H50  1  0.42594054  0.39951879  0.95837958  1  0  0.099559  0  0.954652  0  0  0.119678  0  1.022423  0  0  0.120822  0  1.022328  0  0  0.08798  0.118862  0  1.022481  0
H  H51  1  0.02557086  0.60048558  0.54191554  1  0  0.099275  0  0.954875  0  0  0.119486  0  1.022556  0  0  0.120632  0  1.022483  0  0  0.087663  0.118667  0  1.022592  0
H  H52  1  0.59508752  0.74552901  0.01480140  1  0  0.11918  0  0.954629  0  0  0.141269  0  1.012805  0  0  0.142714  0  1.012616  0  0  0.092413  0.140177  0  1.012971  0
H  H53  1  0.85062223  0.25467144  0.48529701  1  0  0.118933  0  0.954838  0  0  0.141223  0  1.012884  0  0  0.142733  0  1.012612  0  0  0.092406  0.140107  0  1.013066  0
H  H54  1  0.40491484  0.25446721  0.98519816  1  0  0.11918  0  0.954635  0  0  0.141265  0  1.012817  0  0  0.14271  0  1.012631  0  0  0.092414  0.140176  0  1.012983  0
H  H55  1  0.14938541  0.74533536  0.51470439  1  0  0.118925  0  0.954815  0  0  0.141194  0  1.012897  0  0  0.142706  0  1.012619  0  0  0.092392  0.140074  0  1.013085  0
H  H56  1  0.89289844  0.85259887  0.98673620  1  0  0.097859  0  0.961575  0  0  0.111169  0  1.024272  0  0  0.114289  0  1.021582  0  0  0.099112  0.108899  0  1.026265  0
H  H57  1  0.04066189  0.14711425  0.51328860  1  0  0.097633  0  0.961797  0  0  0.111031  0  1.024499  0  0  0.114145  0  1.021816  0  0  0.099345  0.10878  0  1.026485  0
H  H58  1  0.10710343  0.14739382  0.01326184  1  0  0.097911  0  0.961617  0  0  0.111233  0  1.024293  0  0  0.114356  0  1.021599  0  0  0.099099  0.108963  0  1.026282  0
H  H59  1  0.95934624  0.85289869  0.48671173  1  0  0.097588  0  0.961836  0  0  0.110967  0  1.024558  0  0  0.114068  0  1.021887  0  0  0.099299  0.108712  0  1.026546  0
C  C60  1  0.92826436  0.94762148  0.27254693  1  0  0.082441  0  3.644245  0  0  0.054142  0  3.892703  0  0  0.056742  0  3.910814  0  0  0.057758  0.051765  0  3.881767  0
C  C61  1  0.98014619  0.05157720  0.22792071  1  0  0.082135  0  3.643683  0  0  0.054288  0  3.891841  0  0  0.056877  0  3.909958  0  0  0.058551  0.051713  0  3.881233  0
C  C62  1  0.07172075  0.05237119  0.72744975  1  0  0.082437  0  3.644187  0  0  0.054255  0  3.892649  0  0  0.056855  0  3.910765  0  0  0.057768  0.05188  0  3.881704  0
C  C63  1  0.01983888  0.94841282  0.77207516  1  0  0.082355  0  3.643529  0  0  0.054352  0  3.891692  0  0  0.056941  0  3.909813  0  0  0.058568  0.051789  0  3.881067  0
C  C64  1  0.63164480  0.94756467  0.27172907  1  0  0.065443  0  3.656751  0  0  0.039642  0  3.90077  0  0  0.041859  0  3.917509  0  0  0.048652  0.037582  0  3.890716  0
C  C65  1  0.68352985  0.05146778  0.22806114  1  0  0.066747  0  3.655977  0  0  0.040777  0  3.899804  0  0  0.042972  0  3.916601  0  0  0.049103  0.038739  0  3.889705  0
C  C66  1  0.36834471  0.05243163  0.72827591  1  0  0.06565  0  3.65664  0  0  0.039887  0  3.900607  0  0  0.042102  0  3.917353  0  0  0.04871  0.037829  0  3.890548  0
C  C67  1  0.31645536  0.94852765  0.77194380  1  0  0.066682  0  3.655826  0  0  0.04062  0  3.899743  0  0  0.042812  0  3.916544  0  0  0.049027  0.038589  0  3.88964  0
C  C68  1  0.40438016  0.57175767  0.48270499  1  0  0.088212  0  3.649932  0  0  0.057264  0  3.901026  0  0  0.059666  0  3.919712  0  0  0.058945  0.055111  0  3.889516  0
C  C69  1  0.83256363  0.42856242  0.01713184  1  0  0.08882  0  3.650489  0  0  0.05824  0  3.901882  0  0  0.060733  0  3.920498  0  0  0.058729  0.055989  0  3.890447  0
C  C70  1  0.59561655  0.42823759  0.51728909  1  0  0.088297  0  3.649966  0  0  0.057298  0  3.901029  0  0  0.059725  0  3.919726  0  0  0.05889  0.055114  0  3.88957  0
C  C71  1  0.16746375  0.57143486  0.98287998  1  0  0.088592  0  3.650139  0  0  0.057946  0  3.901688  0  0  0.060439  0  3.920299  0  0  0.058492  0.055648  0  3.890335  0
C  C72  1  0.65412115  0.51269882  0.45424123  1  0  0.079748  0  3.645885  0  0  0.050353  0  3.89624  0  0  0.052655  0  3.914347  0  0  0.058227  0.048172  0  3.885258  0
C  C73  1  0.14123317  0.48663039  0.04571293  1  0  0.082014  0  3.644381  0  0  0.052121  0  3.894557  0  0  0.054235  0  3.912908  0  0  0.0587  0.050147  0  3.883306  0
C  C74  1  0.34587946  0.48729908  0.54575298  1  0  0.079716  0  3.645954  0  0  0.050388  0  3.896182  0  0  0.052684  0  3.914307  0  0  0.058193  0.048199  0  3.885221  0
C  C75  1  0.85879635  0.51336601  0.95429885  1  0  0.081954  0  3.644214  0  0  0.052048  0  3.894397  0  0  0.054161  0  3.912755  0  0  0.058519  0.050067  0  3.883158  0
C  C76  1  0.26352785  0.95074601  0.01162174  1  0  -0.34931  0  3.734105  0  0  -0.432314  0  3.969208  0  0  -0.434338  0  3.978846  0  0  -0.251753  -0.430597  0  3.962409  0
C  C77  1  0.31238468  0.04850945  0.48882930  1  0  -0.348928  0  3.732859  0  0  -0.430827  0  3.968155  0  0  -0.432812  0  3.977751  0  0  -0.250827  -0.42915  0  3.961391  0
C  C78  1  0.73647012  0.04924402  0.98837550  1  0  -0.349196  0  3.73403  0  0  -0.432173  0  3.969131  0  0  -0.434196  0  3.978764  0  0  -0.251649  -0.430456  0  3.962323  0
C  C79  1  0.68762126  0.95150169  0.51116824  1  0  -0.348772  0  3.732492  0  0  -0.430669  0  3.967839  0  0  -0.432647  0  3.97743  0  0  -0.250793  -0.428976  0  3.961096  0
C  C80  1  0.07367403  0.72793815  0.18803485  1  0  -0.238445  0  3.746989  0  0  -0.21358  0  4.004068  0  0  -0.223361  0  4.02567  0  0  -0.040318  -0.207035  0  3.989363  0
C  C81  1  0.34555750  0.27125146  0.31210346  1  0  -0.238395  0  3.747304  0  0  -0.214923  0  4.006105  0  0  -0.224609  0  4.027534  0  0  -0.040188  -0.208436  0  3.991509  0
C  C82  1  0.92632539  0.27206250  0.81196695  1  0  -0.238569  0  3.747194  0  0  -0.213693  0  4.004247  0  0  -0.223477  0  4.025845  0  0  -0.040314  -0.207145  0  3.989542  0
C  C83  1  0.65444153  0.72875617  0.68789458  1  0  -0.238376  0  3.747109  0  0  -0.214745  0  4.00577  0  0  -0.224437  0  4.027208  0  0  -0.040055  -0.208261  0  3.99117  0
C  C84  1  0.19374727  0.81209307  0.13688626  1  0  -0.127197  0  3.76887  0  0  -0.161351  0  4.014858  0  0  -0.161363  0  4.036927  0  0  -0.101945  -0.160934  0  3.999478  0
C  C85  1  0.38147760  0.18701686  0.36334766  1  0  -0.126099  0  3.765809  0  0  -0.159522  0  4.012334  0  0  -0.159574  0  4.034299  0  0  -0.101122  -0.159082  0  3.997035  0
C  C86  1  0.80625379  0.18790314  0.86311262  1  0  -0.127141  0  3.769014  0  0  -0.161253  0  4.014993  0  0  -0.161266  0  4.037068  0  0  -0.101905  -0.160839  0  3.999621  0
C  C87  1  0.61852271  0.81299076  0.63664971  1  0  -0.126017  0  3.765991  0  0  -0.159522  0  4.01244  0  0  -0.15957  0  4.034396  0  0  -0.101169  -0.159083  0  3.997143  0
C  C88  1  0.88561915  0.68597378  0.16564974  1  0  0.227857  0  3.801889  0  0  0.204769  0  4.055602  0  0  0.214361  0  4.078116  0  0  0.081955  0.19831  0  4.040019  0
C  C89  1  0.19956713  0.31339082  0.33430480  1  0  0.227685  0  3.801467  0  0  0.20537  0  4.054871  0  0  0.214911  0  4.077405  0  0  0.082  0.198952  0  4.039251  0
C  C90  1  0.11438153  0.31402425  0.83435329  1  0  0.227935  0  3.801887  0  0  0.204839  0  4.055648  0  0  0.214431  0  4.078166  0  0  0.08199  0.198383  0  4.040063  0
C  C91  1  0.80043363  0.68661770  0.66569397  1  0  0.2276  0  3.801687  0  0  0.205234  0  4.055096  0  0  0.214774  0  4.077638  0  0  0.082023  0.198822  0  4.039454  0
C  C92  1  0.62214094  0.69351274  0.06802766  1  0  -0.333145  0  3.714504  0  0  -0.411793  0  3.945958  0  0  -0.41403  0  3.956342  0  0  -0.246763  -0.40988  0  3.938672  0
C  C93  1  0.92918419  0.30641143  0.43190958  1  0  -0.332476  0  3.71172  0  0  -0.411299  0  3.94337  0  0  -0.413591  0  3.953718  0  0  -0.246754  -0.409363  0  3.936102  0
C  C94  1  0.37786057  0.30648437  0.93197262  1  0  -0.333163  0  3.714431  0  0  -0.411824  0  3.945923  0  0  -0.414065  0  3.956304  0  0  -0.246768  -0.409916  0  3.938645  0
C  C95  1  0.07081744  0.69359624  0.56809118  1  0  -0.33257  0  3.711761  0  0  -0.411327  0  3.943372  0  0  -0.413615  0  3.953722  0  0  -0.246778  -0.40939  0  3.936112  0
C  C96  1  0.13260929  0.85892097  0.06427340  1  0  0.120559  0  3.820562  0  0  0.148469  0  4.065478  0  0  0.147049  0  4.090527  0  0  -0.028188  0.149382  0  4.048178  0
C  C97  1  0.27364661  0.14039781  0.43593306  1  0  0.120733  0  3.820189  0  0  0.147439  0  4.066673  0  0  0.146065  0  4.091664  0  0  -0.029131  0.148324  0  4.049433  0
C  C98  1  0.86738613  0.14107171  0.93572395  1  0  0.120624  0  3.820261  0  0  0.148508  0  4.065221  0  0  0.147089  0  4.09027  0  0  -0.02818  0.149415  0  4.04793  0
C  C99  1  0.72635500  0.85960983  0.56406567  1  0  0.120479  0  3.820367  0  0  0.147335  0  4.066655  0  0  0.145961  0  4.091638  0  0  -0.029131  0.148217  0  4.049409  0
C  C100  1  0.82172498  0.73337220  0.09204532  1  0  0.045364  0  3.752516  0  0  0.072276  0  3.993929  0  0  0.068926  0  4.019441  0  0  -0.025866  0.074551  0  3.976395  0
C  C101  1  0.08855721  0.26624613  0.40792731  1  0  0.046022  0  3.751238  0  0  0.072393  0  3.993197  0  0  0.069027  0  4.018765  0  0  -0.02529  0.074689  0  3.975629  0
C  C102  1  0.17827488  0.26662935  0.90795719  1  0  0.045444  0  3.752552  0  0  0.072317  0  3.994037  0  0  0.068968  0  4.019548  0  0  -0.025867  0.074589  0  3.976506  0
C  C103  1  0.91144744  0.73376242  0.59207349  1  0  0.046131  0  3.75111  0  0  0.072446  0  3.993187  0  0  0.069077  0  4.018752  0  0  -0.025297  0.074743  0  3.975601  0
C  C104  1  0.94541075  0.81776726  0.04326092  1  0  -0.188651  0  3.761668  0  0  -0.22243  0  4.014377  0  0  -0.222369  0  4.032531  0  0  -0.102945  -0.222187  0  4.001832  0
C  C105  1  0.12787481  0.18183505  0.45680103  1  0  -0.189902  0  3.763551  0  0  -0.223333  0  4.016936  0  0  -0.223293  0  4.035108  0  0  -0.103776  -0.223102  0  4.0044  0
C  C106  1  0.05459287  0.18222633  0.95673920  1  0  -0.188859  0  3.761441  0  0  -0.222632  0  4.014212  0  0  -0.222571  0  4.032363  0  0  -0.102973  -0.222387  0  4.001664  0
C  C107  1  0.87213114  0.81817611  0.54319787  1  0  -0.189856  0  3.763427  0  0  -0.223294  0  4.016829  0  0  -0.223241  0  4.035003  0  0  -0.103773  -0.223064  0  4.004288  0
S  S108  1  0.17435142  0.69177511  0.28659191  1  0  1.293043  0  5.651864  0  0  1.195712  0  6.172905  0  0  1.24436  0  6.14793  0  0  0.497745  1.162226  0  6.18897  0
S  S109  1  0.48232745  0.30752800  0.21370475  1  0  1.292315  0  5.650434  0  0  1.194993  0  6.171651  0  0  1.243569  0  6.146723  0  0  0.49687  1.161604  0  6.187721  0
S  S110  1  0.82564282  0.30822293  0.71341112  1  0  1.29326  0  5.651827  0  0  1.195973  0  6.172801  0  0  1.244626  0  6.147823  0  0  0.497726  1.162493  0  6.188874  0
S  S111  1  0.51767414  0.69247960  0.78629127  1  0  1.292638  0  5.650203  0  0  1.195291  0  6.171365  0  0  1.243825  0  6.146438  0  0  0.496987  1.161915  0  6.187434  0
N  N112  1  0.55849032  0.58471095  0.43693131  1  0  -0.241316  0  3.310095  0  0  -0.16558  0  3.592476  0  0  -0.177409  0  3.606687  0  0  -0.323279  -0.157939  0  3.583411  0
N  N113  1  0.97347709  0.41492133  0.06288103  1  0  -0.243233  0  3.306627  0  0  -0.167592  0  3.589463  0  0  -0.179488  0  3.60373  0  0  -0.322474  -0.159927  0  3.580382  0
N  N114  1  0.44150772  0.41528697  0.56306358  1  0  -0.241353  0  3.310148  0  0  -0.16551  0  3.59238  0  0  -0.177334  0  3.606575  0  0  -0.323216  -0.157871  0  3.58333  0
N  N115  1  0.02654900  0.58507595  0.93713079  1  0  -0.242954  0  3.305991  0  0  -0.167214  0  3.588745  0  0  -0.179109  0  3.603004  0  0  -0.322225  -0.159547  0  3.579675  0
N  N116  1  0.75377666  0.89478678  0.29401762  1  0  -0.248957  0  3.307936  0  0  -0.172634  0  3.588262  0  0  -0.18341  0  3.601403  0  0  -0.326773  -0.165809  0  3.579926  0
N  N117  1  0.85841092  0.10435328  0.20610815  1  0  -0.249431  0  3.303578  0  0  -0.172787  0  3.583228  0  0  -0.183559  0  3.596351  0  0  -0.326951  -0.165956  0  3.574914  0
N  N118  1  0.24620972  0.10520327  0.70598029  1  0  -0.249069  0  3.307745  0  0  -0.172699  0  3.587979  0  0  -0.183479  0  3.601127  0  0  -0.326781  -0.165885  0  3.579655  0
N  N119  1  0.14157558  0.89564213  0.79389611  1  0  -0.249614  0  3.303289  0  0  -0.172781  0  3.58284  0  0  -0.183549  0  3.595957  0  0  -0.32693  -0.165958  0  3.574529  0
N  N120  1  0.76011128  0.60558193  0.21695452  1  0  -0.664531  0  3.226764  0  0  -0.611723  0  3.480557  0  0  -0.632883  0  3.478862  0  0  -0.62048  -0.596681  0  3.480982  0
N  N121  1  0.15422271  0.39373270  0.28286780  1  0  -0.665404  0  3.224658  0  0  -0.612328  0  3.476975  0  0  -0.633523  0  3.475342  0  0  -0.620953  -0.597235  0  3.477331  0
N  N122  1  0.23988729  0.39441962  0.78304867  1  0  -0.664602  0  3.226751  0  0  -0.61178  0  3.480535  0  0  -0.63295  0  3.478863  0  0  -0.620515  -0.59674  0  3.48097  0
N  N123  1  0.84577848  0.60627668  0.71712965  1  0  -0.665309  0  3.224893  0  0  -0.612345  0  3.477525  0  0  -0.633554  0  3.475916  0  0  -0.621089  -0.597244  0  3.477881  0
O  O124  1  0.03640703  0.59363979  0.32743330  1  0  -0.674739  0  1.974047  0  0  -0.615461  0  2.219379  0  0  -0.635607  0  2.204281  0  0  -0.341913  -0.601456  0  2.229495  0
O  O125  1  0.44249699  0.40585577  0.17298209  1  0  -0.674295  0  1.972822  0  0  -0.614822  0  2.217954  0  0  -0.634911  0  2.20279  0  0  -0.341931  -0.600905  0  2.228025  0
O  O126  1  0.96358508  0.40635913  0.67257045  1  0  -0.674883  0  1.974003  0  0  -0.615651  0  2.219423  0  0  -0.635772  0  2.204256  0  0  -0.342022  -0.601629  0  2.2295  0
O  O127  1  0.55750024  0.59414829  0.82701172  1  0  -0.674484  0  1.972737  0  0  -0.615047  0  2.217932  0  0  -0.635016  0  2.202669  0  0  -0.342026  -0.601136  0  2.228005  0
O  O128  1  0.22872204  0.80028833  0.34705679  1  0  -0.679538  0  1.929056  0  0  -0.630846  0  2.180367  0  0  -0.652658  0  2.165994  0  0  -0.350061  -0.615118  0  2.189475  0
O  O129  1  0.42822476  0.19918266  0.15306125  1  0  -0.679088  0  1.93001  0  0  -0.630381  0  2.181301  0  0  -0.652174  0  2.166862  0  0  -0.349247  -0.614687  0  2.190458  0
O  O130  1  0.77127435  0.19971144  0.65294429  1  0  -0.679509  0  1.928952  0  0  -0.630866  0  2.18027  0  0  -0.652679  0  2.165889  0  0  -0.350036  -0.615143  0  2.189377  0
O  O131  1  0.57176904  0.80081709  0.84693847  1  0  -0.679159  0  1.930001  0  0  -0.630451  0  2.1813  0  0  -0.652251  0  2.166878  0  0  -0.349313  -0.614763  0  2.19046  0
O  O132  1  0.33161915  0.65859622  0.25320451  1  0  -0.684012  0  1.990445  0  0  -0.628163  0  2.268233  0  0  -0.649485  0  2.251495  0  0  -0.355391  -0.613113  0  2.279129  0
O  O133  1  0.67271888  0.34051200  0.24729477  1  0  -0.684553  0  1.989958  0  0  -0.62819  0  2.267486  0  0  -0.649388  0  2.250468  0  0  -0.355669  -0.613147  0  2.278406  0
O  O134  1  0.66837768  0.34140443  0.74679729  1  0  -0.684111  0  1.990556  0  0  -0.628189  0  2.26823  0  0  -0.649518  0  2.251492  0  0  -0.355335  -0.613144  0  2.279129  0
O  O135  1  0.32727922  0.65949120  0.75270104  1  0  -0.684656  0  1.989905  0  0  -0.628242  0  2.267371  0  0  -0.649468  0  2.25041  0  0  -0.355644  -0.613205  0  2.278292  0
