# generated using pymatgen
data_Al6H55C103Cl3O35
_symmetry_space_group_name_H-M   'P 1'
_cell_length_a   13.54574675
_cell_length_b   13.44092340
_cell_length_c   27.35904559
_cell_angle_alpha   90.74320193
_cell_angle_beta   89.93998244
_cell_angle_gamma   119.62190677
_symmetry_Int_Tables_number   1
_chemical_formula_structural   Al6H55C103Cl3O35
_chemical_formula_sum   'Al6 H55 C103 Cl3 O35'
_cell_volume   4329.73062599
_cell_formula_units_Z   1
loop_
 _symmetry_equiv_pos_site_id
 _symmetry_equiv_pos_as_xyz
  1  'x, y, z'
loop_
 _atom_site_type_symbol
 _atom_site_label
 _atom_site_symmetry_multiplicity
 _atom_site_fract_x
 _atom_site_fract_y
 _atom_site_fract_z
 _atom_site_occupancy
 _atom_site_pbe_bader_charge
 _atom_site_pbe_bader_spin_density
 _atom_site_pbe_cm5_charge
 _atom_site_pbe_ddec_charge
 _atom_site_pbe_ddec_spin_density
 _atom_site_pbe_ddec_sum_bond_order
 _atom_site_pbe_magmom
Al  Al0  1  0.42002615  0.82424228  0.49499598  1  2.49785  0  0.396715  1.687619  0  2.551076  0
Al  Al1  1  0.63784294  0.07521002  0.49642705  1  2.484551  0  0.498863  1.655387  0  2.524106  0
Al  Al2  1  0.40971339  0.05759589  0.50001456  1  2.48007  0  0.504393  1.656343  0  2.515225  0
Al  Al3  1  0.91724973  0.82866514  0.98252267  1  2.49532  0  0.397718  1.688704  0  2.552924  0
Al  Al4  1  0.91392204  0.58879972  0.98320070  1  2.48305  0  0.502151  1.659899  0  2.516778  0
Al  Al5  1  0.68996826  0.58280002  0.98067570  1  2.483344  0  0.503813  1.66086  0  2.508898  0
H  H6  1  0.79866457  0.27923629  0.21571130  1  0.110317  0  0.106154  0.11443  0  0.990721  0
H  H7  1  0.85141541  0.44044396  0.29386508  1  0.102115  0  0.111862  0.109378  0  0.972585  0
H  H8  1  0.77685542  0.56439607  0.23533112  1  0.0836  0  0.107667  0.111735  0  0.991253  0
H  H9  1  0.00338881  0.88411539  0.22857227  1  0.061622  0  0.103543  0.105285  0  1.005815  0
H  H10  1  0.92900316  0.70149133  0.29623035  1  0.06829  0  0.102513  0.093501  0  0.993732  0
H  H11  1  0.21688266  0.69297668  0.27736475  1  0.073159  0  0.110465  0.115976  0  0.97625  0
H  H12  1  0.00235311  0.58624405  0.22968678  1  0.031655  0  0.102362  0.096892  0  0.991864  0
H  H13  1  0.48289014  0.66993626  0.21649527  1  0.061748  0  0.103611  0.095746  0  0.989107  0
H  H14  1  0.63726354  0.67396250  0.28774395  1  0.099158  0  0.090789  0.085151  0  1.04594  0
H  H15  1  0.52297542  0.88587957  0.25231368  1  0.08961  0  0.100741  0.112817  0  1.012858  0
H  H16  1  0.85780585  0.99942641  0.25516905  1  0.067702  0  0.105616  0.106984  0  0.983473  0
H  H17  1  0.81605161  0.78184938  0.21918990  1  0.032036  0  0.100087  0.089612  0  1.014671  0
H  H18  1  0.88869998  0.48591773  0.84725803  1  0.102333  0  0.107927  0.113145  0  1.01964  0
H  H19  1  0.96661891  0.50425227  0.76312598  1  0.089981  0  0.096569  0.098515  0  1.056166  0
H  H20  1  0.93724676  0.46176580  0.67528357  1  0.07458  0  0.109427  0.115712  0  1.010196  0
H  H21  1  0.52904105  0.34226346  0.86767347  1  0.107505  0  0.114857  0.12416  0  0.984325  0
H  H22  1  0.39532746  0.26009992  0.79586038  1  0.116254  0  0.107466  0.116663  0  0.998638  0
H  H23  1  0.36665898  0.21787325  0.70753283  1  0.078661  0  0.099425  0.097616  0  1.03166  0
H  H24  1  0.44298049  0.20537465  0.62615647  1  0.083844  0  0.108799  0.115033  0  1.011637  0
H  H25  1  0.11739966  0.94267172  0.87052334  1  0.130935  0  0.121017  0.133749  0  0.996143  0
H  H26  1  0.24947764  0.02271244  0.62949538  1  0.059234  0  0.10631  0.111616  0  1.007563  0
H  H27  1  0.19765753  0.08611336  0.70734127  1  0.078443  0  0.107628  0.124765  0  0.995848  0
H  H28  1  0.10810558  0.61907269  0.86275258  1  0.086959  0  0.108188  0.114677  0  0.999974  0
H  H29  1  0.15807380  0.55395266  0.78461966  1  0.060175  0  0.10962  0.127354  0  0.985664  0
H  H30  1  0.24715465  0.70262818  0.62207561  1  0.118787  0  0.115787  0.125229  0  1.004858  0
H  H31  1  0.61208962  0.58780992  0.83520554  1  0.102838  0  0.104001  0.109587  0  1.01909  0
H  H32  1  0.55520399  0.70825775  0.60015540  1  0.086879  0  0.109425  0.115894  0  0.9991  0
H  H33  1  0.54799653  0.52110242  0.74948328  1  0.068974  0  0.097187  0.098403  0  1.033096  0
H  H34  1  0.53077020  0.56514627  0.66353233  1  0.066479  0  0.104458  0.105828  0  0.990537  0
H  H35  1  0.80505112  0.94778255  0.86882680  1  0.10532  0  0.118714  0.128861  0  0.997583  0
H  H36  1  0.81075710  0.13530148  0.71921685  1  0.046142  0  0.100315  0.11626  0  1.036694  0
H  H37  1  0.73961122  0.06778375  0.63505113  1  0.090932  0  0.102769  0.106826  0  1.027628  0
H  H38  1  0.28002499  0.78798026  0.14606727  1  0.057428  0  0.101408  0.10598  0  1.000256  0
H  H39  1  0.34252323  0.75540698  0.19705471  1  0.02315  0  0.093448  0.085949  0  1.00921  0
H  H40  1  0.42697312  0.88071773  0.16140843  1  0.106674  0  0.108155  0.119713  0  0.981586  0
H  H41  1  0.97103247  0.37084902  0.58410190  1  0.097641  0  0.115024  0.126113  0  0.959008  0
H  H42  1  0.84666974  0.23094924  0.58080472  1  0.095258  0  0.100098  0.104696  0  1.018917  0
H  H43  1  0.90375411  0.29808541  0.63918906  1  0.054987  0  0.093423  0.085887  0  1.022831  0
H  H44  1  0.06676429  0.13917382  0.83359494  1  0.064532  0  0.109875  0.12071  0  0.970127  0
H  H45  1  0.00176383  0.98697609  0.82816216  1  0.088426  0  0.10016  0.102473  0  1.010436  0
H  H46  1  0.01630751  0.06974461  0.77491156  1  0.046841  0  0.088711  0.081872  0  1.020763  0
H  H47  1  0.36091570  0.65028673  0.66759420  1  0.069957  0  0.095597  0.094573  0  1.018484  0
H  H48  1  0.28950999  0.49742444  0.66060755  1  0.048075  0  0.105672  0.111493  0  0.973062  0
H  H49  1  0.33628675  0.56259350  0.72010397  1  0.060717  0  0.091314  0.088663  0  1.00941  0
H  H50  1  0.36433113  0.23614572  0.23500828  1  0.048289  0  0.087174  0.083055  0  1.03834  0
H  H51  1  0.37074100  0.11360245  0.21209187  1  0.104141  0  0.092219  0.098001  0  1.068345  0
H  H52  1  0.32185113  0.18724113  0.17323168  1  0.050985  0  0.111931  0.125581  0  0.95732  0
H  H53  1  0.83314526  0.24346295  0.78928304  1  0.038963  0  0.096183  0.098206  0  1.021152  0
H  H54  1  0.95912244  0.23940713  0.77191002  1  0.037836  0  0.096989  0.09049  0  1.000722  0
H  H55  1  0.93959037  0.26924296  0.83437591  1  0.07387  0  0.112818  0.121494  0  0.963519  0
H  H56  1  0.16344417  0.02091195  0.34307095  1  0.059485  0  0.101438  0.10537  0  1.003528  0
H  H57  1  0.10436074  0.05059551  0.28985796  1  0.030862  0  0.092999  0.084449  0  1.002595  0
H  H58  1  0.24346127  0.15345819  0.31175862  1  0.084732  0  0.109787  0.116022  0  0.978814  0
H  H59  1  0.39291177  0.64115055  0.50989360  1  0.564939  0  0.286404  0.375006  0  0.93635  0
H  H60  1  0.99385017  0.01739988  0.01184603  1  0.580479  0  0.292686  0.384323  0  0.921278  0
C  C61  1  0.61679312  0.91957944  0.42466998  1  1.662333  0  0.275087  0.707142  0  4.165098  0
C  C62  1  0.57618797  0.19715352  0.42894165  1  1.642846  0  0.283669  0.723658  0  4.139662  0
C  C63  1  0.26737956  0.88291554  0.43703811  1  1.681933  0  0.282148  0.711122  0  4.165642  0
C  C64  1  0.62266301  0.91628245  0.56345554  1  1.558074  0  0.271938  0.647846  0  4.074441  0
C  C65  1  0.59116327  0.21460763  0.56199906  1  1.526489  0  0.280678  0.669765  0  4.05211  0
C  C66  1  0.30231707  0.89178902  0.57169224  1  1.548668  0  0.270256  0.640745  0  4.083624  0
C  C67  1  0.77450015  0.40315382  0.27133683  1  -0.047656  0  -0.066581  -0.063219  0  3.633736  0
C  C68  1  0.74550562  0.31387426  0.22885604  1  -0.026579  0  -0.070936  -0.113152  0  3.624679  0
C  C69  1  0.73190706  0.42425414  0.10193343  1  0.160477  0  -0.034577  -0.196162  0  3.941378  0
C  C70  1  0.60074036  0.25567371  0.38307485  1  0.230405  0  -0.033478  -0.189594  0  3.938349  0
C  C71  1  0.73275246  0.47169758  0.23985141  1  -0.022234  0  -0.066943  -0.109067  0  3.616996  0
C  C72  1  0.70391393  0.38237298  0.19612320  1  0.072419  0  0.008205  0.079251  0  3.801348  0
C  C73  1  0.60976491  0.39818828  0.26037371  1  0.138085  0  0.019368  0.057127  0  3.704551  0
C  C74  1  0.65143543  0.32972954  0.29309804  1  0.105889  0  0.002025  0.054983  0  3.817592  0
C  C75  1  0.57951495  0.30880049  0.21649524  1  0.682269  0  0.095649  0.144142  0  3.763797  0
C  C76  1  0.62243501  0.24023588  0.24906752  1  0.143789  0  0.026476  0.067578  0  3.693387  0
C  C77  1  0.72376478  0.40695043  0.14576782  1  -0.373949  0  -0.013073  0.001107  0  4.037815  0
C  C78  1  0.62350316  0.29431866  0.34196017  1  -0.447076  0  -0.020521  -0.011716  0  4.07594  0
C  C79  1  0.00943201  0.74024664  0.27646208  1  -0.028592  0  -0.072615  -0.075401  0  3.66041  0
C  C80  1  0.05062789  0.84193363  0.24012017  1  -0.052998  0  -0.08062  -0.159487  0  3.652516  0
C  C81  1  0.05848916  0.76374379  0.10803917  1  0.15463  0  -0.043221  -0.202593  0  3.974681  0
C  C82  1  0.19717982  0.84585851  0.39398424  1  0.265085  0  -0.040673  -0.204803  0  3.964788  0
C  C83  1  0.05052675  0.67649686  0.24058633  1  0.017785  0  -0.072786  -0.074213  0  3.661905  0
C  C84  1  0.09030822  0.77742771  0.20314762  1  0.087406  0  -0.002228  0.058494  0  3.819403  0
C  C85  1  0.16981902  0.73531308  0.26575538  1  -0.044714  0  -0.07544  -0.148163  0  3.630892  0
C  C86  1  0.12938766  0.79932237  0.30273303  1  0.083351  0  -0.000194  0.060223  0  3.816019  0
C  C87  1  0.21345180  0.83913892  0.22985351  1  0.614615  0  0.097675  0.172522  0  3.707152  0
C  C88  1  0.17126640  0.90272481  0.26489446  1  0.62596  0  0.094774  0.171974  0  3.720967  0
C  C89  1  0.07232895  0.76846299  0.15221822  1  -0.442056  0  -0.029168  -0.031851  0  4.10768  0
C  C90  1  0.15815742  0.81806551  0.35277643  1  -0.563704  0  -0.021496  -0.019769  0  4.088033  0
C  C91  1  0.65158914  0.74463096  0.26418543  1  -0.035744  0  -0.072934  -0.07381  0  3.620162  0
C  C92  1  0.56589822  0.74307042  0.22560197  1  -0.006829  0  -0.0713  -0.073937  0  3.63884  0
C  C93  1  0.67413232  0.76312750  0.09388780  1  0.143368  0  -0.037927  -0.192939  0  3.9569  0
C  C94  1  0.65358747  0.90532348  0.37707290  1  0.166375  0  -0.042676  -0.197548  0  3.970832  0
C  C95  1  0.75155157  0.80579026  0.22746212  1  0.009338  0  -0.067905  -0.065058  0  3.624129  0
C  C96  1  0.66536138  0.80301178  0.18755069  1  0.127933  0  0.006105  0.085466  0  3.803919  0
C  C97  1  0.77477086  0.92557397  0.24673265  1  -0.024901  0  -0.072675  -0.124924  0  3.627045  0
C  C98  1  0.67425681  0.86506990  0.28441140  1  0.117006  0  0.010423  0.135291  0  3.789637  0
C  C99  1  0.68881841  0.92392246  0.20828493  1  0.15966  0  0.028758  0.130238  0  3.704421  0
C  C100  1  0.58778540  0.86230697  0.24462142  1  -0.016184  0  -0.071417  -0.124719  0  3.616146  0
C  C101  1  0.66647464  0.77768595  0.13747566  1  -0.436377  0  -0.025715  -0.026098  0  4.08079  0
C  C102  1  0.66925565  0.89103850  0.33430217  1  -0.433708  0  -0.026057  -0.035086  0  4.066038  0
C  C103  1  0.73226846  0.33418847  0.62925189  1  0.535168  0  0.100634  0.203257  0  3.981554  0
C  C104  1  0.75199725  0.36828612  0.67916505  1  0.033231  0  -0.012999  -0.032424  0  4.016127  0
C  C105  1  0.78729877  0.42148632  0.78118351  1  0.016539  0  -0.007109  0.072623  0  4.049332  0
C  C106  1  0.88072143  0.45611720  0.74835256  1  -0.051381  0  -0.089853  -0.12718  0  3.991896  0
C  C107  1  0.86437520  0.43195284  0.69942305  1  -0.075418  0  -0.087183  -0.115622  0  3.998376  0
C  C108  1  0.80328804  0.44283019  0.83166152  1  -0.059896  0  -0.076553  -0.139558  0  3.918615  0
C  C109  1  0.71045415  0.41350747  0.86242765  1  0.002867  0  -0.015983  -0.045147  0  4.017008  0
C  C110  1  0.52855952  0.25193015  0.64145446  1  0.016359  0  -0.076517  -0.122842  0  3.941445  0
C  C111  1  0.54467328  0.28339330  0.69099593  1  -0.047366  0  -0.011781  0.061004  0  4.059306  0
C  C112  1  0.65734629  0.33889540  0.71059416  1  -0.001409  0  0.006358  0.019665  0  3.928786  0
C  C113  1  0.45187984  0.25862808  0.72311561  1  -0.10573  0  -0.087017  -0.117747  0  4.001072  0
C  C114  1  0.46792249  0.28249182  0.77207017  1  -0.014694  0  -0.087663  -0.133894  0  3.987394  0
C  C115  1  0.57990283  0.33576820  0.79310903  1  -0.000447  0  -0.004546  0.074198  0  4.035118  0
C  C116  1  0.67467540  0.36531925  0.76152016  1  0.015293  0  0.007439  0.003442  0  3.899626  0
C  C117  1  0.59981345  0.36176260  0.84324774  1  -0.064985  0  -0.074018  -0.138648  0  3.915189  0
C  C118  1  0.61974935  0.27249878  0.61083464  1  0.01777  0  -0.02111  -0.148615  0  3.975376  0
C  C119  1  0.23693874  0.94595720  0.64794855  1  -0.032467  0  -0.079389  -0.140367  0  3.926477  0
C  C120  1  0.20694590  0.92963180  0.69743880  1  0.044147  0  -0.005872  0.095705  0  4.054608  0
C  C121  1  0.15790843  0.89942184  0.79938031  1  -0.044273  0  -0.007976  -0.012274  0  4.017537  0
C  C122  1  0.17161056  0.99945993  0.77452974  1  0.513534  0  0.084246  0.212813  0  4.063633  0
C  C123  1  0.19177674  0.01160406  0.72545131  1  -0.062758  0  -0.098724  -0.257496  0  3.997507  0
C  C124  1  0.12850065  0.88059648  0.84875920  1  -0.045324  0  -0.071535  -0.120135  0  3.917677  0
C  C125  1  0.10758493  0.77837820  0.87050386  1  0.052951  0  -0.016493  -0.042674  0  4.018956  0
C  C126  1  0.23618819  0.76471293  0.64388696  1  -0.043285  0  -0.075902  -0.1226  0  3.925217  0
C  C127  1  0.20678748  0.74557771  0.69329997  1  -0.014224  0  -0.00991  -0.016212  0  4.020295  0
C  C128  1  0.19482337  0.82987215  0.72106418  1  -0.062573  0  0.004965  0.009863  0  3.926753  0
C  C129  1  0.19031609  0.64426384  0.71796261  1  0.506505  0  0.083859  0.21235  0  4.055184  0
C  C130  1  0.16876588  0.63102871  0.76697368  1  -0.022792  0  -0.099704  -0.259947  0  4.001781  0
C  C131  1  0.15598034  0.71433359  0.79529601  1  0.013607  0  -0.007068  0.090256  0  4.056418  0
C  C132  1  0.16981805  0.81491450  0.77174334  1  0.013657  0  0.004594  0.008309  0  3.925975  0
C  C133  1  0.12394092  0.69730305  0.84456484  1  -0.063132  0  -0.080119  -0.144699  0  3.930287  0
C  C134  1  0.25450023  0.86591727  0.62192322  1  0.04575  0  -0.016671  -0.041032  0  4.015134  0
C  C135  1  0.60188145  0.77618661  0.62707330  1  -0.030817  0  -0.082968  -0.151636  0  3.943429  0
C  C136  1  0.61583779  0.74970441  0.67507174  1  0.040956  0  -0.008127  0.074326  0  4.050672  0
C  C137  1  0.63728064  0.69911302  0.77419689  1  0.023106  0  -0.006772  0.075674  0  4.02938  0
C  C138  1  0.58199560  0.60962511  0.73815216  1  -0.002382  0  -0.090278  -0.129661  0  3.999663  0
C  C139  1  0.57242867  0.63396145  0.69066749  1  -0.084754  0  -0.087575  -0.129923  0  4.012331  0
C  C140  1  0.64813255  0.67603921  0.82320391  1  -0.025109  0  -0.079077  -0.138729  0  3.921711  0
C  C141  1  0.70919128  0.76580669  0.85643708  1  -0.016185  0  -0.014877  -0.037903  0  4.014828  0
C  C142  1  0.70622739  0.97984819  0.64689145  1  -0.055658  0  -0.085765  -0.149163  0  3.921675  0
C  C143  1  0.71954731  0.95718132  0.69561238  1  0.008603  0  -0.007865  0.102836  0  4.064038  0
C  C144  1  0.67332190  0.84063858  0.71000909  1  -0.01259  0  -0.000135  -0.007788  0  3.914691  0
C  C145  1  0.77721601  0.04736117  0.73102299  1  0.058787  0  -0.120743  -0.300716  0  4.014433  0
C  C146  1  0.78902455  0.02305534  0.77851111  1  0.4111  0  0.087218  0.209871  0  4.075916  0
C  C147  1  0.74305264  0.90608994  0.79426412  1  -0.009769  0  -0.00936  -0.014506  0  4.016567  0
C  C148  1  0.68439089  0.81559199  0.75935164  1  -0.070229  0  0.005488  0.015681  0  3.926764  0
C  C149  1  0.75691696  0.87997399  0.84215426  1  0.015075  0  -0.074023  -0.12504  0  3.931632  0
C  C150  1  0.64666472  0.89028594  0.61322905  1  -0.042674  0  -0.018718  -0.040274  0  4.026825  0
C  C151  1  0.02349197  0.75157793  0.05779889  1  1.650028  0  0.271784  0.7102  0  4.171144  0
C  C152  1  0.74668927  0.46211334  0.05227898  1  1.645354  0  0.284746  0.72346  0  4.146759  0
C  C153  1  0.70456044  0.74452543  0.04569967  1  1.68608  0  0.279165  0.712904  0  4.159753  0
C  C154  1  0.05296220  0.75129904  0.91931749  1  1.54747  0  0.275193  0.636075  0  4.086928  0
C  C155  1  0.73357840  0.45095334  0.91451924  1  1.533922  0  0.279948  0.649716  0  4.069476  0
C  C156  1  0.73306530  0.74235030  0.90679773  1  1.568228  0  0.271299  0.64167  0  4.086999  0
C  C157  1  0.34215584  0.82480322  0.17614520  1  0.365795  0  -0.136745  -0.170703  0  3.892347  0
C  C158  1  0.88937880  0.31287264  0.60103182  1  0.317798  0  -0.133401  -0.169117  0  3.886426  0
C  C159  1  0.05615512  0.06842844  0.80979664  1  0.353546  0  -0.138722  -0.168109  0  3.907091  0
C  C160  1  0.30140645  0.56848564  0.68462650  1  0.358276  0  -0.139894  -0.169924  0  3.926801  0
C  C161  1  0.38061426  0.19692220  0.20276527  1  0.362625  0  -0.145955  -0.180153  0  3.887387  0
C  C162  1  0.89659937  0.22036795  0.80123908  1  0.405577  0  -0.134542  -0.17581  0  3.919819  0
C  C163  1  0.18282541  0.06197329  0.30718024  1  0.373408  0  -0.133963  -0.167287  0  3.895738  0
Cl  Cl164  1  0.71475276  0.03733378  0.17042625  1  -0.221014  0  -0.028909  -0.120932  0  1.432741  0
Cl  Cl165  1  0.55189984  0.09458202  0.25844496  1  -0.190078  0  0.009681  -0.065065  0  1.600085  0
Cl  Cl166  1  0.52192282  0.44908710  0.28187087  1  -0.213088  0  -0.003509  -0.083646  0  1.469301  0
O  O167  1  0.30470545  0.81884924  0.45133392  1  -1.211817  0  -0.196774  -0.526981  0  2.287701  0
O  O168  1  0.51704073  0.84655695  0.43657932  1  -1.219374  0  -0.20553  -0.545935  0  2.278537  0
O  O169  1  0.68752749  0.00746402  0.45062136  1  -1.257316  0  -0.248203  -0.614037  0  2.227367  0
O  O170  1  0.65312887  0.17755802  0.44557082  1  -1.242464  0  -0.226953  -0.586671  0  2.247932  0
O  O171  1  0.47963209  0.16579738  0.44848956  1  -1.242855  0  -0.227982  -0.585455  0  2.238213  0
O  O172  1  0.29044092  0.98081547  0.45593055  1  -1.251631  0  -0.243072  -0.60692  0  2.228537  0
O  O173  1  0.33318854  0.82546818  0.55275955  1  -1.24583  0  -0.216107  -0.56405  0  2.349445  0
O  O174  1  0.54052697  0.83751808  0.53965065  1  -1.262088  0  -0.22417  -0.591117  0  2.348323  0
O  O175  1  0.68476386  0.01973806  0.54828760  1  -1.286786  0  -0.247634  -0.614703  0  2.295108  0
O  O176  1  0.66383689  0.19412496  0.54116013  1  -1.256854  0  -0.225568  -0.590418  0  2.347763  0
O  O177  1  0.49067670  0.17961850  0.54508909  1  -1.268561  0  -0.23701  -0.602144  0  2.287318  0
O  O178  1  0.31329651  0.98373152  0.55196552  1  -1.282311  0  -0.251673  -0.621101  0  2.291631  0
O  O179  1  0.48964605  0.98717578  0.49722220  1  -1.612194  0  -0.391589  -1.267654  0  2.303236  0
O  O180  1  0.79955391  0.81941697  0.02976253  1  -1.221702  0  -0.207248  -0.558424  0  2.288607  0
O  O181  1  0.99734909  0.82337946  0.04183576  1  -1.212819  0  -0.21282  -0.563612  0  2.295746  0
O  O182  1  0.01790473  0.66558292  0.03385381  1  -1.257744  0  -0.246436  -0.612969  0  2.242427  0
O  O183  1  0.83519923  0.47461779  0.02968172  1  -1.245895  0  -0.232859  -0.596658  0  2.235056  0
O  O184  1  0.67316277  0.48554302  0.03511098  1  -1.238577  0  -0.223011  -0.580242  0  2.247793  0
O  O185  1  0.63424817  0.64987837  0.02351419  1  -1.256499  0  -0.243864  -0.603051  0  2.211515  0
O  O186  1  0.82533003  0.81697014  0.92619161  1  -1.254466  0  -0.212853  -0.556251  0  2.347761  0
O  O187  1  0.02780189  0.82158473  0.93856126  1  -1.241657  0  -0.208114  -0.550747  0  2.348444  0
O  O188  1  0.02785951  0.65291325  0.93741259  1  -1.27224  0  -0.249291  -0.611761  0  2.273837  0
O  O189  1  0.83187146  0.48026933  0.93186801  1  -1.262556  0  -0.232093  -0.593786  0  2.304983  0
O  O190  1  0.65596613  0.45905208  0.93837369  1  -1.270382  0  -0.2373  -0.598798  0  2.275643  0
O  O191  1  0.66023395  0.64716616  0.92626592  1  -1.284963  0  -0.249486  -0.618601  0  2.288042  0
O  O192  1  0.83926512  0.66501550  0.98259416  1  -1.616968  0  -0.392157  -1.270062  0  2.297105  0
O  O193  1  0.31675834  0.89605909  0.20752016  1  -1.072524  0  -0.19947  -0.184491  0  2.571039  0
O  O194  1  0.82239811  0.36909529  0.59831363  1  -1.091834  0  -0.201774  -0.179996  0  2.54874  0
O  O195  1  0.16849705  0.08542374  0.80134751  1  -1.08268  0  -0.214495  -0.208519  0  2.528572  0
O  O196  1  0.19078612  0.55740434  0.69060291  1  -1.07672  0  -0.217987  -0.210725  0  2.522352  0
O  O197  1  0.49312939  0.27132175  0.18378569  1  -1.076797  0  -0.198144  -0.166367  0  2.551965  0
O  O198  1  0.84388074  0.10266445  0.81447057  1  -1.067818  0  -0.17773  -0.145536  0  2.590155  0
O  O199  1  0.23739386  0.01646575  0.27613959  1  -1.066008  0  -0.196531  -0.180153  0  2.567898  0
O  O200  1  0.35521049  0.67431414  0.49187871  1  -1.358893  0  -0.579457  -0.995423  0  1.795932  0
O  O201  1  0.98864998  0.97877977  0.98111569  1  -1.368399  0  -0.580165  -0.999036  0  1.788645  0
