# generated using pymatgen
data_Sr2H38C39(NO7)2
_symmetry_space_group_name_H-M   'P 1'
_cell_length_a   14.29303471
_cell_length_b   19.30940979
_cell_length_c   19.57643729
_cell_angle_alpha   64.40401594
_cell_angle_beta   73.10626406
_cell_angle_gamma   75.82567724
_symmetry_Int_Tables_number   1
_chemical_formula_structural   Sr2H38C39(NO7)2
_chemical_formula_sum   'Sr8 H152 C156 N8 O56'
_cell_volume   4617.60680452
_cell_formula_units_Z   4
loop_
 _symmetry_equiv_pos_site_id
 _symmetry_equiv_pos_as_xyz
  1  'x, y, z'
loop_
 _atom_site_type_symbol
 _atom_site_label
 _atom_site_symmetry_multiplicity
 _atom_site_fract_x
 _atom_site_fract_y
 _atom_site_fract_z
 _atom_site_occupancy
 _atom_site_pbe_bader_charge
 _atom_site_pbe_bader_spin_density
 _atom_site_pbe_cm5_charge
 _atom_site_pbe_ddec_charge
 _atom_site_pbe_ddec_spin_density
 _atom_site_pbe_ddec_sum_bond_order
 _atom_site_pbe_magmom
Sr  Sr0  1  0.35095194  0.73924216  0.78255061  1  1.682962  0  0.984977  1.437185  0  1.579149  0
Sr  Sr1  1  0.64905003  0.26075837  0.21744756  1  1.682946  0  0.984949  1.437172  0  1.579157  0
Sr  Sr2  1  0.08732125  0.79787178  0.74526341  1  1.673334  0  0.980686  1.417976  0  1.590468  0
Sr  Sr3  1  0.91267978  0.20212990  0.25473601  1  1.673355  0  0.980653  1.417917  0  1.590502  0
Sr  Sr4  1  0.83216058  0.74571547  0.76466627  1  1.672537  0  0.991022  1.426142  0  1.558414  0
Sr  Sr5  1  0.16783867  0.25428391  0.23533194  1  1.672562  0  0.991022  1.426204  0  1.558298  0
Sr  Sr6  1  0.58181044  0.83358834  0.71784651  1  1.648112  0  1.010815  1.375349  0  1.595161  0
Sr  Sr7  1  0.41818870  0.16641159  0.28215507  1  1.64817  0  1.0108  1.375394  0  1.59509  0
H  H8  1  0.38288092  0.31065662  0.83175528  1  0.056029  0  0.101428  0.069638  0  1.005063  0
H  H9  1  0.61711968  0.68933926  0.16824770  1  0.055921  0  0.101444  0.069619  0  1.005038  0
H  H10  1  0.32235829  0.22610806  0.87417460  1  0.066746  0  0.104094  0.079003  0  0.975668  0
H  H11  1  0.67763928  0.77388841  0.12582672  1  0.066797  0  0.104076  0.078919  0  0.975806  0
H  H12  1  0.39581817  0.14208213  0.00554506  1  0.077722  0  0.113107  0.130224  0  0.975403  0
H  H13  1  0.60417858  0.85791898  0.99445449  1  0.077729  0  0.11307  0.130145  0  0.975325  0
H  H14  1  0.44650806  0.15554559  0.11042220  1  0.12815  0  0.114386  0.108019  0  1.036992  0
H  H15  1  0.55349130  0.84445318  0.88957982  1  0.128192  0  0.114398  0.10804  0  1.037022  0
H  H16  1  0.65649223  0.30405130  0.94102039  1  0.083257  0  0.09787  0.097646  0  1.027671  0
H  H17  1  0.34350577  0.69594689  0.05898217  1  0.083235  0  0.097856  0.097621  0  1.027688  0
H  H18  1  0.60665371  0.29010731  0.83534431  1  0.064482  0  0.09983  0.106189  0  1.049081  0
H  H19  1  0.39334544  0.70989263  0.16465675  1  0.064157  0  0.099832  0.10617  0  1.049099  0
H  H20  1  0.39262149  0.18664007  0.69141800  1  0.064946  0  0.10353  0.071166  0  0.987823  0
H  H21  1  0.60737703  0.81335928  0.30858345  1  0.064927  0  0.103512  0.071136  0  0.987829  0
H  H22  1  0.43981474  0.13797124  0.77847347  1  0.042425  0  0.108493  0.082726  0  0.986059  0
H  H23  1  0.56018169  0.86202753  0.22152866  1  0.042384  0  0.108487  0.082712  0  0.986071  0
H  H24  1  0.29163835  0.32120613  0.66840340  1  0.057872  0  0.105655  0.078537  0  0.97777  0
H  H25  1  0.70836423  0.67879092  0.33159713  1  0.05781  0  0.105646  0.078559  0  0.977759  0
H  H26  1  0.23086286  0.30440918  0.76712106  1  0.075665  0  0.104326  0.073643  0  1.013985  0
H  H27  1  0.76913357  0.69558960  0.23288005  1  0.075802  0  0.104319  0.073656  0  1.014009  0
H  H28  1  0.00294738  0.51607404  0.69270416  1  0.07061  0  0.102856  0.106189  0  1.008302  0
H  H29  1  0.99704833  0.48392882  0.30729334  1  0.070513  0  0.102837  0.106114  0  1.00835  0
H  H30  1  0.20203905  0.62334624  0.73142465  1  0.115516  0  0.114433  0.111884  0  1.03767  0
H  H31  1  0.79796208  0.37665487  0.26857397  1  0.11554  0  0.114418  0.111832  0  1.037749  0
H  H32  1  0.33531331  0.51477131  0.72574780  1  0.056998  0  0.108275  0.122906  0  0.994527  0
H  H33  1  0.66468302  0.48522807  0.27425103  1  0.056941  0  0.108261  0.122878  0  0.994477  0
H  H34  1  0.50320783  0.33463821  0.70313049  1  0.064376  0  0.108126  0.085208  0  0.968811  0
H  H35  1  0.49679069  0.66536115  0.29687044  1  0.064437  0  0.108121  0.085202  0  0.968778  0
H  H36  1  0.54473014  0.23787656  0.70780031  1  0.069235  0  0.104585  0.07065  0  1.033666  0
H  H37  1  0.45527015  0.76212105  0.29220199  1  0.069263  0  0.104598  0.07064  0  1.033733  0
H  H38  1  0.77980573  0.20917001  0.51844896  1  0.077062  0  0.103652  0.101676  0  1.032732  0
H  H39  1  0.22019437  0.79083284  0.48154864  1  0.077022  0  0.103665  0.101676  0  1.032762  0
H  H40  1  0.56302911  0.31491176  0.37756994  1  0.063773  0  0.11379  0.105582  0  1.003719  0
H  H41  1  0.43696796  0.68509164  0.62243164  1  0.063799  0  0.113784  0.105561  0  1.003744  0
H  H42  1  0.44368327  0.34612753  0.48562897  1  0.080638  0  0.10869  0.125188  0  0.98484  0
H  H43  1  0.55631442  0.65387240  0.51437343  1  0.080665  0  0.108714  0.125219  0  0.984854  0
H  H44  1  0.39017584  0.57228014  0.94928770  1  0.098996  0  0.121835  0.041282  0  1.021386  0
H  H45  1  0.60982717  0.42771864  0.05071354  1  0.098974  0  0.121833  0.041291  0  1.021337  0
H  H46  1  0.30406178  0.38485009  0.95267733  1  0.089791  0  0.107194  0.125321  0  1.006982  0
H  H47  1  0.69594082  0.61515103  0.04731995  1  0.089727  0  0.107217  0.125343  0  1.006951  0
H  H48  1  0.42415187  0.39216089  0.89124800  1  0.074463  0  0.097764  0.109253  0  1.01912  0
H  H49  1  0.57585186  0.60783791  0.10875001  1  0.074511  0  0.097775  0.109264  0  1.019153  0
H  H50  1  0.32349894  0.46604787  0.86094406  1  0.097735  0  0.106351  0.120155  0  1.029837  0
H  H51  1  0.67650396  0.53395152  0.13905235  1  0.097766  0  0.106359  0.120146  0  1.029841  0
H  H52  1  0.33986235  0.39078945  0.06398185  1  0.105515  0  0.114935  0.13384  0  0.999954  0
H  H53  1  0.66013826  0.60921051  0.93601583  1  0.1055  0  0.114924  0.133842  0  0.999999  0
H  H54  1  0.40441983  0.46629612  0.04878270  1  0.057003  0  0.105174  0.112184  0  1.017435  0
H  H55  1  0.59557962  0.53370209  0.95121698  1  0.056946  0  0.105144  0.112158  0  1.01743  0
H  H56  1  0.46849936  0.38676892  0.02160818  1  0.072135  0  0.103911  0.120382  0  1.005353  0
H  H57  1  0.53149936  0.61322928  0.97839320  1  0.072136  0  0.103933  0.120414  0  1.005327  0
H  H58  1  0.20126053  0.66401688  0.96756751  1  0.120253  0  0.130211  0.055524  0  1.002654  0
H  H59  1  0.79874258  0.33598133  0.03243191  1  0.12024  0  0.130188  0.055482  0  1.002628  0
H  H60  1  0.15840842  0.47834520  0.04602596  1  0.09103  0  0.11172  0.130204  0  0.994106  0
H  H61  1  0.84159355  0.52165531  0.95397529  1  0.091043  0  0.111714  0.130171  0  0.994134  0
H  H62  1  0.05344070  0.53675619  0.08020067  1  0.055265  0  0.103698  0.120465  0  0.999158  0
H  H63  1  0.94656106  0.46324549  0.91979911  1  0.055233  0  0.103705  0.120495  0  0.999148  0
H  H64  1  0.17480981  0.55736812  0.06425064  1  0.05431  0  0.107414  0.116879  0  1.022079  0
H  H65  1  0.82519102  0.44263473  0.93574628  1  0.054317  0  0.107413  0.116879  0  1.02209  0
H  H66  1  0.10742579  0.50924592  0.92374111  1  0.01993  0  0.104672  0.114816  0  0.998186  0
H  H67  1  0.89257096  0.49075517  0.07625947  1  0.019699  0  0.104659  0.11479  0  0.998316  0
H  H68  1  0.08753542  0.60889043  0.85999744  1  0.126915  0  0.121963  0.134325  0  1.037443  0
H  H69  1  0.91246040  0.39111183  0.14000233  1  0.126902  0  0.121976  0.134343  0  1.037477  0
H  H70  1  0.99623678  0.57042076  0.94500776  1  0.053859  0  0.106282  0.115503  0  1.022836  0
H  H71  1  0.00376227  0.42957974  0.05499565  1  0.053926  0  0.10626  0.115474  0  1.022855  0
H  H72  1  0.05604993  0.01158413  0.84561742  1  0.102727  0  0.103931  0.105473  0  1.012005  0
H  H73  1  0.94395318  0.98841408  0.15438252  1  0.102764  0  0.103944  0.105483  0  1.012034  0
H  H74  1  0.11624045  0.12007564  0.85245910  1  0.092583  0  0.101684  0.114414  0  1.01301  0
H  H75  1  0.88375817  0.87992314  0.14754205  1  0.092614  0  0.101686  0.114388  0  1.013  0
H  H76  1  0.40866013  0.05304175  0.73696112  1  0.091786  0  0.105218  0.119448  0  1.033127  0
H  H77  1  0.59133997  0.94696105  0.26304263  1  0.091761  0  0.105215  0.119477  0  1.03308  0
H  H78  1  0.34837289  0.94509499  0.73368421  1  0.096556  0  0.117983  0.105671  0  1.023162  0
H  H79  1  0.65163044  0.05490608  0.26631907  1  0.097012  0  0.117972  0.105618  0  1.02328  0
H  H80  1  0.82471095  0.93484650  0.62706471  1  0.107573  0  0.132985  0.051888  0  1.005318  0
H  H81  1  0.17528694  0.06515228  0.37293659  1  0.107598  0  0.132988  0.051889  0  1.005338  0
H  H82  1  0.90805899  0.10344525  0.51007796  1  0.092433  0  0.108283  0.132128  0  1.003744  0
H  H83  1  0.09193733  0.89655410  0.48992344  1  0.092377  0  0.108271  0.132121  0  1.003799  0
H  H84  1  0.86699652  0.10352245  0.60584044  1  0.064196  0  0.104039  0.120303  0  0.988872  0
H  H85  1  0.13300252  0.89647808  0.39415938  1  0.064195  0  0.104043  0.120309  0  0.988834  0
H  H86  1  0.80290133  0.05873872  0.57375455  1  0.081405  0  0.108236  0.114906  0  1.020116  0
H  H87  1  0.19709542  0.94126236  0.42624705  1  0.081469  0  0.108224  0.11493  0  1.020158  0
H  H88  1  0.06381818  0.05129353  0.55921134  1  0.082484  0  0.106646  0.123831  0  1.011599  0
H  H89  1  0.93618106  0.94870585  0.44078687  1  0.082477  0  0.106637  0.123811  0  1.011603  0
H  H90  1  0.08621492  0.94757832  0.59836351  1  0.075339  0  0.11736  0.121087  0  1.035543  0
H  H91  1  0.91378433  0.05242105  0.40163522  1  0.075355  0  0.117359  0.121076  0  1.035582  0
H  H92  1  0.03714972  0.99857073  0.66192613  1  0.093864  0  0.114394  0.133  0  1.000354  0
H  H93  1  0.96285245  0.00142866  0.33807146  1  0.094129  0  0.114363  0.132961  0  1.000345  0
H  H94  1  0.51771008  0.82580299  0.55874449  1  0.131998  0  0.131429  0.05128  0  1.002413  0
H  H95  1  0.48228929  0.17419987  0.44125275  1  0.132197  0  0.131389  0.051242  0  1.002376  0
H  H96  1  0.36689854  0.91001660  0.43763671  1  0.069078  0  0.104353  0.11769  0  1.011942  0
H  H97  1  0.63310375  0.08998626  0.56235889  1  0.069163  0  0.104382  0.117772  0  1.011892  0
H  H98  1  0.49391260  0.88343158  0.44336512  1  0.07116  0  0.110113  0.119844  0  0.997515  0
H  H99  1  0.50608979  0.11657070  0.55663070  1  0.071212  0  0.110104  0.119838  0  0.9976  0
H  H100  1  0.43878002  0.98274983  0.41715466  1  0.056391  0  0.11626  0.128365  0  0.993493  0
H  H101  1  0.56122008  0.01725302  0.58284294  1  0.056383  0  0.116253  0.128358  0  0.993494  0
H  H102  1  0.32457917  0.02101046  0.52898032  1  0.13558  0  0.103647  0.129739  0  1.039345  0
H  H103  1  0.67542040  0.97899124  0.47101787  1  0.1356  0  0.103658  0.129785  0  1.039323  0
H  H104  1  0.30137245  0.94183057  0.62270187  1  0.116437  0  0.117514  0.137336  0  1.028736  0
H  H105  1  0.69863129  0.05816823  0.37729666  1  0.116384  0  0.117504  0.137344  0  1.028758  0
H  H106  1  0.24944311  0.95081595  0.54613617  1  0.073055  0  0.105379  0.116799  0  1.014489  0
H  H107  1  0.75055687  0.04918342  0.45386240  1  0.073541  0  0.105378  0.116866  0  1.014464  0
H  H108  1  0.99002135  0.83016211  0.90521404  1  0.14212  0  0.113932  0.116127  0  1.038407  0
H  H109  1  0.00997883  0.16983608  0.09478804  1  0.142373  0  0.113934  0.116114  0  1.038395  0
H  H110  1  0.05014680  0.82717786  0.01257308  1  0.068254  0  0.106176  0.118822  0  1.010562  0
H  H111  1  0.94985120  0.17282035  0.98742793  1  0.068204  0  0.106165  0.118804  0  1.010566  0
H  H112  1  0.90931210  0.62436520  0.16749008  1  0.082217  0  0.095062  0.106722  0  1.067674  0
H  H113  1  0.09068110  0.37563533  0.83250944  1  0.082447  0  0.095056  0.106702  0  1.067708  0
H  H114  1  0.84772713  0.62901347  0.05786282  1  0.073826  0  0.09905  0.092729  0  1.034514  0
H  H115  1  0.15226669  0.37098764  0.94213684  1  0.074142  0  0.099028  0.092666  0  1.034491  0
H  H116  1  0.05622115  0.82656116  0.12378075  1  0.052673  0  0.107665  0.078956  0  0.984583  0
H  H117  1  0.94378029  0.17343821  0.87621904  1  0.052662  0  0.107649  0.078953  0  0.984561  0
H  H118  1  0.15267861  0.75241124  0.10851371  1  0.07939  0  0.108023  0.082103  0  0.976518  0
H  H119  1  0.84731928  0.24758756  0.89148503  1  0.079375  0  0.108027  0.082083  0  0.976555  0
H  H120  1  0.21010081  0.76874081  0.27250633  1  0.07346  0  0.104398  0.071511  0  0.997374  0
H  H121  1  0.78989740  0.23126029  0.72749291  1  0.073378  0  0.104376  0.071483  0  0.99736  0
H  H122  1  0.25046501  0.78353330  0.17229940  1  0.083685  0  0.103179  0.073934  0  1.020193  0
H  H123  1  0.74953424  0.21646607  0.82769933  1  0.083704  0  0.10319  0.073952  0  1.020167  0
H  H124  1  0.07600652  0.01047455  0.18282634  1  0.135763  0  0.105149  0.126357  0  1.036775  0
H  H125  1  0.92399639  0.98952482  0.81717315  1  0.135698  0  0.105133  0.126322  0  1.036822  0
H  H126  1  0.15965732  0.10069343  0.19592816  1  0.144197  0  0.115282  0.113827  0  1.046082  0
H  H127  1  0.84034172  0.89930710  0.80407166  1  0.144187  0  0.11529  0.113833  0  1.046093  0
H  H128  1  0.40665732  0.92313557  0.25002432  1  0.071775  0  0.096663  0.092788  0  1.033052  0
H  H129  1  0.59334235  0.07686553  0.74997512  1  0.071915  0  0.096668  0.092794  0  1.033002  0
H  H130  1  0.33122482  0.83531137  0.22531061  1  0.061271  0  0.096431  0.103371  0  1.057164  0
H  H131  1  0.66877768  0.16469032  0.77468748  1  0.061424  0  0.096375  0.103287  0  1.057154  0
H  H132  1  0.14930977  0.64222969  0.32468192  1  0.085508  0  0.107243  0.084296  0  0.966875  0
H  H133  1  0.85069094  0.35776969  0.67531649  1  0.085474  0  0.107221  0.084275  0  0.966878  0
H  H134  1  0.09542810  0.62298799  0.26391482  1  0.065884  0  0.106236  0.076538  0  1.016031  0
H  H135  1  0.90457261  0.37701137  0.73608565  1  0.065662  0  0.106248  0.076556  0  1.016008  0
H  H136  1  0.14102801  0.55729455  0.19864190  1  0.05163  0  0.104751  0.117572  0  1.015491  0
H  H137  1  0.85897448  0.44270715  0.80135413  1  0.049682  0  0.104787  0.117587  0  1.015489  0
H  H138  1  0.20459495  0.42606519  0.19983912  1  0.114474  0  0.113332  0.10842  0  1.039163  0
H  H139  1  0.79540535  0.57393651  0.80015687  1  0.114639  0  0.113348  0.108453  0  1.039196  0
H  H140  1  0.48094347  0.43599521  0.23893508  1  0.090114  0  0.109395  0.108689  0  1.023876  0
H  H141  1  0.51905516  0.56400357  0.76106555  1  0.090072  0  0.109397  0.108702  0  1.023873  0
H  H142  1  0.41638341  0.56877950  0.23949650  1  0.047714  0  0.102746  0.113921  0  1.007935  0
H  H143  1  0.58361793  0.43122046  0.76050103  1  0.047705  0  0.102741  0.113929  0  1.007921  0
H  H144  1  0.98161019  0.82519354  0.25137758  1  0.082225  0  0.105025  0.072115  0  1.030036  0
H  H145  1  0.01838990  0.17480524  0.74862378  1  0.082196  0  0.105022  0.072149  0  1.029994  0
H  H146  1  0.95622059  0.72733586  0.29310823  1  0.040268  0  0.104441  0.077633  0  0.973845  0
H  H147  1  0.04377939  0.27266351  0.70689137  1  0.040243  0  0.104426  0.077588  0  0.97387  0
H  H148  1  0.06133054  0.73581325  0.48106032  1  0.09666  0  0.108423  0.12435  0  0.988812  0
H  H149  1  0.93866755  0.26418437  0.51894092  1  0.096596  0  0.108404  0.124327  0  0.988834  0
H  H150  1  0.93540189  0.77240870  0.58292812  1  0.086986  0  0.117907  0.110911  0  1.014434  0
H  H151  1  0.06459799  0.22759126  0.41707023  1  0.086927  0  0.117913  0.110917  0  1.014419  0
H  H152  1  0.72436894  0.86131412  0.43662264  1  0.100867  0  0.101115  0.099359  0  1.012785  0
H  H153  1  0.27563031  0.13868525  0.56337660  1  0.100864  0  0.101128  0.099383  0  1.012813  0
H  H154  1  0.84838587  0.82668445  0.33438783  1  0.091934  0  0.097929  0.108397  0  1.053211  0
H  H155  1  0.15161494  0.17331433  0.66561234  1  0.091724  0  0.097922  0.108381  0  1.053197  0
H  H156  1  0.13610860  0.40573963  0.68773024  1  0.05563  0  0.100727  0.110475  0  1.020336  0
H  H157  1  0.86388815  0.59426147  0.31227034  1  0.055588  0  0.100732  0.110485  0  1.020342  0
H  H158  1  0.66474359  0.24217338  0.62516235  1  0.043472  0  0.097194  0.108085  0  1.039799  0
H  H159  1  0.33525775  0.75782657  0.37483672  1  0.043424  0  0.097183  0.108092  0  1.039817  0
C  C160  1  0.38760755  0.25999595  0.75120811  1  0.062876  0  -0.020096  0.046234  0  3.813247  0
C  C161  1  0.61239054  0.74000166  0.24879466  1  0.062801  0  -0.020115  0.046176  0  3.81326  0
C  C162  1  0.38713088  0.25262391  0.83247617  1  0.409233  0  -0.0635  -0.020623  0  3.856349  0
C  C163  1  0.61286732  0.74737312  0.16752631  1  0.409344  0  -0.063406  -0.020328  0  3.856182  0
C  C164  1  0.49979053  0.21458969  0.91458123  1  0.437399  0  0.078231  0.252628  0  4.071872  0
C  C165  1  0.50020966  0.78540850  0.08542035  1  0.437435  0  0.078236  0.252597  0  4.072006  0
C  C166  1  0.45316585  0.17720855  0.99169906  1  -0.006966  0  -0.093592  -0.18951  0  3.9665  0
C  C167  1  0.54683204  0.82279022  0.00830276  1  -0.006833  0  -0.093527  -0.18932  0  3.966395  0
C  C168  1  0.48191426  0.18462952  0.05018412  1  -0.030491  0  -0.068474  -0.052751  0  3.942422  0
C  C169  1  0.51808134  0.81536984  0.94981692  1  -0.030994  0  -0.068492  -0.052818  0  3.942461  0
C  C170  1  0.55573436  0.22974182  0.03244621  1  -0.023228  0  -0.021773  -0.057463  0  3.97757  0
C  C171  1  0.44426426  0.77025697  0.96755340  1  -0.022758  0  -0.021793  -0.057551  0  3.977522  0
C  C172  1  0.60017798  0.26816563  0.95467305  1  -0.060867  0  -0.088008  -0.080305  0  4.005321  0
C  C173  1  0.39981835  0.73183372  0.04532937  1  -0.060916  0  -0.088007  -0.080299  0  4.0051  0
C  C174  1  0.57248626  0.26059574  0.89593279  1  -0.057481  0  -0.110451  -0.221725  0  4.04062  0
C  C175  1  0.42750945  0.73940709  0.10406779  1  -0.057159  0  -0.110492  -0.221715  0  4.040643  0
C  C176  1  0.58691021  0.23798237  0.09515222  1  1.548551  0  0.210558  0.599713  0  4.219726  0
C  C177  1  0.41308914  0.76201642  0.90484724  1  1.54858  0  0.210573  0.599781  0  4.219755  0
C  C178  1  0.38150984  0.18184491  0.75142119  1  0.423225  0  -0.061659  -0.027002  0  3.86593  0
C  C179  1  0.61848816  0.81815329  0.24857982  1  0.423479  0  -0.061641  -0.026929  0  3.865829  0
C  C180  1  0.29927044  0.31960196  0.72348140  1  0.413257  0  -0.062716  -0.02651  0  3.860097  0
C  C181  1  0.70072662  0.68039740  0.27651984  1  0.413207  0  -0.062772  -0.026621  0  3.860241  0
C  C182  1  0.24291961  0.45256820  0.70935799  1  0.389846  0  0.086044  0.26822  0  4.06248  0
C  C183  1  0.75707671  0.54743114  0.29064494  1  0.389427  0  0.085951  0.268115  0  4.062592  0
C  C184  1  0.07599587  0.51480003  0.70038136  1  -0.063364  0  -0.085351  -0.070669  0  4.001251  0
C  C185  1  0.92399879  0.48520049  0.29961990  1  -0.063135  0  -0.08536  -0.070642  0  4.001226  0
C  C186  1  0.09256016  0.57552527  0.71450457  1  -0.008184  0  -0.032837  -0.073703  0  4.000923  0
C  C187  1  0.90743732  0.42447583  0.28549482  1  -0.008474  0  -0.032855  -0.073624  0  4.000918  0
C  C188  1  0.18719701  0.57566458  0.72227642  1  -0.022124  0  -0.078226  -0.06626  0  3.986124  0
C  C189  1  0.81280266  0.42433653  0.27772200  1  -0.022099  0  -0.078222  -0.06631  0  3.986308  0
C  C190  1  0.26195447  0.51523901  0.71921303  1  0.015317  0  -0.105299  -0.208556  0  3.99819  0
C  C191  1  0.73804133  0.48475917  0.28079050  1  0.015671  0  -0.105232  -0.208414  0  3.998013  0
C  C192  1  0.00982731  0.63729643  0.72436070  1  1.54438  0  0.204306  0.591978  0  4.240696  0
C  C193  1  0.99017206  0.36270639  0.27564013  1  1.544324  0  0.204334  0.591983  0  4.240696  0
C  C194  1  0.48502777  0.28661588  0.69545338  1  0.404358  0  -0.059289  -0.022414  0  3.848402  0
C  C195  1  0.51497158  0.71338289  0.30454915  1  0.404249  0  -0.059291  -0.022393  0  3.848315  0
C  C196  1  0.54496329  0.29452242  0.56268863  1  0.435334  0  0.085218  0.266349  0  4.06838  0
C  C197  1  0.45503493  0.70547866  0.43731369  1  0.435552  0  0.085242  0.266498  0  4.068263  0
C  C198  1  0.70559118  0.23855467  0.51197593  1  -0.012564  0  -0.083958  -0.067218  0  3.997857  0
C  C199  1  0.29440714  0.76144584  0.48802558  1  -0.01249  0  -0.083963  -0.067147  0  3.997755  0
C  C200  1  0.67859250  0.25733068  0.44217926  1  0.023173  0  -0.029936  -0.070693  0  3.997481  0
C  C201  1  0.32140707  0.74267098  0.55782252  1  0.022762  0  -0.029947  -0.070765  0  3.997489  0
C  C202  1  0.58426235  0.29808332  0.43238979  1  -0.040023  0  -0.079695  -0.075131  0  4.0178  0
C  C203  1  0.41573523  0.70191718  0.56761290  1  -0.04016  0  -0.079662  -0.075081  0  4.017603  0
C  C204  1  0.51777385  0.31590144  0.49196919  1  -0.050515  0  -0.107273  -0.212967  0  4.008834  0
C  C205  1  0.48222384  0.68409849  0.50803270  1  -0.050514  0  -0.107271  -0.213002  0  4.008712  0
C  C206  1  0.74823301  0.23252919  0.38071497  1  1.571538  0  0.206223  0.592649  0  4.231221  0
C  C207  1  0.25176645  0.76747307  0.61928557  1  1.571577  0  0.206234  0.592714  0  4.231102  0
C  C208  1  0.37527407  0.54653288  0.91342357  1  1.364183  0  0.174347  0.290626  0  4.140305  0
C  C209  1  0.62472821  0.45346589  0.08657732  1  1.364225  0  0.17438  0.290744  0  4.140186  0
C  C210  1  0.35553743  0.42564415  0.91083374  1  0.207887  0  -0.134329  -0.269217  0  3.878105  0
C  C211  1  0.64446464  0.57435580  0.08916414  1  0.207887  0  -0.134389  -0.269266  0  3.878183  0
C  C212  1  0.39850093  0.42595338  0.02487173  1  0.22551  0  -0.131254  -0.284409  0  3.903664  0
C  C213  1  0.60150051  0.57404600  0.97512653  1  0.225541  0  -0.13125  -0.284416  0  3.903656  0
C  C214  1  0.16489978  0.65493349  0.93004000  1  1.37872  0  0.193049  0.317184  0  4.11268  0
C  C215  1  0.83510083  0.34506645  0.06995973  1  1.378442  0  0.193058  0.31725  0  4.112648  0
C  C216  1  0.12777344  0.53749226  0.04292547  1  0.265828  0  -0.129087  -0.284492  0  3.905154  0
C  C217  1  0.87222780  0.46250827  0.95707337  1  0.265829  0  -0.129062  -0.284451  0  3.905123  0
C  C218  1  0.07595522  0.56823245  0.92058360  1  0.275008  0  -0.128959  -0.274459  0  3.866949  0
C  C219  1  0.92404215  0.43176922  0.07941763  1  0.275207  0  -0.128956  -0.274408  0  3.867061  0
C  C220  1  0.16259791  0.91073275  0.77881859  1  1.545446  0  0.20518  0.585469  0  4.240008  0
C  C221  1  0.83740688  0.08926835  0.22118131  1  1.54519  0  0.204982  0.585021  0  4.240397  0
C  C222  1  0.19840387  0.97245168  0.78744837  1  -0.023308  0  -0.029509  -0.067521  0  3.998028  0
C  C223  1  0.80159780  0.02755056  0.21255222  1  -0.02339  0  -0.029528  -0.067541  0  3.997847  0
C  C224  1  0.13294006  0.02129414  0.82206812  1  -0.090535  0  -0.085673  -0.0773  0  4.011744  0
C  C225  1  0.86706107  0.97870698  0.17792896  1  -0.09059  0  -0.085652  -0.077295  0  4.011685  0
C  C226  1  0.16529327  0.08162745  0.82550190  1  -0.010578  0  -0.110753  -0.216581  0  4.018597  0
C  C227  1  0.83470640  0.91837365  0.17449857  1  -0.010551  0  -0.110782  -0.216529  0  4.018656  0
C  C228  1  0.26366223  0.09543445  0.79234688  1  0.426287  0  0.084287  0.264314  0  4.05845  0
C  C229  1  0.73633682  0.90456604  0.20765653  1  0.426377  0  0.084288  0.264329  0  4.058538  0
C  C230  1  0.33092154  0.04582116  0.75978126  1  -0.082567  0  -0.109716  -0.229986  0  3.992707  0
C  C231  1  0.66907970  0.95417932  0.24022373  1  -0.082637  0  -0.109669  -0.230025  0  3.992686  0
C  C232  1  0.29736166  0.98452907  0.75834807  1  -0.003065  0  -0.071659  -0.050909  0  3.970593  0
C  C233  1  0.70263970  0.01547490  0.24165338  1  -0.003474  0  -0.071708  -0.050839  0  3.970559  0
C  C234  1  0.90020547  0.92956353  0.63427452  1  1.368617  0  0.192538  0.315247  0  4.103412  0
C  C235  1  0.09979378  0.07043583  0.36572626  1  1.368621  0  0.192529  0.315238  0  4.103405  0
C  C236  1  0.87598129  0.06970967  0.57068866  1  0.239864  0  -0.130638  -0.28882  0  3.928043  0
C  C237  1  0.12401722  0.93028969  0.42931227  1  0.240376  0  -0.130652  -0.288866  0  3.928127  0
C  C238  1  0.03714118  0.99845443  0.60574502  1  0.226153  0  -0.126706  -0.281466  0  3.864204  0
C  C239  1  0.96285734  0.00154495  0.39425386  1  0.225811  0  -0.126626  -0.281334  0  3.864056  0
C  C240  1  0.45464977  0.85905933  0.58451583  1  1.370498  0  0.194982  0.325925  0  4.097698  0
C  C241  1  0.54534990  0.14094179  0.41548156  1  1.370274  0  0.195072  0.326138  0  4.097516  0
C  C242  1  0.42650357  0.92251787  0.45378295  1  0.273663  0  -0.122607  -0.275158  0  3.908542  0
C  C243  1  0.57349736  0.07748440  0.54621472  1  0.273609  0  -0.122622  -0.275172  0  3.908627  0
C  C244  1  0.31364558  0.95974188  0.55992478  1  0.164719  0  -0.135305  -0.281677  0  3.843284  0
C  C245  1  0.68635430  0.04025808  0.44007357  1  0.163953  0  -0.135394  -0.281863  0  3.843304  0
C  C246  1  0.88692361  0.72883893  0.90705419  1  1.545586  0  0.202322  0.587868  0  4.234925  0
C  C247  1  0.11307575  0.27115986  0.09294579  1  1.545581  0  0.20233  0.587894  0  4.234823  0
C  C248  1  0.91537548  0.72945895  0.97438724  1  -0.015767  0  -0.030018  -0.071286  0  4.000747  0
C  C249  1  0.08462157  0.27054041  0.02561349  1  -0.015767  0  -0.030081  -0.071543  0  4.000921  0
C  C250  1  0.97140418  0.78532275  0.96283748  1  -0.054723  0  -0.074494  -0.056517  0  3.965977  0
C  C251  1  0.02859361  0.21467661  0.03716360  1  -0.05494  0  -0.074398  -0.056298  0  3.965887  0
C  C252  1  0.00564059  0.78363255  0.02341075  1  -0.049847  0  -0.111822  -0.230645  0  4.014825  0
C  C253  1  0.99435730  0.21636625  0.97658902  1  -0.050299  0  -0.111868  -0.230764  0  4.014811  0
C  C254  1  0.98274646  0.72517771  0.09707219  1  0.392449  0  0.080002  0.258343  0  4.072509  0
C  C255  1  0.01725007  0.27482049  0.90292914  1  0.392824  0  0.080043  0.258441  0  4.072334  0
C  C256  1  0.92515448  0.66963515  0.10984695  1  0.024301  0  -0.115067  -0.219021  0  4.017145  0
C  C257  1  0.07484571  0.33036305  0.89015360  1  0.024062  0  -0.115091  -0.219149  0  4.01708  0
C  C258  1  0.89167227  0.67225155  0.04888362  1  -0.077061  0  -0.088414  -0.078142  0  4.020637  0
C  C259  1  0.10832635  0.32774723  0.95111651  1  -0.077248  0  -0.08835  -0.077891  0  4.020449  0
C  C260  1  0.08480219  0.76442953  0.14867719  1  0.402021  0  -0.060059  -0.026071  0  3.858914  0
C  C261  1  0.91519487  0.23556984  0.85132252  1  0.402004  0  -0.059994  -0.026022  0  3.858841  0
C  C262  1  0.10693115  0.74409647  0.22760377  1  0.062852  0  -0.021545  0.046404  0  3.832339  0
C  C263  1  0.89306894  0.25590232  0.77239502  1  0.062589  0  -0.021532  0.046445  0  3.832423  0
C  C264  1  0.18632547  0.79060559  0.21724224  1  0.390893  0  -0.066319  -0.025438  0  3.866479  0
C  C265  1  0.81367441  0.20939436  0.78275662  1  0.390941  0  -0.06631  -0.025378  0  3.866449  0
C  C266  1  0.19706788  0.91666134  0.20477474  1  0.371187  0  0.083535  0.265259  0  4.058766  0
C  C267  1  0.80293461  0.08334038  0.79521976  1  0.374623  0  0.08351  0.265247  0  4.058699  0
C  C268  1  0.14970551  0.99194080  0.19539052  1  -0.005337  0  -0.104674  -0.20225  0  3.971245  0
C  C269  1  0.85029740  0.00805856  0.80460948  1  -0.009113  0  -0.104627  -0.20211  0  3.971073  0
C  C270  1  0.19596775  0.04184239  0.20440860  1  -0.078164  0  -0.079196  -0.067537  0  3.967594  0
C  C271  1  0.80403213  0.95815755  0.79559129  1  -0.078095  0  -0.079203  -0.067584  0  3.96751  0
C  C272  1  0.28811564  0.01694064  0.22573074  1  -0.047642  0  -0.035  -0.080958  0  4.018523  0
C  C273  1  0.71188277  0.98305929  0.77427150  1  -0.047617  0  -0.034974  -0.080856  0  4.018439  0
C  C274  1  0.33476587  0.94184200  0.23430102  1  -0.00531  0  -0.088962  -0.068219  0  4.01457  0
C  C275  1  0.66523265  0.05815734  0.76570247  1  -0.005489  0  -0.088977  -0.068253  0  4.014515  0
C  C276  1  0.29123885  0.89194005  0.22240713  1  -0.050356  0  -0.119752  -0.238942  0  4.027749  0
C  C277  1  0.70876322  0.10805991  0.77759024  1  -0.050592  0  -0.119685  -0.238863  0  4.027679  0
C  C278  1  0.33495521  0.06891024  0.24028413  1  1.538566  0  0.195907  0.580198  0  4.253845  0
C  C279  1  0.66504227  0.93109085  0.75971628  1  1.538539  0  0.195826  0.579946  0  4.254061  0
C  C280  1  0.14541082  0.65776599  0.26433368  1  0.381453  0  -0.060858  -0.02348  0  3.843911  0
C  C281  1  0.85459219  0.34223281  0.73566500  1  0.381674  0  -0.06085  -0.023498  0  3.84388  0
C  C282  1  0.27481597  0.57015426  0.22060332  1  0.445394  0  0.083161  0.262995  0  4.06423  0
C  C283  1  0.72518663  0.42984688  0.77939191  1  0.445252  0  0.083125  0.263042  0  4.064195  0
C  C284  1  0.21547665  0.53097018  0.20768318  1  -0.009306  0  -0.107791  -0.223054  0  4.00835  0
C  C285  1  0.78452731  0.46903155  0.79230947  1  -0.007648  0  -0.107802  -0.22304  0  4.008435  0
C  C286  1  0.25200924  0.45748056  0.20715454  1  -0.079998  0  -0.074713  -0.057845  0  3.985573  0
C  C287  1  0.74799200  0.54251999  0.79284173  1  -0.080026  0  -0.074745  -0.057948  0  3.985757  0
C  C288  1  0.34693727  0.42212052  0.21963649  1  0.028927  0  -0.025429  -0.073666  0  3.992598  0
C  C289  1  0.65306261  0.57787942  0.78036391  1  0.031282  0  -0.025411  -0.073594  0  3.992659  0
C  C290  1  0.40667905  0.46305559  0.23019554  1  0.009564  0  -0.08087  -0.067149  0  3.985374  0
C  C291  1  0.59332063  0.53694552  0.76980288  1  0.00718  0  -0.08092  -0.067241  0  3.985358  0
C  C292  1  0.37132332  0.53682454  0.23018909  1  -0.064981  0  -0.107301  -0.208005  0  4.00609  0
C  C293  1  0.62867876  0.46317542  0.76980828  1  -0.064843  0  -0.107249  -0.207998  0  4.005922  0
C  C294  1  0.38189703  0.34062390  0.22575238  1  1.535797  0  0.22138  0.618612  0  4.183763  0
C  C295  1  0.61810504  0.65937604  0.77424653  1  1.535801  0  0.22132  0.618553  0  4.183975  0
C  C296  1  0.01183123  0.76434738  0.28055109  1  0.424211  0  -0.064247  -0.026999  0  3.862655  0
C  C297  1  0.98817042  0.23565083  0.71944813  1  0.424537  0  -0.064254  -0.027033  0  3.862627  0
C  C298  1  0.96265643  0.77770701  0.40228043  1  0.439039  0  0.086313  0.269155  0  4.054874  0
C  C299  1  0.03734292  0.22229178  0.59771851  1  0.43926  0  0.086375  0.269275  0  4.054814  0
C  C300  1  0.98734828  0.76385971  0.47191174  1  -0.063248  0  -0.103897  -0.20797  0  3.994946  0
C  C301  1  0.01265170  0.23613966  0.52808786  1  -0.063206  0  -0.103865  -0.207938  0  3.995024  0
C  C302  1  0.91703816  0.78418576  0.52836740  1  0.040068  0  -0.074007  -0.061828  0  3.983953  0
C  C303  1  0.08296234  0.21581477  0.47163160  1  0.040091  0  -0.074006  -0.061831  0  3.983933  0
C  C304  1  0.82116744  0.81870837  0.51658638  1  -0.062344  0  -0.033552  -0.082358  0  4.017472  0
C  C305  1  0.17883213  0.18129330  0.48341386  1  -0.06224  0  -0.033558  -0.082391  0  4.0176  0
C  C306  1  0.79841097  0.83398767  0.44607269  1  -0.018156  0  -0.083962  -0.063624  0  4.005338  0
C  C307  1  0.20159006  0.16601401  0.55392673  1  -0.018322  0  -0.084021  -0.063698  0  4.005453  0
C  C308  1  0.86813600  0.81396784  0.38868265  1  -0.102247  0  -0.116067  -0.232729  0  4.010792  0
C  C309  1  0.13186408  0.18603095  0.61131768  1  -0.102089  0  -0.11602  -0.232688  0  4.010678  0
C  C310  1  0.74388387  0.83556482  0.57940692  1  1.538547  0  0.202911  0.59068  0  4.240536  0
C  C311  1  0.25611633  0.16443743  0.42059295  1  1.538579  0  0.202885  0.590662  0  4.240615  0
C  C312  1  0.15038804  0.45330554  0.69747736  1  -0.015352  0  -0.116631  -0.235555  0  4.032601  0
C  C313  1  0.84960871  0.54669555  0.30252373  1  -0.015128  0  -0.116592  -0.235508  0  4.032532  0
C  C314  1  0.64050576  0.25721818  0.57204698  1  -0.04342  0  -0.116338  -0.23167  0  4.015714  0
C  C315  1  0.35949172  0.74278291  0.42795446  1  -0.043393  0  -0.116287  -0.23175  0  4.015809  0
N  N316  1  0.37555784  0.46949663  0.94839363  1  -1.200291  0  -0.283271  0.027634  0  3.717059  0
N  N317  1  0.62444444  0.53050216  0.05160521  1  -1.200228  0  -0.283246  0.027567  0  3.71704  0
N  N318  1  0.12425140  0.58961293  0.96316343  1  -1.207653  0  -0.276102  0.034199  0  3.720922  0
N  N319  1  0.87574921  0.41038701  0.03683579  1  -1.207355  0  -0.276108  0.034138  0  3.72086  0
N  N320  1  0.93786128  0.99621522  0.60136031  1  -1.216014  0  -0.278732  0.029906  0  3.720546  0
N  N321  1  0.06213724  0.00378415  0.39864011  1  -1.216538  0  -0.278736  0.029873  0  3.720458  0
N  N322  1  0.40036841  0.91126200  0.53508662  1  -1.213804  0  -0.2693  0.046292  0  3.713218  0
N  N323  1  0.59963242  0.08874085  0.46491082  1  -1.213446  0  -0.269221  0.046209  0  3.713079  0
O  O324  1  0.64336368  0.28807177  0.07624654  1  -1.204558  0  -0.374992  -0.633574  0  2.162651  0
O  O325  1  0.35663536  0.71192876  0.92375174  1  -1.204688  0  -0.374953  -0.633523  0  2.162827  0
O  O326  1  0.55533047  0.19439260  0.16594432  1  -1.244476  0  -0.420659  -0.675497  0  2.24693  0
O  O327  1  0.44467034  0.80560620  0.83405380  1  -1.244533  0  -0.420707  -0.67557  0  2.246888  0
O  O328  1  0.47723334  0.20597816  0.85457078  1  -1.086533  0  -0.207129  -0.246652  0  2.51711  0
O  O329  1  0.52276350  0.79401827  0.14543428  1  -1.086567  0  -0.207136  -0.246722  0  2.517124  0
O  O330  1  0.28644884  0.15944855  0.79407537  1  -1.078578  0  -0.181785  -0.198572  0  2.547599  0
O  O331  1  0.71355010  0.84055255  0.20592577  1  -1.078722  0  -0.181743  -0.198566  0  2.54752  0
O  O332  1  0.31892026  0.39322092  0.71327936  1  -1.087373  0  -0.180799  -0.203528  0  2.576153  0
O  O333  1  0.68107920  0.60677727  0.28672340  1  -1.087446  0  -0.180693  -0.203467  0  2.576185  0
O  O334  1  0.92440684  0.63501046  0.71874316  1  -1.199434  0  -0.372584  -0.614189  0  2.148701  0
O  O335  1  0.07559273  0.36499121  0.28125862  1  -1.199416  0  -0.372616  -0.614251  0  2.148695  0
O  O336  1  0.02728767  0.68992253  0.74085392  1  -1.246186  0  -0.423157  -0.689284  0  2.279624  0
O  O337  1  0.97271222  0.31008147  0.25914478  1  -1.246079  0  -0.42311  -0.689247  0  2.279669  0
O  O338  1  0.47233013  0.31302453  0.61769213  1  -1.081117  0  -0.179111  -0.199115  0  2.575771  0
O  O339  1  0.52766691  0.68697076  0.38231287  1  -1.081196  0  -0.17926  -0.199273  0  2.575512  0
O  O340  1  0.82366951  0.18300104  0.39712012  1  -1.214414  0  -0.365308  -0.616395  0  2.160708  0
O  O341  1  0.17632912  0.81700177  0.60288292  1  -1.214129  0  -0.365355  -0.616484  0  2.160696  0
O  O342  1  0.72867823  0.26280090  0.31265778  1  -1.248208  0  -0.425153  -0.689871  0  2.260405  0
O  O343  1  0.27132133  0.73719672  0.68734366  1  -1.248197  0  -0.425152  -0.689852  0  2.260374  0
O  O344  1  0.35876746  0.58782088  0.84718576  1  -1.191699  0  -0.337441  -0.504242  0  2.260774  0
O  O345  1  0.64123222  0.41218020  0.15281625  1  -1.191762  0  -0.337456  -0.504276  0  2.260769  0
O  O346  1  0.22657866  0.86084788  0.75668998  1  -1.243924  0  -0.415596  -0.691288  0  2.292348  0
O  O347  1  0.77342415  0.13915204  0.24331236  1  -1.243986  0  -0.415565  -0.691189  0  2.292392  0
O  O348  1  0.07012988  0.91093393  0.79068410  1  -1.212419  0  -0.360621  -0.609551  0  2.178152  0
O  O349  1  0.92987460  0.08906892  0.20931308  1  -1.212146  0  -0.360452  -0.609234  0  2.178364  0
O  O350  1  0.16601554  0.70270717  0.86157208  1  -1.22322  0  -0.359734  -0.55124  0  2.359499  0
O  O351  1  0.83398601  0.29729162  0.13842743  1  -1.223227  0  -0.359705  -0.551221  0  2.359526  0
O  O352  1  0.94445508  0.86471039  0.67037453  1  -1.206986  0  -0.347069  -0.532795  0  2.332716  0
O  O353  1  0.05554564  0.13528898  0.32962440  1  -1.206985  0  -0.347059  -0.532788  0  2.332712  0
O  O354  1  0.43840753  0.84802467  0.65514713  1  -1.232501  0  -0.380215  -0.572469  0  2.350091  0
O  O355  1  0.56159204  0.15197702  0.34485158  1  -1.232611  0  -0.380263  -0.572557  0  2.350053  0
O  O356  1  0.92214614  0.77795793  0.83970616  1  -1.242746  0  -0.434318  -0.683328  0  2.316836  0
O  O357  1  0.07785760  0.22204085  0.16029391  1  -1.242751  0  -0.434349  -0.683308  0  2.316775  0
O  O358  1  0.83230765  0.68095240  0.91666509  1  -1.20643  0  -0.364851  -0.621564  0  2.08589  0
O  O359  1  0.16769442  0.31904756  0.08333229  1  -1.206408  0  -0.364856  -0.621578  0  2.085795  0
O  O360  1  0.01314670  0.71749926  0.16052156  1  -1.091644  0  -0.184247  -0.212902  0  2.573593  0
O  O361  1  0.98684952  0.28250067  0.83947961  1  -1.091592  0  -0.184299  -0.212897  0  2.573525  0
O  O362  1  0.14575871  0.87066501  0.19618445  1  -1.082973  0  -0.180945  -0.197344  0  2.544699  0
O  O363  1  0.85424242  0.12933612  0.80381160  1  -1.082574  0  -0.180938  -0.197432  0  2.544816  0
O  O364  1  0.29932396  0.14136341  0.21884563  1  -1.236114  0  -0.417317  -0.679037  0  2.237141  0
O  O365  1  0.70067718  0.85863770  0.78115350  1  -1.236084  0  -0.417298  -0.678956  0  2.237128  0
O  O366  1  0.40792931  0.04031125  0.27392493  1  -1.218706  0  -0.388391  -0.623611  0  2.113533  0
O  O367  1  0.59206671  0.95968983  0.72607785  1  -1.218747  0  -0.388355  -0.623474  0  2.113638  0
O  O368  1  0.24375054  0.64295175  0.22179927  1  -1.08726  0  -0.189893  -0.221951  0  2.556545  0
O  O369  1  0.75625038  0.35704646  0.77820010  1  -1.086959  0  -0.189908  -0.221978  0  2.556394  0
O  O370  1  0.32885505  0.30639292  0.21070317  1  -1.233135  0  -0.399467  -0.66042  0  2.214339  0
O  O371  1  0.67114765  0.69360763  0.78929331  1  -1.233111  0  -0.399465  -0.660377  0  2.214429  0
O  O372  1  0.46277344  0.30632536  0.24808366  1  -1.236388  0  -0.399755  -0.67319  0  2.228043  0
O  O373  1  0.53722810  0.69367341  0.75191738  1  -1.236322  0  -0.399704  -0.673148  0  2.228097  0
O  O374  1  0.03551497  0.75349847  0.35109496  1  -1.080892  0  -0.180634  -0.203169  0  2.561981  0
O  O375  1  0.96448595  0.24649974  0.64890492  1  -1.081005  0  -0.18068  -0.203223  0  2.561943  0
O  O376  1  0.76711222  0.81711700  0.64430541  1  -1.245595  0  -0.431056  -0.691173  0  2.322187  0
O  O377  1  0.23288986  0.18288295  0.35569453  1  -1.245665  0  -0.431041  -0.691154  0  2.322188  0
O  O378  1  0.65706909  0.86644961  0.56849874  1  -1.217561  0  -0.366184  -0.625791  0  2.181587  0
O  O379  1  0.34293132  0.13355147  0.43150362  1  -1.217545  0  -0.366189  -0.625825  0  2.18159  0
