# generated using pymatgen
data_CuH13C18N3O4
_symmetry_space_group_name_H-M   'P 1'
_cell_length_a   7.96528008
_cell_length_b   9.92716854
_cell_length_c   10.52407947
_cell_angle_alpha   105.57478438
_cell_angle_beta   94.55956433
_cell_angle_gamma   97.82396026
_symmetry_Int_Tables_number   1
_chemical_formula_structural   CuH13C18N3O4
_chemical_formula_sum   'Cu2 H26 C36 N6 O8'
_cell_volume   788.25510761
_cell_formula_units_Z   2
loop_
 _symmetry_equiv_pos_site_id
 _symmetry_equiv_pos_as_xyz
  1  'x, y, z'
loop_
 _atom_site_type_symbol
 _atom_site_label
 _atom_site_symmetry_multiplicity
 _atom_site_fract_x
 _atom_site_fract_y
 _atom_site_fract_z
 _atom_site_occupancy
 _atom_site_hle17_ddec_charge
 _atom_site_hle17_ddec_spin_density
 _atom_site_hle17_ddec_sum_bond_order
 _atom_site_hle17_magmom
 _atom_site_hse06_10hf_ddec_charge
 _atom_site_hse06_10hf_ddec_spin_density
 _atom_site_hse06_10hf_ddec_sum_bond_order
 _atom_site_hse06_10hf_magmom
 _atom_site_hse06_ddec_charge
 _atom_site_hse06_ddec_spin_density
 _atom_site_hse06_ddec_sum_bond_order
 _atom_site_hse06_magmom
 _atom_site_pbe_cm5_charge
 _atom_site_pbe_ddec_charge
 _atom_site_pbe_ddec_spin_density
 _atom_site_pbe_ddec_sum_bond_order
 _atom_site_pbe_magmom
Cu  Cu0  1  0.58441361  0.89656572  0.73568034  1  0.849784  0.719371  1.80592  0.504  0.822675  0.802718  2.202948  0.622  0.920318  0.879636  2.124917  0.709  0.748875  0.76276  0.746797  2.256156  0.564
Cu  Cu1  1  0.41558023  0.10341983  0.26430162  1  0.849839  -0.7194  1.805976  -0.504  0.822654  -0.802727  2.203128  -0.622  0.920403  -0.879651  2.124913  -0.709  0.748891  0.762716  -0.746804  2.256307  -0.564
H  H2  1  0.10886457  0.95966468  0.86539144  1  0.32504  -0.000182  0.840022  0.0  0.315753  -0.000114  0.887104  0.0  0.322324  -9.9e-05  0.88257  0.0  0.337253  0.311265  -0.000118  0.889973  0.0
H  H3  1  0.89113920  0.04032994  0.13463004  1  0.325128  0.000182  0.839935  0.0  0.315781  0.000114  0.887046  0.0  0.322388  9.9e-05  0.882515  0.0  0.337292  0.311287  0.000118  0.889915  0.0
H  H4  1  0.56619772  0.61825182  0.57645046  1  0.087822  0.000892  0.941933  0.002  0.095928  0.000994  1.006194  0.002  0.097897  0.000724  1.003768  0.001  0.120877  0.094358  0.001185  1.00766  0.002
H  H5  1  0.43381631  0.38176303  0.42352555  1  0.087815  -0.000891  0.941984  -0.002  0.095935  -0.000993  1.006211  -0.002  0.097902  -0.000723  1.003796  -0.001  0.120867  0.094361  -0.001183  1.007675  -0.002
H  H6  1  0.74536563  0.42272341  0.54203764  1  0.12915  0.000528  0.970579  0.001  0.137168  0.000451  1.032206  0.001  0.14107  0.000325  1.030728  0.0  0.107404  0.133815  0.000517  1.034751  0.001
H  H7  1  0.25463025  0.57727999  0.45797861  1  0.12918  -0.000527  0.970551  -0.001  0.137166  -0.000451  1.032231  -0.001  0.141062  -0.000325  1.030755  0.0  0.10741  0.133822  -0.000517  1.034768  -0.001
H  H8  1  0.05132352  0.48719341  0.65117793  1  0.085312  0.000207  0.946327  0.0  0.100064  7.8e-05  1.001955  0.0  0.101982  2.4e-05  1.000568  0.0  0.10697  0.099317  0.000163  1.001638  0.0
H  H9  1  0.94866387  0.51277492  0.34886210  1  0.085479  -0.00021  0.946521  0.0  0.1002  -7.9e-05  1.002146  0.0  0.102119  -2.4e-05  1.000757  0.0  0.106915  0.099451  -0.000163  1.001836  0.0
H  H10  1  0.16334285  0.73418248  0.78403706  1  0.14069  0.000589  0.96045  0.001  0.149472  0.000526  1.017473  0.001  0.154577  0.000345  1.015139  0.0  0.112359  0.145797  0.000676  1.019702  0.001
H  H11  1  0.83666011  0.26581200  0.21599863  1  0.140807  -0.000588  0.960439  -0.001  0.149522  -0.000526  1.017514  -0.001  0.154633  -0.000345  1.015167  0.0  0.112344  0.145844  -0.000676  1.019744  -0.001
H  H12  1  0.15617413  0.18794282  0.94640819  1  0.131389  0.000623  1.010745  0.001  0.137905  0.000568  1.07416  0.001  0.14263  0.000401  1.071705  0.001  0.108655  0.134262  0.00071  1.076243  0.001
H  H13  1  0.84381870  0.81206780  0.05357642  1  0.131427  -0.00063  1.010652  -0.001  0.137855  -0.000568  1.074176  -0.001  0.14258  -0.000402  1.071721  -0.001  0.108672  0.134219  -0.00071  1.076262  -0.001
H  H14  1  0.06809104  0.42016626  0.94691266  1  0.086302  0.000332  0.963347  0.001  0.099154  8.4e-05  1.022554  0.0  0.100827  2.8e-05  1.021607  0.0  0.103978  0.098023  0.00016  1.023092  0.0
H  H15  1  0.93189128  0.57982662  0.05304316  1  0.086399  -0.000333  0.963291  -0.001  0.099312  -8.5e-05  1.022397  0.0  0.10097  -2.8e-05  1.021494  0.0  0.104022  0.09816  -0.00016  1.022968  0.0
H  H16  1  0.77343084  0.42015096  0.83375550  1  0.102161  0.000392  0.964403  0.0  0.113099  0.000405  1.023666  0.0  0.114868  0.00029  1.026128  0.0  0.10338  0.110715  0.000461  1.024493  0.0
H  H17  1  0.22654486  0.57984580  0.16621541  1  0.102131  -0.000394  0.964798  0.0  0.113058  -0.000405  1.02404  0.0  0.11483  -0.000289  1.026491  0.0  0.103371  0.110667  -0.000461  1.024866  0.0
H  H18  1  0.58700891  0.18585902  0.72930582  1  0.092758  0.000869  0.95903  0.002  0.100883  0.000858  1.020484  0.002  0.103011  0.000611  1.018444  0.001  0.120616  0.098937  0.001081  1.022491  0.002
H  H19  1  0.41298150  0.81412467  0.27069732  1  0.092812  -0.000869  0.958785  -0.002  0.10089  -0.000858  1.020307  -0.002  0.103018  -0.000611  1.018277  -0.001  0.120559  0.098948  -0.001081  1.022306  -0.002
H  H20  1  0.03845745  0.74757792  0.43365098  1  0.087339  -5e-05  0.967958  0.0  0.098416  -7e-06  1.032422  0.0  0.100688  -8e-06  1.032178  0.0  0.09932  0.096722  -3e-06  1.032859  0.0
H  H21  1  0.96152381  0.25241624  0.56635759  1  0.087392  5.1e-05  0.967951  0.0  0.098422  7e-06  1.032459  0.0  0.100693  8e-06  1.032215  0.0  0.099302  0.09673  3e-06  1.032895  0.0
H  H22  1  0.23307057  0.18191782  0.64395519  1  0.094582  5.3e-05  0.952248  0.0  0.108919  5.6e-05  1.009018  0.0  0.11154  3.8e-05  1.007998  0.0  0.10256  0.106999  8.2e-05  1.009997  0.0
H  H23  1  0.76692940  0.81809215  0.35603225  1  0.094566  -4.9e-05  0.952323  0.0  0.108885  -5.6e-05  1.009125  0.0  0.111515  -3.8e-05  1.008077  0.0  0.102555  0.106962  -8.2e-05  1.010115  0.0
H  H24  1  0.63321985  0.73579233  0.14981127  1  0.100801  -3.6e-05  0.971378  0.0  0.107657  -2.1e-05  1.039877  0.0  0.111591  -5e-06  1.036826  0.0  0.104403  0.104637  -7e-05  1.042269  0.0
H  H25  1  0.36677468  0.26423464  0.85021686  1  0.100812  3.6e-05  0.971642  0.0  0.10763  2.1e-05  1.040159  0.0  0.111562  5e-06  1.037112  0.0  0.104427  0.104613  7e-05  1.042538  0.0
H  H26  1  0.38070364  0.48197502  0.76910698  1  0.099395  0.000107  0.943489  0.0  0.110454  9.9e-05  1.001992  0.0  0.113966  5.1e-05  1.000026  0.0  0.102555  0.107697  0.000136  1.003647  0.0
H  H27  1  0.61933595  0.51804364  0.23090025  1  0.099452  -0.000106  0.943458  0.0  0.110508  -9.9e-05  1.001954  0.0  0.114018  -5.1e-05  0.999991  0.0  0.1026  0.107748  -0.000136  1.003607  0.0
C  C28  1  0.69918912  0.63674937  0.61958736  1  0.13415  -0.003279  3.719802  -0.004  0.104761  0.000941  3.975441  0.0  0.114832  -7e-05  3.995436  -0.001  0.041915  0.099437  0.001942  3.959814  0.001
C  C29  1  0.30082525  0.36326655  0.38040518  1  0.134019  0.003303  3.719398  0.004  0.104642  -0.000944  3.975029  0.0  0.1147  6.9e-05  3.995039  0.001  0.041872  0.099324  -0.001944  3.959396  -0.001
C  C30  1  0.79858650  0.53079061  0.60082041  1  -0.167232  0.006888  3.750953  0.007  -0.180924  0.003515  4.004152  0.004  -0.190645  0.002963  4.025159  0.004  -0.099986  -0.173497  0.003851  3.990098  0.005
C  C31  1  0.20142951  0.46921914  0.39918844  1  -0.167029  -0.006915  3.750754  -0.007  -0.180702  -0.003512  4.003967  -0.004  -0.190411  -0.002963  4.024973  -0.004  -0.099912  -0.173281  -0.003848  3.989916  -0.005
C  C32  1  0.96765609  0.56680020  0.66320491  1  0.01937  -0.004455  3.755452  -0.004  0.000704  -0.001205  4.005074  -0.001  0.008203  -0.001477  4.02145  -0.002  -0.066784  -0.004389  -0.001023  3.993915  -0.001
C  C33  1  0.03233921  0.43319279  0.33681121  1  0.019017  0.004484  3.756075  0.004  0.00035  0.001204  4.005671  0.001  0.007853  0.001477  4.022032  0.002  -0.066834  -0.004746  0.001021  3.994513  0.001
C  C34  1  0.03053529  0.70407606  0.73877694  1  -0.216218  0.006352  3.671616  0.007  -0.229872  0.003178  3.917205  0.004  -0.240652  0.002734  3.93455  0.003  -0.08914  -0.225431  0.003473  3.907962  0.004
C  C35  1  0.96946380  0.29593390  0.26124291  1  -0.216456  -0.006386  3.671685  -0.007  -0.229988  -0.00318  3.917247  -0.004  -0.240758  -0.002737  3.934559  -0.003  -0.089118  -0.225549  -0.003475  3.908005  -0.004
C  C36  1  0.92086405  0.80595222  0.75264765  1  0.427502  -0.00255  3.789893  -0.003  0.400539  0.000111  4.051742  -0.001  0.420751  -0.000842  4.067473  -0.002  0.233928  0.386629  0.00085  4.041608  0.0
C  C37  1  0.07915333  0.19403681  0.24736134  1  0.427879  0.002576  3.789328  0.003  0.400806  -0.000108  4.051248  0.001  0.421078  0.000845  4.066965  0.002  0.233994  0.386891  -0.000847  4.041116  0.0
C  C38  1  0.92047420  0.06759867  0.83428823  1  0.428387  -0.002991  3.766995  -0.003  0.402557  0.000526  4.028948  0.0  0.422844  -0.000611  4.043677  -0.001  0.231815  0.388011  0.001443  4.020042  0.001
C  C39  1  0.07952815  0.93239526  0.16570707  1  0.428543  0.002972  3.767674  0.003  0.402663  -0.000526  4.029543  0.0  0.422991  0.000611  4.044269  0.001  0.231918  0.388127  -0.001443  4.020653  -0.001
C  C40  1  0.03104553  0.19440734  0.89993927  1  -0.229876  0.009518  3.708436  0.01  -0.247953  0.004667  3.95962  0.005  -0.259262  0.004132  3.97803  0.005  -0.097765  -0.239755  0.005088  3.947637  0.006
C  C41  1  0.96896109  0.80559770  0.10004916  1  -0.229751  -0.009482  3.708395  -0.01  -0.247781  -0.004668  3.959646  -0.005  -0.259082  -0.004134  3.978042  -0.005  -0.097639  -0.239585  -0.005089  3.94767  -0.006
C  C42  1  0.98004304  0.32199211  0.90010997  1  0.003144  -0.007214  3.765766  -0.007  -0.013336  -0.002662  4.010918  -0.003  -0.006034  -0.002787  4.027831  -0.003  -0.074616  -0.018301  -0.002561  3.999107  -0.002
C  C43  1  0.01994639  0.67800137  0.09986806  1  0.00261  0.007194  3.766169  0.007  -0.013892  0.002664  4.01127  0.003  -0.006598  0.002788  4.028178  0.003  -0.074877  -0.01884  0.002561  3.999474  0.002
C  C44  1  0.81894552  0.32251337  0.83708095  1  -0.14975  0.008332  3.762607  0.009  -0.163034  0.003715  4.013355  0.004  -0.173154  0.00331  4.035976  0.004  -0.098127  -0.158171  0.004109  4.001843  0.005
C  C45  1  0.18102909  0.67746542  0.16290175  1  -0.149264  -0.008291  3.76319  -0.009  -0.162555  -0.003714  4.013821  -0.004  -0.172666  -0.003308  4.036449  -0.004  -0.097948  -0.157681  -0.004107  4.002293  -0.005
C  C46  1  0.71438441  0.19359307  0.77849592  1  0.159758  -0.006543  3.689406  -0.007  0.129864  -0.001373  3.943284  -0.002  0.141141  -0.002345  3.961138  -0.003  0.049416  0.122229  -0.000609  3.933919  -0.001
C  C47  1  0.28558383  0.80639166  0.22148506  1  0.159183  0.006515  3.68912  0.007  0.129322  0.001376  3.942968  0.002  0.140584  0.002348  3.960841  0.003  0.049221  0.121704  0.00061  3.933606  0.001
C  C48  1  0.31203366  0.91473651  0.59008821  1  0.620396  -0.003782  3.910258  -0.007  0.577847  0.000198  4.213142  -0.002  0.614  -0.000155  4.208495  -0.002  0.194168  0.553124  0.000485  4.215375  -0.002
C  C49  1  0.68796820  0.08526717  0.40991363  1  0.620531  0.003782  3.909806  0.007  0.577996  -0.000194  4.212669  0.002  0.614149  0.000153  4.208029  0.002  0.194249  0.553267  -0.000485  4.214908  0.002
C  C50  1  0.15161891  0.95989946  0.54381242  1  -0.045982  0.005858  3.738664  0.006  -0.025403  0.003129  3.974294  0.003  -0.030706  0.002365  3.99417  0.003  -0.01752  -0.021713  0.003513  3.960422  0.004
C  C51  1  0.84837298  0.04008973  0.45617856  1  -0.04592  -0.005857  3.738836  -0.006  -0.025343  -0.003127  3.97442  -0.003  -0.030641  -0.002363  3.994286  -0.003  -0.017528  -0.021649  -0.003511  3.960554  -0.004
C  C52  1  0.02003596  0.85788911  0.46226879  1  -0.076736  0.000894  3.748311  0.001  -0.102143  0.000813  4.001725  0.001  -0.103399  0.000439  4.023632  0.001  -0.090441  -0.100715  0.001151  3.98645  0.001
C  C53  1  0.97995395  0.14211101  0.53773162  1  -0.076816  -0.000895  3.748295  -0.001  -0.102188  -0.000813  4.001705  -0.001  -0.103444  -0.000439  4.023607  -0.001  -0.09042  -0.100765  -0.001151  3.986429  -0.001
C  C54  1  0.13030660  0.10258648  0.58121203  1  -0.073609  -0.000334  3.729345  -0.001  -0.099688  1.9e-05  3.984899  0.0  -0.100293  -6e-05  4.004593  0.0  -0.088345  -0.099426  0.000147  3.971678  0.0
C  C55  1  0.86967668  0.89742247  0.41878333  1  -0.073618  0.000328  3.729608  0.001  -0.099701  -2e-05  3.985205  0.0  -0.1003  6.1e-05  4.004873  0.0  -0.088325  -0.099432  -0.000148  3.971993  0.0
C  C56  1  0.52913848  0.75104151  0.90613730  1  0.6108  -0.003421  3.919117  -0.007  0.569853  0.000456  4.217145  -0.002  0.604935  -3.3e-05  4.213709  -0.002  0.190362  0.546689  0.000801  4.217596  -0.002
C  C57  1  0.47087810  0.24897024  0.09387010  1  0.610506  0.003424  3.919007  0.007  0.569608  -0.000454  4.217002  0.002  0.604687  3.1e-05  4.213588  0.002  0.190303  0.546435  -0.000802  4.217439  0.002
C  C58  1  0.50819337  0.62167864  0.95520845  1  -0.049136  0.006197  3.745414  0.006  -0.026504  0.003047  3.973391  0.003  -0.03197  0.002155  3.994812  0.003  -0.016509  -0.022915  0.003501  3.958313  0.004
C  C59  1  0.49181270  0.37834018  0.04480067  1  -0.048944  -0.006191  3.745201  -0.006  -0.026362  -0.00305  3.9732  -0.003  -0.031824  -0.002153  3.994617  -0.003  -0.016472  -0.022767  -0.0035  3.958095  -0.004
C  C60  1  0.57632247  0.63149397  0.08504121  1  -0.086743  0.000219  3.754189  0.0  -0.108799  0.000691  4.004672  0.001  -0.110861  0.000392  4.02579  0.0  -0.08508  -0.106858  0.000992  3.989605  0.001
C  C61  1  0.42368692  0.36851967  0.91498274  1  -0.086829  -0.000224  3.754627  0.0  -0.108865  -0.000688  4.005131  -0.001  -0.110924  -0.000392  4.026244  0.0  -0.085103  -0.106921  -0.000992  3.990053  -0.001
C  C62  1  0.43143330  0.48891411  0.87042303  1  -0.083965  -0.00078  3.737886  -0.001  -0.105074  4.2e-05  3.986152  0.0  -0.105797  -2e-05  4.005583  0.0  -0.087836  -0.104316  0.000206  3.972706  0.0
C  C63  1  0.56857976  0.51109912  0.12959275  1  -0.084023  0.000781  3.737795  0.001  -0.105114  -4.1e-05  3.986079  0.0  -0.105839  2e-05  4.005508  0.0  -0.087847  -0.104345  -0.000205  3.972625  0.0
N  N64  1  0.75795746  0.77126295  0.69514376  1  -0.406046  0.070735  3.329346  0.086  -0.358116  0.053207  3.624564  0.069  -0.393081  0.044503  3.644461  0.061  -0.361552  -0.334826  0.057647  3.611044  0.071
N  N65  1  0.24205155  0.22872994  0.30484847  1  -0.406243  -0.070744  3.328838  -0.086  -0.358318  -0.053204  3.62418  -0.069  -0.393295  -0.044498  3.644044  -0.061  -0.361709  -0.335019  -0.057641  3.610646  -0.071
N  N66  1  0.76193949  0.06799462  0.77846808  1  -0.397352  0.076103  3.285987  0.093  -0.351774  0.057245  3.586574  0.075  -0.386418  0.047674  3.60338  0.066  -0.35536  -0.331871  0.062902  3.578419  0.079
N  N67  1  0.23804186  0.93200719  0.22151418  1  -0.397084  -0.076066  3.285893  -0.093  -0.351403  -0.057234  3.586373  -0.075  -0.386044  -0.047664  3.603155  -0.066  -0.355233  -0.331527  -0.062885  3.578235  -0.079
N  N68  1  0.98341053  0.94290038  0.82767094  1  -0.442412  -0.000174  3.317243  0.001  -0.391983  0.000497  3.560173  0.002  -0.413304  3.1e-05  3.568065  0.001  -0.386546  -0.376573  0.000827  3.554159  0.002
N  N69  1  0.01659215  0.05708232  0.17234336  1  -0.442664  0.000174  3.317515  -0.001  -0.392104  -0.000496  3.560425  -0.002  -0.413659  -3.2e-05  3.568599  -0.001  -0.386624  -0.376681  -0.000829  3.554395  -0.002
O  O70  1  0.38987659  0.99206128  0.70514237  1  -0.584749  0.098198  2.012825  0.126  -0.562576  0.055883  2.295922  0.079  -0.605845  0.041641  2.287772  0.062  -0.331294  -0.532942  0.065322  2.301029  0.088
O  O71  1  0.61011874  0.00793324  0.29484915  1  -0.584904  -0.098218  2.012596  -0.126  -0.562726  -0.055892  2.295707  -0.079  -0.606022  -0.041639  2.287544  -0.062  -0.331341  -0.533081  -0.06533  2.3008  -0.088
O  O72  1  0.36395172  0.80780093  0.52134412  1  -0.611344  0.004436  1.907065  0.007  -0.576853  0.002214  2.137598  0.004  -0.603917  0.000453  2.12869  0.001  -0.322346  -0.557655  0.004242  2.14407  0.006
O  O73  1  0.63604708  0.19220393  0.47864505  1  -0.611385  -0.004427  1.906962  -0.007  -0.576886  -0.002211  2.137486  -0.004  -0.603957  -0.000453  2.128579  -0.001  -0.322396  -0.557682  -0.004238  2.143939  -0.006
O  O74  1  0.44415097  0.74040663  0.79242710  1  -0.603743  0.093293  2.018854  0.119  -0.577563  0.054012  2.287308  0.076  -0.621329  0.039824  2.282623  0.059  -0.329943  -0.547586  0.063235  2.289532  0.085
O  O75  1  0.55586299  0.25958097  0.20757730  1  -0.603611  -0.093296  2.019051  -0.119  -0.577429  -0.054021  2.287468  -0.076  -0.621214  -0.039827  2.282776  -0.059  -0.32979  -0.547446  -0.063248  2.289672  -0.085
O  O76  1  0.63371835  0.85921341  0.97028717  1  -0.591102  0.002122  1.93077  0.004  -0.561998  0.001017  2.166625  0.002  -0.587224  1e-06  2.157352  0.001  -0.321595  -0.544421  0.002322  2.171454  0.004
O  O77  1  0.36630945  0.14078808  0.02970078  1  -0.591019  -0.002129  1.930495  -0.004  -0.561923  -0.00102  2.166295  -0.002  -0.587162  -2e-06  2.157034  -0.001  -0.321697  -0.544342  -0.002326  2.171114  -0.004
