# generated using pymatgen
data_ZnH22C32(NO2)4
_symmetry_space_group_name_H-M   'P 1'
_cell_length_a   10.10567633
_cell_length_b   12.86932962
_cell_length_c   12.44291464
_cell_angle_alpha   78.67297378
_cell_angle_beta   87.06080418
_cell_angle_gamma   74.87376916
_symmetry_Int_Tables_number   1
_chemical_formula_structural   ZnH22C32(NO2)4
_chemical_formula_sum   'Zn2 H44 C64 N8 O16'
_cell_volume   1531.74720926
_cell_formula_units_Z   2
loop_
 _symmetry_equiv_pos_site_id
 _symmetry_equiv_pos_as_xyz
  1  'x, y, z'
loop_
 _atom_site_type_symbol
 _atom_site_label
 _atom_site_symmetry_multiplicity
 _atom_site_fract_x
 _atom_site_fract_y
 _atom_site_fract_z
 _atom_site_occupancy
 _atom_site_pbe_bader_charge
 _atom_site_pbe_bader_spin_density
 _atom_site_pbe_cm5_charge
 _atom_site_pbe_ddec_charge
 _atom_site_pbe_ddec_spin_density
 _atom_site_pbe_ddec_sum_bond_order
 _atom_site_pbe_magmom
Zn  Zn0  1  0.96144570  0.33258855  0.16293630  1  1.24403  0  0.692984  0.741655  0  2.364635  0
Zn  Zn1  1  0.03855738  0.66741182  0.83706626  1  1.244004  0  0.693006  0.741696  0  2.3647  0
H  H2  1  0.55766949  0.38344424  0.72998421  1  0.614401  0  0.334579  0.368823  0  0.872975  0
H  H3  1  0.44232921  0.61656437  0.27001042  1  0.614447  0  0.334672  0.368928  0  0.872891  0
H  H4  1  0.11099208  0.69343314  0.06520495  1  0.515213  0  0.304781  0.281628  0  1.008274  0
H  H5  1  0.88899887  0.30657160  0.93479970  1  0.515234  0  0.304786  0.281693  0  1.008181  0
H  H6  1  0.66593117  0.15380476  0.46115631  1  0.465654  0  0.321492  0.271885  0  0.948513  0
H  H7  1  0.33407435  0.84619392  0.53884327  1  0.465565  0  0.321512  0.271897  0  0.948545  0
H  H8  1  0.82239084  0.43025338  0.35509143  1  0.095745  0  0.12086  0.093458  0  0.988253  0
H  H9  1  0.17760972  0.56974543  0.64491237  1  0.095758  0  0.120881  0.093449  0  0.988248  0
H  H10  1  0.82676575  0.59314126  0.43704704  1  0.08551  0  0.118287  0.125703  0  0.970391  0
H  H11  1  0.17323008  0.40685686  0.56295954  1  0.085574  0  0.118248  0.125717  0  0.970402  0
H  H12  1  0.95438953  0.72655665  0.33990005  1  0.108338  0  0.11766  0.134394  0  0.981168  0
H  H13  1  0.04559967  0.27344732  0.66010564  1  0.108595  0  0.117675  0.134436  0  0.981123  0
H  H14  1  0.06944843  0.52205332  0.09639146  1  0.131792  0  0.125241  0.110142  0  1.003294  0
H  H15  1  0.93054511  0.47795624  0.90361127  1  0.131891  0  0.125205  0.110071  0  1.003278  0
H  H16  1  0.04765905  0.85164562  0.97140853  1  0.106683  0  0.108035  0.103532  0  1.020177  0
H  H17  1  0.95232587  0.14836660  0.02860289  1  0.106773  0  0.108019  0.103526  0  1.020156  0
H  H18  1  0.11569528  0.99144382  0.82794575  1  0.086869  0  0.101004  0.112727  0  1.042598  0
H  H19  1  0.88430659  0.00855740  0.17205910  1  0.08691  0  0.101021  0.112759  0  1.042705  0
H  H20  1  0.33492839  0.89027017  0.19580495  1  0.072902  0  0.102607  0.100574  0  1.037924  0
H  H21  1  0.66507512  0.10972532  0.80420181  1  0.07281  0  0.102615  0.100518  0  1.037976  0
H  H22  1  0.39482184  0.03730975  0.05281377  1  0.104166  0  0.105671  0.119082  0  1.024364  0
H  H23  1  0.60519718  0.96267640  0.94718936  1  0.105003  0  0.105623  0.118996  0  1.024476  0
H  H24  1  0.43479004  0.89355721  0.83159010  1  0.093128  0  0.102264  0.116487  0  1.033914  0
H  H25  1  0.56521281  0.10643664  0.16840095  1  0.093186  0  0.102254  0.116502  0  1.033925  0
H  H26  1  0.60944440  0.85362234  0.68770826  1  0.151383  0  0.108543  0.124123  0  1.019956  0
H  H27  1  0.39054991  0.14637008  0.31228028  1  0.151417  0  0.108546  0.124099  0  1.019854  0
H  H28  1  0.36335372  0.23986084  0.69986393  1  0.118906  0  0.107445  0.124475  0  1.027673  0
H  H29  1  0.63665590  0.76013042  0.30013699  1  0.118851  0  0.107451  0.124495  0  1.027647  0
H  H30  1  0.53007862  0.20136923  0.55543132  1  0.042126  0  0.107112  0.097711  0  0.996568  0
H  H31  1  0.46992026  0.79862472  0.44456151  1  0.042095  0  0.107123  0.097725  0  0.996555  0
H  H32  1  0.45479614  0.32959049  0.18639242  1  0.07355  0  0.103105  0.11471  0  1.016954  0
H  H33  1  0.54519990  0.67041004  0.81360321  1  0.073486  0  0.103101  0.114781  0  1.016861  0
H  H34  1  0.66430198  0.39698259  0.88107958  1  0.056227  0  0.104356  0.113667  0  1.03047  0
H  H35  1  0.33569389  0.60303261  0.11891865  1  0.056139  0  0.104375  0.113702  0  1.030424  0
H  H36  1  0.26515210  0.33459579  0.88247982  1  0.096658  0  0.105324  0.1255  0  1.017108  0
H  H37  1  0.73484606  0.66541121  0.11751437  1  0.096718  0  0.105311  0.125471  0  1.01705  0
H  H38  1  0.15468703  0.11464393  0.21465717  1  0.117034  0  0.11756  0.092823  0  1.016757  0
H  H39  1  0.84531587  0.88536051  0.78534376  1  0.116954  0  0.117564  0.092824  0  1.016826  0
H  H40  1  0.14719729  0.92606509  0.31626604  1  0.140778  0  0.104435  0.114737  0  1.05821  0
H  H41  1  0.85280870  0.07393520  0.68372515  1  0.140816  0  0.104403  0.114663  0  1.058177  0
H  H42  1  0.94387771  0.90375698  0.43249582  1  0.160946  0  0.114365  0.134319  0  1.007153  0
H  H43  1  0.05612766  0.09623844  0.56749319  1  0.160919  0  0.114374  0.13428  0  1.007293  0
H  H44  1  0.76699462  0.25087821  0.32512551  1  0.162214  0  0.11998  0.11135  0  1.042951  0
H  H45  1  0.23301398  0.74912042  0.67488438  1  0.162189  0  0.119981  0.111337  0  1.043023  0
C  C46  1  0.88040861  0.48844275  0.31787562  1  0.44944  0  0.046585  0.077857  0  3.94365  0
C  C47  1  0.11958880  0.51156020  0.68212829  1  0.449604  0  0.046565  0.077925  0  3.94367  0
C  C48  1  0.88245670  0.57952141  0.36167043  1  0.049744  0  -0.079149  -0.117031  0  4.016044  0
C  C49  1  0.11754317  0.42047986  0.63833451  1  0.049635  0  -0.079081  -0.117048  0  4.016041  0
C  C50  1  0.95365844  0.65391088  0.30793819  1  -0.005374  0  -0.065498  -0.121267  0  3.910425  0
C  C51  1  0.04633773  0.34609292  0.69206479  1  -0.005761  0  -0.06549  -0.121317  0  3.91043  0
C  C52  1  0.02165089  0.63481935  0.20972067  1  0.373273  0  0.109697  0.214318  0  4.019757  0
C  C53  1  0.97834250  0.36518370  0.79028099  1  0.373409  0  0.109701  0.214377  0  4.019581  0
C  C54  1  0.01726337  0.54011450  0.17197829  1  0.537309  0  0.053849  0.012685  0  3.862898  0
C  C55  1  0.98273204  0.45988850  0.82802569  1  0.537131  0  0.053862  0.012835  0  3.862811  0
C  C56  1  0.15320813  0.77451012  0.18067738  1  1.369935  0  0.238028  0.47411  0  4.121667  0
C  C57  1  0.84678803  0.22549043  0.81933270  1  1.370828  0  0.238097  0.474161  0  4.121541  0
C  C58  1  0.19011523  0.85903772  0.09262420  1  -0.033785  0  -0.019598  -0.055779  0  3.991445  0
C  C59  1  0.80988090  0.14096283  0.90738347  1  -0.034135  0  -0.019646  -0.055793  0  3.991356  0
C  C60  1  0.12762245  0.88853111  0.98895615  1  -0.142576  0  -0.079284  -0.068335  0  3.972906  0
C  C61  1  0.87237322  0.11147108  0.01105121  1  -0.142481  0  -0.079247  -0.068324  0  3.97275  0
C  C62  1  0.16384379  0.96765067  0.90838619  1  0.068934  0  -0.098213  -0.188636  0  3.976838  0
C  C63  1  0.83616031  0.03234969  0.09161793  1  0.068882  0  -0.098116  -0.188509  0  3.976918  0
C  C64  1  0.28648011  0.91307794  0.11534801  1  0.016579  0  -0.076073  -0.063038  0  3.955227  0
C  C65  1  0.71352363  0.08691673  0.88465811  1  0.015872  0  -0.076166  -0.063075  0  3.955134  0
C  C66  1  0.32145037  0.99388006  0.03580403  1  -0.075074  0  -0.093882  -0.187988  0  3.960453  0
C  C67  1  0.67856273  0.00610949  0.96419868  1  -0.074699  0  -0.093734  -0.187866  0  3.960483  0
C  C68  1  0.26099414  0.01915367  0.93239800  1  0.446479  0  0.08988  0.265903  0  4.027199  0
C  C69  1  0.73901756  0.98084080  0.06760457  1  0.446035  0  0.08975  0.265745  0  4.027368  0
C  C70  1  0.38708511  0.06977419  0.77329595  1  0.411264  0  0.096336  0.278929  0  4.020443  0
C  C71  1  0.61292326  0.93021791  0.22670325  1  0.411342  0  0.096354  0.278983  0  4.02035  0
C  C72  1  0.45508110  0.96055029  0.77011614  1  -0.039225  0  -0.109183  -0.220423  0  3.991283  0
C  C73  1  0.54492134  0.03944521  0.22988102  1  -0.039092  0  -0.109186  -0.220509  0  3.991317  0
C  C74  1  0.55196413  0.93800784  0.68850912  1  -0.069121  0  -0.079988  -0.064129  0  3.95497  0
C  C75  1  0.44802700  0.06198548  0.31148581  1  -0.069331  0  -0.079898  -0.064063  0  3.954729  0
C  C76  1  0.41472926  0.15546382  0.69469825  1  -0.018059  0  -0.099054  -0.191741  0  3.976653  0
C  C77  1  0.58527566  0.84453000  0.30530156  1  -0.017504  0  -0.099024  -0.191742  0  3.97668  0
C  C78  1  0.51137439  0.13157368  0.61400246  1  -0.017823  0  -0.079717  -0.072694  0  4.001711  0
C  C79  1  0.48862283  0.86842276  0.38599476  1  -0.018406  0  -0.079746  -0.072773  0  4.001786  0
C  C80  1  0.58212026  0.02267451  0.60931085  1  -0.004189  0  -0.033129  -0.087523  0  4.034484  0
C  C81  1  0.41787587  0.97731869  0.39068467  1  -0.004008  0  -0.033194  -0.0874  0  4.034594  0
C  C82  1  0.69303421  0.99088445  0.52926435  1  1.360473  0  0.236666  0.471577  0  4.140802  0
C  C83  1  0.30696881  0.00910532  0.47072673  1  1.36009  0  0.236516  0.471301  0  4.141099  0
C  C84  1  0.22303527  0.31249002  0.10533172  1  1.542305  0  0.190537  0.546397  0  4.228805  0
C  C85  1  0.77696104  0.68751295  0.89466017  1  1.542952  0  0.190539  0.546317  0  4.228631  0
C  C86  1  0.34747858  0.33000782  0.04074423  1  -0.060502  0  -0.020286  -0.012832  0  3.99796  0
C  C87  1  0.65251715  0.67000087  0.95925375  1  -0.060604  0  -0.020313  -0.012808  0  3.997944  0
C  C88  1  0.45896225  0.33853771  0.09760603  1  0.018134  0  -0.092845  -0.141604  0  3.963802  0
C  C89  1  0.54103510  0.66146524  0.90239064  1  0.018045  0  -0.092838  -0.141725  0  3.963717  0
C  C90  1  0.57414646  0.36062166  0.04050512  1  0.046625  0  -0.021205  -0.011375  0  4.014015  0
C  C91  1  0.42584608  0.63938792  0.95949765  1  0.046536  0  -0.021212  -0.011443  0  4.014198  0
C  C92  1  0.69275881  0.36652580  0.10415547  1  1.541083  0  0.202068  0.569167  0  4.182624  0
C  C93  1  0.30723683  0.63347639  0.89584948  1  1.54155  0  0.202059  0.569169  0  4.182566  0
C  C94  1  0.57709158  0.37506948  0.92609813  1  -0.065014  0  -0.101452  -0.238006  0  3.972404  0
C  C95  1  0.42290616  0.62493916  0.07390137  1  -0.064953  0  -0.101484  -0.238036  0  3.9724  0
C  C96  1  0.46703413  0.36430925  0.86939764  1  0.44655  0  0.080995  0.320794  0  4.073227  0
C  C97  1  0.53296319  0.63570428  0.13059846  1  0.446396  0  0.081034  0.320797  0  4.073091  0
C  C98  1  0.35153912  0.34207054  0.92641734  1  0.03934  0  -0.093223  -0.196789  0  3.890117  0
C  C99  1  0.64845974  0.65793400  0.07357733  1  0.039435  0  -0.093162  -0.196603  0  3.890026  0
C  C100  1  0.06685685  0.10034635  0.26398668  1  0.455349  0  0.040224  0.073607  0  3.923708  0
C  C101  1  0.93314898  0.89965478  0.73601399  1  0.455551  0  0.040224  0.073634  0  3.92378  0
C  C102  1  0.06289272  0.99730700  0.32208949  1  -0.01779  0  -0.087893  -0.116928  0  4.000453  0
C  C103  1  0.93710977  0.00269175  0.67790539  1  -0.018101  0  -0.087864  -0.116786  0  4.00051  0
C  C104  1  0.94984092  0.98347690  0.38668760  1  -0.073694  0  -0.071534  -0.133443  0  3.903746  0
C  C105  1  0.05016180  0.01652103  0.61330664  1  -0.073311  0  -0.071598  -0.133587  0  3.904151  0
C  C106  1  0.84195110  0.07647761  0.39266370  1  0.3995  0  0.109133  0.217608  0  4.046444  0
C  C107  1  0.15805388  0.92351945  0.60733383  1  0.399377  0  0.109193  0.217834  0  4.046422  0
C  C108  1  0.85124318  0.17718452  0.32900540  1  0.479321  0  0.038056  -0.031525  0  3.895186  0
C  C109  1  0.14876535  0.82281410  0.67099646  1  0.479333  0  0.038011  -0.031522  0  3.895244  0
N  N110  1  0.94841251  0.46929673  0.22487087  1  -1.265006  0  -0.329559  -0.204993  0  3.631019  0
N  N111  1  0.05158612  0.53070538  0.77513315  1  -1.264991  0  -0.329584  -0.205128  0  3.631171  0
N  N112  1  0.08655253  0.70747667  0.14396849  1  -1.264716  0  -0.403776  -0.393801  0  3.583447  0
N  N113  1  0.91343595  0.29252975  0.85603511  1  -1.264776  0  -0.403815  -0.393927  0  3.583364  0
N  N114  1  0.72769234  0.07805661  0.45968782  1  -1.271807  0  -0.401441  -0.377908  0  3.609574  0
N  N115  1  0.27231108  0.92193886  0.54030690  1  -1.271878  0  -0.401525  -0.378057  0  3.609819  0
N  N116  1  0.96040488  0.18857892  0.26621398  1  -1.256039  0  -0.329582  -0.201882  0  3.619785  0
N  N117  1  0.03960327  0.81142459  0.73378931  1  -1.255971  0  -0.329526  -0.201944  0  3.619907  0
O  O118  1  0.11215053  0.32303580  0.05035895  1  -1.17545  0  -0.345626  -0.562432  0  2.267157  0
O  O119  1  0.88784818  0.67696222  0.94963305  1  -1.175845  0  -0.34568  -0.562518  0  2.267077  0
O  O120  1  0.22633238  0.29288777  0.20805703  1  -1.17348  0  -0.323195  -0.549609  0  2.143356  0
O  O121  1  0.77366002  0.70711855  0.79193597  1  -1.173759  0  -0.323157  -0.54951  0  2.143297  0
O  O122  1  0.81080850  0.35720945  0.05324315  1  -1.189094  0  -0.333116  -0.567775  0  2.35545  0
O  O123  1  0.18918939  0.64279187  0.94676268  1  -1.189202  0  -0.333126  -0.56779  0  2.355316  0
O  O124  1  0.67841703  0.37617356  0.20234967  1  -1.177271  0  -0.317816  -0.54946  0  2.173416  0
O  O125  1  0.32157150  0.62382228  0.79765692  1  -1.177279  0  -0.317807  -0.549416  0  2.173449  0
O  O126  1  0.46810433  0.37515844  0.75744530  1  -1.131815  0  -0.353228  -0.454702  0  2.277731  0
O  O127  1  0.53189530  0.62484689  0.24255078  1  -1.131753  0  -0.353323  -0.454834  0  2.277821  0
O  O128  1  0.18043480  0.76531006  0.27906751  1  -1.13923  0  -0.305708  -0.500209  0  2.111025  0
O  O129  1  0.81956554  0.23468958  0.72093774  1  -1.139949  0  -0.305731  -0.500241  0  2.110954  0
O  O130  1  0.29435537  0.10101402  0.85321874  1  -1.107305  0  -0.150757  -0.214326  0  2.544557  0
O  O131  1  0.70566294  0.89897459  0.14678312  1  -1.107283  0  -0.150842  -0.214392  0  2.544519  0
O  O132  1  0.75341260  0.89460491  0.52700190  1  -1.122544  0  -0.284738  -0.45824  0  2.106171  0
O  O133  1  0.24658441  0.10538501  0.47298623  1  -1.122172  0  -0.284531  -0.45799  0  2.106258  0
