# generated using pymatgen
data_CdH11C18N2O5
_symmetry_space_group_name_H-M   'P 1'
_cell_length_a   7.51885830
_cell_length_b   12.40805389
_cell_length_c   17.28100000
_cell_angle_alpha   90.00000000
_cell_angle_beta   90.00000000
_cell_angle_gamma   96.04914221
_symmetry_Int_Tables_number   1
_chemical_formula_structural   CdH11C18N2O5
_chemical_formula_sum   'Cd4 H44 C72 N8 O20'
_cell_volume   1603.24346648
_cell_formula_units_Z   4
loop_
 _symmetry_equiv_pos_site_id
 _symmetry_equiv_pos_as_xyz
  1  'x, y, z'
loop_
 _atom_site_type_symbol
 _atom_site_label
 _atom_site_symmetry_multiplicity
 _atom_site_fract_x
 _atom_site_fract_y
 _atom_site_fract_z
 _atom_site_occupancy
 _atom_site_hle17_bader_spin_density
 _atom_site_hle17_ddec_charge
 _atom_site_hle17_ddec_spin_density
 _atom_site_hle17_ddec_sum_bond_order
 _atom_site_hle17_magmom
 _atom_site_hse06_10hf_bader_spin_density
 _atom_site_hse06_10hf_ddec_charge
 _atom_site_hse06_10hf_ddec_spin_density
 _atom_site_hse06_10hf_ddec_sum_bond_order
 _atom_site_hse06_10hf_magmom
 _atom_site_hse06_bader_spin_density
 _atom_site_hse06_ddec_charge
 _atom_site_hse06_ddec_spin_density
 _atom_site_hse06_ddec_sum_bond_order
 _atom_site_hse06_magmom
 _atom_site_pbe_bader_charge
 _atom_site_pbe_bader_spin_density
 _atom_site_pbe_cm5_charge
 _atom_site_pbe_ddec_charge
 _atom_site_pbe_ddec_spin_density
 _atom_site_pbe_ddec_sum_bond_order
 _atom_site_pbe_magmom
Cd  Cd0  1  0.57706705  0.38529652  0.69167872  1  0  1.065538  0  1.672411  0  0  0.866063  0  2.107363  0  0  0.925758  0  2.057774  0  1.219915  0  0.775501  0.824128  0  2.140781  0
Cd  Cd1  1  0.42293422  0.11470250  0.19167872  1  0  1.065586  0  1.672366  0  0  0.866077  0  2.107308  0  0  0.925772  0  2.057719  0  1.219873  0  0.775493  0.824144  0  2.140727  0
Cd  Cd2  1  0.42293366  0.61469989  0.30832128  1  0  1.06557  0  1.672302  0  0  0.86609  0  2.107243  0  0  0.925783  0  2.057658  0  1.219864  0  0.775507  0.824156  0  2.140661  0
Cd  Cd3  1  0.57707293  0.88530040  0.80832128  1  0  1.065577  0  1.672358  0  0  0.866091  0  2.107295  0  0  0.925784  0  2.057704  0  1.219828  0  0.775498  0.824157  0  2.140715  0
H  H4  1  0.90763664  0.07018417  0.01491985  1  0  0.107031  0  0.948194  0  0  0.116664  0  1.009259  0  0  0.120045  0  1.007218  0  0.105734  0  0.106757  0.114265  0  1.010706  0
H  H5  1  0.09236372  0.42981727  0.51492043  1  0  0.107031  0  0.948136  0  0  0.116668  0  1.009205  0  0  0.12005  0  1.007162  0  0.105706  0  0.106768  0.114269  0  1.010652  0
H  H6  1  0.09236624  0.92981710  0.98507899  1  0  0.107041  0  0.948093  0  0  0.116689  0  1.00915  0  0  0.120071  0  1.007108  0  0.105703  0  0.106776  0.114289  0  1.010598  0
H  H7  1  0.90762502  0.57017914  0.48508015  1  0  0.107016  0  0.948056  0  0  0.116664  0  1.00912  0  0  0.120046  0  1.007079  0  0.105551  0  0.106748  0.114265  0  1.010567  0
H  H8  1  0.09258338  0.22350579  0.07934842  1  0  0.104499  0  0.944225  0  0  0.114969  0  1.001948  0  0  0.117956  0  1.000642  0  0.12568  0  0.105392  0.11283  0  1.002967  0
H  H9  1  0.90741446  0.27649646  0.57934784  1  0  0.104483  0  0.944247  0  0  0.114954  0  1.001969  0  0  0.117941  0  1.000663  0  0.125628  0  0.105377  0.112815  0  1.002987  0
H  H10  1  0.90742083  0.77649548  0.92065100  1  0  0.104504  0  0.944283  0  0  0.114979  0  1.001998  0  0  0.117965  0  1.000692  0  0.125682  0  0.105382  0.11284  0  1.003015  0
H  H11  1  0.09257546  0.72349913  0.42065158  1  0  0.104516  0  0.944281  0  0  0.115  0  1.00198  0  0  0.117985  0  1.000676  0  0.125681  0  0.105406  0.112859  0  1.002998  0
H  H12  1  0.13061856  0.40573665  0.01416874  1  0  0.115245  0  0.960567  0  0  0.121506  0  1.028103  0  0  0.125179  0  1.025919  0  0.111247  0  0.104366  0.118873  0  1.029705  0
H  H13  1  0.86937810  0.09426642  0.51416816  1  0  0.115218  0  0.960651  0  0  0.12147  0  1.028207  0  0  0.125143  0  1.026023  0  0.11137  0  0.104371  0.118841  0  1.029804  0
H  H14  1  0.86938195  0.59426625  0.98583126  1  0  0.115226  0  0.96061  0  0  0.121475  0  1.028167  0  0  0.125145  0  1.02598  0  0.111277  0  0.104374  0.118845  0  1.029764  0
H  H15  1  0.13061596  0.90572999  0.48583126  1  0  0.115281  0  0.960545  0  0  0.121491  0  1.028187  0  0  0.12516  0  1.026001  0  0.111274  0  0.104406  0.118863  0  1.029783  0
H  H16  1  0.96377632  0.63305394  0.80844280  1  0  0.131036  0  0.93291  0  0  0.140017  0  0.993996  0  0  0.14363  0  0.990937  0  0.140472  0  0.116136  0.137337  0  0.996359  0
H  H17  1  0.03623321  0.86694796  0.30844280  1  0  0.130987  0  0.933051  0  0  0.139964  0  0.994124  0  0  0.143578  0  0.991063  0  0.140376  0  0.116127  0.137286  0  0.996485  0
H  H18  1  0.03623454  0.36694733  0.19155720  1  0  0.130945  0  0.933074  0  0  0.139928  0  0.994136  0  0  0.143541  0  0.991076  0  0.140336  0  0.116101  0.137248  0  0.996499  0
H  H19  1  0.96377044  0.13305006  0.69155720  1  0  0.130967  0  0.933025  0  0  0.139956  0  0.994109  0  0  0.143569  0  0.991049  0  0.140462  0  0.116144  0.137279  0  0.996464  0
H  H20  1  0.14464358  0.69076138  0.69280424  1  0  0.096282  0  0.980297  0  0  0.105065  0  1.042808  0  0  0.107304  0  1.043158  0  0.125965  0  0.104856  0.103454  0  1.042729  0
H  H21  1  0.85536420  0.80923810  0.19280597  1  0  0.09629  0  0.980267  0  0  0.10507  0  1.042769  0  0  0.107306  0  1.043123  0  0.125966  0  0.104876  0.103459  0  1.042688  0
H  H22  1  0.85536819  0.30923746  0.30719461  1  0  0.09632  0  0.980314  0  0  0.105079  0  1.04283  0  0  0.107315  0  1.043185  0  0.125931  0  0.104883  0.103468  0  1.042749  0
H  H23  1  0.14463784  0.19075831  0.80719519  1  0  0.096284  0  0.980292  0  0  0.105068  0  1.042802  0  0  0.107306  0  1.043151  0  0.126013  0  0.10487  0.103456  0  1.042722  0
H  H24  1  0.37208025  0.57313481  0.64345466  1  0  0.08468  0  0.934414  0  0  0.094698  0  0.994299  0  0  0.097392  0  0.991857  0  0.097846  0  0.11743  0.092745  0  0.996091  0
H  H25  1  0.62792179  0.92686223  0.14345755  1  0  0.084644  0  0.93448  0  0  0.094722  0  0.994301  0  0  0.097412  0  0.991861  0  0.097919  0  0.117425  0.092769  0  0.996093  0
H  H26  1  0.62792578  0.42686160  0.35654302  1  0  0.084718  0  0.934379  0  0  0.094767  0  0.994228  0  0  0.097455  0  0.991789  0  0.09778  0  0.117443  0.092816  0  0.996019  0
H  H27  1  0.37207906  0.07313499  0.85654418  1  0  0.084688  0  0.93443  0  0  0.094735  0  0.994281  0  0  0.097428  0  0.99184  0  0.097726  0  0.117447  0.092783  0  0.996072  0
H  H28  1  0.25505168  0.35078390  0.82062149  1  0  0.092951  0  0.952154  0  0  0.102574  0  1.016423  0  0  0.105146  0  1.014265  0  0.119541  0  0.117922  0.100693  0  1.018034  0
H  H29  1  0.74494827  0.14921512  0.32062439  1  0  0.092983  0  0.952051  0  0  0.102604  0  1.016332  0  0  0.105168  0  1.01419  0  0.119918  0  0.117912  0.100723  0  1.017943  0
H  H30  1  0.74495183  0.64921332  0.17937619  1  0  0.093011  0  0.952028  0  0  0.102625  0  1.016324  0  0  0.105204  0  1.014161  0  0.119943  0  0.11793  0.100744  0  1.017935  0
H  H31  1  0.25505406  0.85078291  0.67937793  1  0  0.092915  0  0.952127  0  0  0.102557  0  1.016381  0  0  0.105134  0  1.014229  0  0.119405  0  0.117929  0.100676  0  1.017991  0
H  H32  1  0.45842828  0.31993285  0.52014814  1  0  0.091503  0  0.928868  0  0  0.101458  0  0.987966  0  0  0.103637  0  0.986272  0  0.135784  0  0.121467  0.099816  0  0.989266  0
H  H33  1  0.54157251  0.18007103  0.02014872  1  0  0.091402  0  0.92891  0  0  0.101351  0  0.988044  0  0  0.103532  0  0.986347  0  0.135849  0  0.121427  0.099708  0  0.989346  0
H  H34  1  0.54156768  0.68006680  0.47985302  1  0  0.09148  0  0.928942  0  0  0.101442  0  0.988042  0  0  0.103621  0  0.986347  0  0.135783  0  0.121459  0.0998  0  0.989342  0
H  H35  1  0.45843017  0.81993673  0.97985128  1  0  0.091505  0  0.928857  0  0  0.101432  0  0.987995  0  0  0.10361  0  0.986303  0  0.135715  0  0.121465  0.09979  0  0.989295  0
H  H36  1  0.43666135  0.16091950  0.43345408  1  0  0.116943  0  1.002157  0  0  0.122709  0  1.067333  0  0  0.126868  0  1.065395  0  0.132659  0  0.104607  0.119676  0  1.068914  0
H  H37  1  0.56333677  0.33908437  0.93345524  1  0  0.116884  0  1.002188  0  0  0.122679  0  1.067332  0  0  0.126828  0  1.06541  0  0.132717  0  0.104582  0.119647  0  1.068912  0
H  H38  1  0.56333327  0.83908015  0.56654534  1  0  0.116952  0  1.002207  0  0  0.122724  0  1.067368  0  0  0.126881  0  1.065435  0  0.132683  0  0.104611  0.119691  0  1.068949  0
H  H39  1  0.43666444  0.66092257  0.06654418  1  0  0.116982  0  1.002277  0  0  0.122745  0  1.067443  0  0  0.126903  0  1.06551  0  0.132657  0  0.104608  0.119713  0  1.069022  0
H  H40  1  0.58188898  0.97076462  0.63040102  1  0  0.114649  0  0.98372  0  0  0.121036  0  1.049674  0  0  0.124644  0  1.048075  0  0.115351  0  0.10693  0.118418  0  1.051024  0
H  H41  1  0.41810593  0.52923729  0.13040218  1  0  0.114562  0  0.983943  0  0  0.121015  0  1.049799  0  0  0.124623  0  1.048203  0  0.115332  0  0.106941  0.1184  0  1.051139  0
H  H42  1  0.41810921  0.02923260  0.36959782  1  0  0.114625  0  0.983677  0  0  0.120987  0  1.049664  0  0  0.124594  0  1.048066  0  0.11541  0  0.106931  0.11837  0  1.051011  0
H  H43  1  0.58188731  0.47076966  0.86959840  1  0  0.114567  0  0.983809  0  0  0.121006  0  1.049694  0  0  0.124613  0  1.048096  0  0.115415  0  0.106918  0.118386  0  1.051048  0
H  H44  1  0.59694486  0.13791433  0.70821538  1  0  0.094634  0  0.981374  0  0  0.098856  0  1.051569  0  0  0.101838  0  1.049102  0  0.160818  0  0.116065  0.096652  0  1.053362  0
H  H45  1  0.40305033  0.36208793  0.20821596  1  0  0.094646  0  0.981331  0  0  0.098894  0  1.051511  0  0  0.101876  0  1.049042  0  0.160779  0  0.116038  0.096692  0  1.053292  0
H  H46  1  0.40305319  0.86208208  0.29178462  1  0  0.094693  0  0.98129  0  0  0.098884  0  1.051523  0  0  0.101864  0  1.049057  0  0.160798  0  0.116058  0.096683  0  1.053305  0
H  H47  1  0.59694409  0.63791821  0.79178404  1  0  0.094674  0  0.981272  0  0  0.098896  0  1.051489  0  0  0.10188  0  1.049015  0  0.160789  0  0.116054  0.096695  0  1.053263  0
C  C48  1  0.74365263  0.06658014  0.87868005  1  0  0.621588  0  3.940322  0  0  0.574767  0  4.226872  0  0  0.608872  0  4.222134  0  1.550715  0  0.189175  0.551729  0  4.229118  0
C  C49  1  0.25634745  0.43341968  0.37867947  1  0  0.621447  0  3.940357  0  0  0.574646  0  4.226915  0  0  0.608749  0  4.22218  0  1.550673  0  0.189098  0.551609  0  4.22916  0
C  C50  1  0.25634745  0.93342032  0.12132168  1  0  0.621348  0  3.940337  0  0  0.57455  0  4.226894  0  0  0.608654  0  4.222157  0  1.550636  0  0.18904  0.551512  0  4.229141  0
C  C51  1  0.74365102  0.56657916  0.62132284  1  0  0.621328  0  3.940425  0  0  0.574482  0  4.227001  0  0  0.608589  0  4.222266  0  1.55069  0  0.189048  0.551444  0  4.229245  0
C  C52  1  0.84948150  0.16271382  0.91507147  1  0  -0.059686  0  3.73659  0  0  -0.043422  0  3.971365  0  0  -0.050106  0  3.993725  0  0.020746  0  -0.01255  -0.039191  0  3.956474  0
C  C53  1  0.15051620  0.33728763  0.41507147  1  0  -0.059635  0  3.736536  0  0  -0.043436  0  3.971393  0  0  -0.050118  0  3.99375  0  0.020365  0  -0.012588  -0.039206  0  3.956501  0
C  C54  1  0.15051634  0.83728907  0.08492853  1  0  -0.059611  0  3.736501  0  0  -0.043422  0  3.971355  0  0  -0.050109  0  3.99372  0  0.020391  0  -0.012598  -0.039192  0  3.956465  0
C  C55  1  0.84947933  0.66270959  0.58492796  1  0  -0.059675  0  3.736708  0  0  -0.043409  0  3.971468  0  0  -0.050103  0  3.993847  0  0.020879  0  -0.012613  -0.039178  0  3.956576  0
C  C56  1  0.92951379  0.14932372  0.98725016  1  0  -0.077623  0  3.731563  0  0  -0.105025  0  3.98389  0  0  -0.105417  0  4.003542  0  -0.012038  0  -0.083597  -0.104633  0  3.970625  0
C  C57  1  0.07048511  0.35067692  0.48724958  1  0  -0.07766  0  3.731473  0  0  -0.105047  0  3.983832  0  0  -0.105439  0  4.003482  0  -0.011701  0  -0.083623  -0.104655  0  3.970564  0
C  C58  1  0.07048763  0.85067675  0.01275042  1  0  -0.077658  0  3.731501  0  0  -0.10505  0  3.983867  0  0  -0.105441  0  4.00352  0  -0.011719  0  -0.083601  -0.104658  0  3.9706  0
C  C59  1  0.92950657  0.64932111  0.51275100  1  0  -0.077614  0  3.731541  0  0  -0.105032  0  3.983896  0  0  -0.105423  0  4.003551  0  -0.011613  0  -0.083571  -0.10464  0  3.970628  0
C  C60  1  0.03244828  0.23513238  0.02300098  1  0  -0.045724  0  3.754273  0  0  -0.058426  0  4.007427  0  0  -0.059883  0  4.027501  0  -0.078833  0  -0.08701  -0.057528  0  3.993844  0
C  C61  1  0.96754971  0.26487069  0.52300098  1  0  -0.04572  0  3.754167  0  0  -0.058415  0  4.007311  0  0  -0.059873  0  4.027385  0  -0.078804  0  -0.086999  -0.057521  0  3.993737  0
C  C62  1  0.96755489  0.76487052  0.97699786  1  0  -0.045788  0  3.75429  0  0  -0.058495  0  4.007451  0  0  -0.059951  0  4.027523  0  -0.07888  0  -0.087021  -0.057598  0  3.993871  0
C  C63  1  0.03244155  0.73512491  0.47699786  1  0  -0.045833  0  3.754343  0  0  -0.05854  0  4.007511  0  0  -0.059995  0  4.02758  0  -0.078897  0  -0.087053  -0.057647  0  3.993943  0
C  C64  1  0.05619270  0.33610600  0.98665239  1  0  -0.150725  0  3.737951  0  0  -0.179902  0  4.002086  0  0  -0.18112  0  4.019349  0  -0.00284  0  -0.095254  -0.178903  0  3.990381  0
C  C65  1  0.94380235  0.16389544  0.48665239  1  0  -0.150658  0  3.737799  0  0  -0.17984  0  4.00194  0  0  -0.181055  0  4.019201  0  -0.00296  0  -0.095222  -0.178844  0  3.99024  0
C  C66  1  0.94380620  0.66389527  0.01334703  1  0  -0.150575  0  3.73771  0  0  -0.179735  0  4.001869  0  0  -0.180945  0  4.019126  0  -0.00285  0  -0.095195  -0.17874  0  3.990168  0
C  C67  1  0.05619185  0.83610178  0.51334761  1  0  -0.150563  0  3.737754  0  0  -0.179729  0  4.001919  0  0  -0.180938  0  4.019171  0  -0.002568  0  -0.095262  -0.178734  0  3.990214  0
C  C68  1  0.97740754  0.34937778  0.91481396  1  0  0.22419  0  3.768556  0  0  0.208725  0  4.036578  0  0  0.216266  0  4.05319  0  0.337987  0  0.07845  0.203421  0  4.025378  0
C  C69  1  0.02259282  0.15062366  0.41481396  1  0  0.224192  0  3.768527  0  0  0.208727  0  4.036563  0  0  0.216267  0  4.053174  0  0.338069  0  0.078417  0.20341  0  4.025364  0
C  C70  1  0.02259548  0.65062430  0.08518546  1  0  0.224134  0  3.768404  0  0  0.208634  0  4.036473  0  0  0.216172  0  4.053085  0  0.338077  0  0.07838  0.203315  0  4.025274  0
C  C71  1  0.97740774  0.84937194  0.58518604  1  0  0.22406  0  3.768545  0  0  0.208551  0  4.036609  0  0  0.216093  0  4.053219  0  0.337752  0  0.078395  0.203244  0  4.025409  0
C  C72  1  0.87223659  0.26438443  0.87784156  1  0  -0.145571  0  3.695188  0  0  -0.138975  0  3.938476  0  0  -0.14329  0  3.955391  0  -0.019832  0  -0.01033  -0.136163  0  3.927305  0
C  C73  1  0.12776125  0.23561783  0.37784156  1  0  -0.145621  0  3.6952  0  0  -0.138968  0  3.93852  0  0  -0.143284  0  3.955436  0  -0.019669  0  -0.010295  -0.136155  0  3.927352  0
C  C74  1  0.12776258  0.73561847  0.12215844  1  0  -0.145548  0  3.695149  0  0  -0.138875  0  3.938443  0  0  -0.143189  0  3.95536  0  -0.019679  0  -0.010245  -0.136064  0  3.927277  0
C  C75  1  0.87223546  0.76437858  0.62215960  1  0  -0.145518  0  3.695247  0  0  -0.13884  0  3.938482  0  0  -0.143152  0  3.955399  0  -0.020075  0  -0.010219  -0.136028  0  3.927311  0
C  C76  1  0.77586805  0.29102037  0.80472311  1  0  0.668882  0  3.914271  0  0  0.610568  0  4.222789  0  0  0.647097  0  4.211963  0  1.613559  0  0.19755  0.585621  0  4.229444  0
C  C77  1  0.22412937  0.20897945  0.30472311  1  0  0.669  0  3.914099  0  0  0.610577  0  4.222789  0  0  0.647108  0  4.211963  0  1.613555  0  0.197565  0.585629  0  4.229445  0
C  C78  1  0.22413336  0.70898009  0.19527516  1  0  0.668964  0  3.914167  0  0  0.610563  0  4.222846  0  0  0.647094  0  4.212019  0  1.613378  0  0.197534  0.585615  0  4.229505  0
C  C79  1  0.77586791  0.79102020  0.69527632  1  0  0.668944  0  3.914202  0  0  0.610533  0  4.222859  0  0  0.647064  0  4.212031  0  1.613516  0  0.197509  0.585586  0  4.229516  0
C  C80  1  0.09142703  0.48531464  0.82194491  1  0  0.238542  0  3.77923  0  0  0.230803  0  4.042821  0  0  0.236955  0  4.058704  0  0.466288  0  0.093131  0.226056  0  4.032327  0
C  C81  1  0.90857894  0.01468843  0.32194549  1  0  0.238519  0  3.779425  0  0  0.230857  0  4.042901  0  0  0.236984  0  4.058822  0  0.466602  0  0.093113  0.226097  0  4.032406  0
C  C82  1  0.90858131  0.51468744  0.17805335  1  0  0.238536  0  3.779241  0  0  0.230885  0  4.042708  0  0  0.237037  0  4.058595  0  0.466611  0  0.093097  0.226122  0  4.032214  0
C  C83  1  0.09142353  0.98531041  0.67805567  1  0  0.238536  0  3.779281  0  0  0.230809  0  4.042869  0  0  0.23696  0  4.05876  0  0.466559  0  0.093054  0.226068  0  4.032363  0
C  C84  1  0.06458170  0.58372079  0.78703142  1  0  -0.084793  0  3.656163  0  0  -0.115338  0  3.910778  0  0  -0.112842  0  3.924738  0  0.056271  0  -0.068603  -0.116718  0  3.901426  0
C  C85  1  0.93543021  0.91627950  0.28703200  1  0  -0.084788  0  3.656184  0  0  -0.115325  0  3.910709  0  0  -0.112821  0  3.924677  0  0.056028  0  -0.068558  -0.116708  0  3.901363  0
C  C86  1  0.93543259  0.41627724  0.21296742  1  0  -0.084745  0  3.656245  0  0  -0.115288  0  3.910757  0  0  -0.112793  0  3.92472  0  0.055999  0  -0.06852  -0.116673  0  3.901414  0
C  C87  1  0.06457554  0.08371529  0.71296800  1  0  -0.084732  0  3.656212  0  0  -0.115316  0  3.910848  0  0  -0.112817  0  3.924811  0  0.056189  0  -0.068573  -0.1167  0  3.901495  0
C  C88  1  0.16603991  0.61592528  0.72229443  1  0  -0.082634  0  3.743984  0  0  -0.09544  0  3.998327  0  0  -0.100934  0  4.01949  0  -0.063458  0  -0.079943  -0.09196  0  3.984132  0
C  C89  1  0.83396535  0.88407501  0.22229501  1  0  -0.082492  0  3.743846  0  0  -0.095297  0  3.998187  0  0  -0.100794  0  4.019355  0  -0.063513  0  -0.079911  -0.091816  0  3.983991  0
C  C90  1  0.83396934  0.38407437  0.27770499  1  0  -0.082518  0  3.744048  0  0  -0.095297  0  3.998362  0  0  -0.100799  0  4.019537  0  -0.06368  0  -0.079928  -0.091817  0  3.984165  0
C  C91  1  0.16603431  0.11592302  0.77770615  1  0  -0.082557  0  3.743992  0  0  -0.095348  0  3.998334  0  0  -0.100842  0  4.019498  0  -0.063607  0  -0.079926  -0.091869  0  3.984139  0
C  C92  1  0.29094615  0.55073018  0.69435970  1  0  0.100222  0  3.730758  0  0  0.066777  0  3.982534  0  0  0.07314  0  4.001688  0  0.466291  0  0.03403  0.062191  0  3.970256  0
C  C93  1  0.70905855  0.94926687  0.19436086  1  0  0.100209  0  3.730716  0  0  0.066671  0  3.982538  0  0  0.073054  0  4.001656  0  0.466071  0  0.033998  0.062087  0  3.970259  0
C  C94  1  0.70906254  0.44926623  0.30563914  1  0  0.100084  0  3.730746  0  0  0.066559  0  3.982583  0  0  0.072956  0  4.001679  0  0.466426  0  0.033947  0.061975  0  3.970304  0
C  C95  1  0.29094349  0.05072954  0.80563972  1  0  0.1002  0  3.730735  0  0  0.06673  0  3.982512  0  0  0.073093  0  4.001665  0  0.466184  0  0.034003  0.062145  0  3.970232  0
C  C96  1  0.22399236  0.42532581  0.79287020  1  0  0.014257  0  3.703784  0  0  -0.02943  0  3.966864  0  0  -0.023983  0  3.983092  0  0.507331  0  0.032275  -0.032896  0  3.955934  0
C  C97  1  0.77601143  0.07467239  0.29287020  1  0  0.014159  0  3.704035  0  0  -0.029596  0  3.967121  0  0  -0.024143  0  3.983367  0  0.50697  0  0.032207  -0.033061  0  3.956192  0
C  C98  1  0.77601262  0.57467222  0.20712980  1  0  0.014141  0  3.703963  0  0  -0.029633  0  3.967069  0  0  -0.024198  0  3.983306  0  0.506969  0  0.032193  -0.033098  0  3.956141  0
C  C99  1  0.22399341  0.92532483  0.70712980  1  0  0.01431  0  3.703779  0  0  -0.029396  0  3.966861  0  0  -0.023957  0  3.983081  0  0.507422  0  0.032252  -0.032864  0  3.955928  0
C  C100  1  0.48075576  0.24011902  0.54224813  1  0  0.135906  0  3.704668  0  0  0.105781  0  3.952698  0  0  0.112914  0  3.972694  0  0.477055  0  0.050991  0.101185  0  3.939016  0
C  C101  1  0.51924090  0.25988405  0.04224813  1  0  0.135962  0  3.704731  0  0  0.105817  0  3.952776  0  0  0.112952  0  3.972769  0  0.476922  0  0.050953  0.101223  0  3.939094  0
C  C102  1  0.51923963  0.75987739  0.45775302  1  0  0.135959  0  3.704735  0  0  0.105804  0  3.952774  0  0  0.112939  0  3.972768  0  0.47688  0  0.050994  0.101207  0  3.939091  0
C  C103  1  0.48075674  0.74012533  0.95775071  1  0  0.135969  0  3.704722  0  0  0.105845  0  3.952726  0  0  0.112979  0  3.97272  0  0.477058  0  0.051013  0.101248  0  3.939046  0
C  C104  1  0.46897701  0.14989670  0.49424686  1  0  -0.151739  0  3.67566  0  0  -0.170584  0  3.921561  0  0  -0.178855  0  3.943004  0  -0.043569  0  -0.080895  -0.165196  0  3.907215  0
C  C105  1  0.53101818  0.35010556  0.99424860  1  0  -0.151597  0  3.675679  0  0  -0.1705  0  3.921517  0  0  -0.178767  0  3.942966  0  -0.043379  0  -0.080821  -0.165111  0  3.907173  0
C  C106  1  0.53101747  0.85010214  0.50575430  1  0  -0.151862  0  3.675762  0  0  -0.170698  0  3.921651  0  0  -0.178968  0  3.943094  0  -0.043443  0  -0.080959  -0.165308  0  3.907305  0
C  C107  1  0.46897757  0.64990057  0.00575488  1  0  -0.151808  0  3.675774  0  0  -0.17063  0  3.92172  0  0  -0.178898  0  3.94316  0  -0.043544  0  -0.080883  -0.165243  0  3.90738  0
C  C108  1  0.50386899  0.04908273  0.52451421  1  0  0.090051  0  3.744591  0  0  0.102905  0  3.972666  0  0  0.107142  0  3.992972  0  -0.082022  0  0.011804  0.100243  0  3.958765  0
C  C109  1  0.49612501  0.45092034  0.02451479  1  0  0.090016  0  3.74458  0  0  0.103029  0  3.972515  0  0  0.107269  0  3.992819  0  -0.082031  0  0.011862  0.100366  0  3.958615  0
C  C110  1  0.49612550  0.95091611  0.47548521  1  0  0.0901  0  3.744493  0  0  0.102953  0  3.972545  0  0  0.107191  0  3.99285  0  -0.039044  0  0.011836  0.10029  0  3.958644  0
C  C111  1  0.50386941  0.54908579  0.97548464  1  0  0.090106  0  3.744438  0  0  0.102807  0  3.972646  0  0  0.10704  0  3.99295  0  -0.039005  0  0.011739  0.100144  0  3.958748  0
C  C112  1  0.54996617  0.04537982  0.60308721  1  0  -0.149627  0  3.682436  0  0  -0.169625  0  3.933517  0  0  -0.176967  0  3.953738  0  0.022234  0  -0.081934  -0.164911  0  3.920033  0
C  C113  1  0.45002769  0.45462243  0.10308836  1  0  -0.149497  0  3.682643  0  0  -0.169579  0  3.933667  0  0  -0.176921  0  3.953887  0  0.022373  0  -0.081929  -0.164864  0  3.920181  0
C  C114  1  0.45003084  0.95461821  0.39691106  1  0  -0.149539  0  3.682279  0  0  -0.169502  0  3.933355  0  0  -0.176841  0  3.953572  0  0.022287  0  -0.081928  -0.164789  0  3.919872  0
C  C115  1  0.54996260  0.54538289  0.89691222  1  0  -0.149601  0  3.682278  0  0  -0.169586  0  3.933353  0  0  -0.176924  0  3.95357  0  0.022049  0  -0.081925  -0.164874  0  3.91987  0
C  C116  1  0.55863038  0.13905300  0.64739656  1  0  0.127893  0  3.696985  0  0  0.095327  0  3.950427  0  0  0.102268  0  3.969998  0  0.439882  0  0.044516  0.090895  0  3.937071  0
C  C117  1  0.44136495  0.36095007  0.14739714  1  0  0.127786  0  3.697092  0  0  0.095174  0  3.950563  0  0  0.102115  0  3.970136  0  0.439615  0  0.044482  0.090744  0  3.937212  0
C  C118  1  0.44136648  0.86094422  0.35260286  1  0  0.127768  0  3.696942  0  0  0.095209  0  3.950388  0  0  0.102147  0  3.969964  0  0.439754  0  0.044487  0.090779  0  3.937033  0
C  C119  1  0.55862843  0.63905769  0.85260170  1  0  0.127873  0  3.696689  0  0  0.09527  0  3.950128  0  0  0.102209  0  3.969702  0  0.440084  0  0.044511  0.090845  0  3.936773  0
N  N120  1  0.32035578  0.45781557  0.72997165  1  0  -0.32536  0  3.320347  0  0  -0.24083  0  3.586559  0  0  -0.261066  0  3.606245  0  -1.25678  0  -0.337259  -0.226939  0  3.572737  0
N  N121  1  0.67964710  0.04218506  0.22997454  1  0  -0.325413  0  3.320423  0  0  -0.240807  0  3.586606  0  0  -0.261044  0  3.606292  0  -1.256486  0  -0.337237  -0.226916  0  3.572784  0
N  N122  1  0.67964948  0.54218408  0.27002546  1  0  -0.325377  0  3.320482  0  0  -0.240759  0  3.586644  0  0  -0.261001  0  3.60634  0  -1.256459  0  -0.337214  -0.226868  0  3.57282  0
N  N123  1  0.32035669  0.95781378  0.77002720  1  0  -0.325426  0  3.32024  0  0  -0.240897  0  3.58648  0  0  -0.261133  0  3.606167  0  -1.256511  0  -0.337246  -0.227007  0  3.572661  0
N  N124  1  0.52419028  0.23489411  0.61756438  1  0  -0.342793  0  3.306703  0  0  -0.257576  0  3.57223  0  0  -0.279499  0  3.591747  0  -1.251901  0  -0.336879  -0.242666  0  3.558551  0
N  N125  1  0.47580610  0.26510734  0.11756496  1  0  -0.342825  0  3.306702  0  0  -0.257565  0  3.572208  0  0  -0.279488  0  3.591725  0  -1.251841  0  -0.336861  -0.242656  0  3.55853  0
N  N126  1  0.47580511  0.76510230  0.38243620  1  0  -0.342729  0  3.306664  0  0  -0.257498  0  3.57218  0  0  -0.27942  0  3.591698  0  -1.251872  0  -0.33681  -0.242588  0  3.558499  0
N  N127  1  0.52418833  0.73489879  0.88243620  1  0  -0.342821  0  3.306693  0  0  -0.257555  0  3.572163  0  0  -0.279476  0  3.59168  0  -1.252024  0  -0.33684  -0.242646  0  3.558484  0
O  O128  1  0.68250254  0.98782602  0.92171807  1  0  -0.632254  0  1.907089  0  0  -0.574283  0  2.135932  0  0  -0.601715  0  2.126039  0  -1.157125  0  -0.33654  -0.554964  0  2.141817  0
O  O129  1  0.31749635  0.51217589  0.42171923  1  0  -0.632303  0  1.907055  0  0  -0.574328  0  2.135887  0  0  -0.601766  0  2.126004  0  -1.157113  0  -0.336556  -0.555007  0  2.141769  0
O  O130  1  0.31750300  0.01217525  0.07828135  1  0  -0.63229  0  1.90706  0  0  -0.574311  0  2.135882  0  0  -0.601754  0  2.126006  0  -1.157057  0  -0.33659  -0.55499  0  2.141765  0
O  O131  1  0.68249904  0.48782052  0.57828251  1  0  -0.632269  0  1.907009  0  0  -0.574279  0  2.135846  0  0  -0.60172  0  2.125968  0  -1.157205  0  -0.336587  -0.554958  0  2.141728  0
O  O132  1  0.72202692  0.06578429  0.80526763  1  0  -0.629978  0  1.998271  0  0  -0.564152  0  2.238905  0  0  -0.594272  0  2.23227  0  -1.165636  0  -0.320427  -0.543025  0  2.242611  0
O  O133  1  0.27797596  0.43421635  0.30526821  1  0  -0.629807  0  1.998291  0  0  -0.563986  0  2.238917  0  0  -0.594106  0  2.232284  0  -1.165623  0  -0.320327  -0.542861  0  2.242622  0
O  O134  1  0.27797211  0.93421779  0.19473352  1  0  -0.629757  0  1.998246  0  0  -0.563912  0  2.238837  0  0  -0.594029  0  2.232202  0  -1.165678  0  -0.320245  -0.542788  0  2.242543  0
O  O135  1  0.72202370  0.56578168  0.69473410  1  0  -0.629742  0  1.998301  0  0  -0.563913  0  2.238933  0  0  -0.594029  0  2.232297  0  -1.165685  0  -0.320278  -0.542788  0  2.242635  0
O  O136  1  0.61111789  0.30801126  0.81345929  1  0  -0.646403  0  1.951706  0  0  -0.574304  0  2.191155  0  0  -0.604487  0  2.180251  0  -1.164433  0  -0.331301  -0.552934  0  2.197767  0
O  O137  1  0.38888100  0.19198937  0.31345871  1  0  -0.646485  0  1.951649  0  0  -0.574313  0  2.191095  0  0  -0.604499  0  2.180193  0  -1.16454  0  -0.331306  -0.552951  0  2.197726  0
O  O138  1  0.38888233  0.69199001  0.18654187  1  0  -0.646393  0  1.951669  0  0  -0.574289  0  2.191178  0  0  -0.604474  0  2.180277  0  -1.16443  0  -0.331277  -0.552922  0  2.19779  0
O  O139  1  0.61111894  0.80801028  0.68654129  1  0  -0.646407  0  1.951739  0  0  -0.574255  0  2.191186  0  0  -0.604438  0  2.180285  0  -1.164569  0  -0.33125  -0.552885  0  2.197797  0
O  O140  1  0.85965546  0.30461471  0.74178346  1  0  -0.615949  0  1.906904  0  0  -0.560421  0  2.137662  0  0  -0.58793  0  2.128992  0  -1.166646  0  -0.316143  -0.540936  0  2.142944  0
O  O141  1  0.14034329  0.19538512  0.24178346  1  0  -0.615972  0  1.906851  0  0  -0.560403  0  2.137661  0  0  -0.587912  0  2.128991  0  -1.166662  0  -0.316136  -0.540917  0  2.142944  0
O  O142  1  0.14034168  0.69538413  0.25821712  1  0  -0.616048  0  1.906763  0  0  -0.560486  0  2.137562  0  0  -0.587996  0  2.128892  0  -1.166583  0  -0.316172  -0.541  0  2.142844  0
O  O143  1  0.85965560  0.80461615  0.75821712  1  0  -0.616028  0  1.906846  0  0  -0.560454  0  2.137621  0  0  -0.587964  0  2.12895  0  -1.16661  0  -0.316158  -0.54097  0  2.142904  0
O  O144  1  0.98528925  0.45468808  0.88456397  1  0  -0.295672  0  2.360269  0  0  -0.223557  0  2.584917  0  0  -0.241703  0  2.589426  0  -1.105691  0  -0.150695  -0.210694  0  2.581631  0
O  O145  1  0.01471377  0.04531337  0.38456571  1  0  -0.295628  0  2.360292  0  0  -0.223549  0  2.584933  0  0  -0.241684  0  2.58945  0  -1.105749  0  -0.15066  -0.210649  0  2.581623  0
O  O146  1  0.01471643  0.54531400  0.11543487  1  0  -0.295637  0  2.36027  0  0  -0.223539  0  2.584906  0  0  -0.241682  0  2.589414  0  -1.105776  0  -0.150651  -0.210634  0  2.581593  0
O  O147  1  0.98529064  0.95468142  0.61543545  1  0  -0.295648  0  2.360167  0  0  -0.223512  0  2.584815  0  0  -0.241664  0  2.589333  0  -1.105605  0  -0.150635  -0.210643  0  2.581521  0
