# generated using pymatgen
data_ZnH6(C2O3)2
_symmetry_space_group_name_H-M   'P 1'
_cell_length_a   7.78679530
_cell_length_b   9.03107427
_cell_length_c   8.86244013
_cell_angle_alpha   90.00013486
_cell_angle_beta   90.00024347
_cell_angle_gamma   89.99999322
_symmetry_Int_Tables_number   1
_chemical_formula_structural   ZnH6(C2O3)2
_chemical_formula_sum   'Zn4 H24 C16 O24'
_cell_volume   623.23450010
_cell_formula_units_Z   4
loop_
 _symmetry_equiv_pos_site_id
 _symmetry_equiv_pos_as_xyz
  1  'x, y, z'
loop_
 _atom_site_type_symbol
 _atom_site_label
 _atom_site_symmetry_multiplicity
 _atom_site_fract_x
 _atom_site_fract_y
 _atom_site_fract_z
 _atom_site_occupancy
 _atom_site_hle17_bader_spin_density
 _atom_site_hle17_ddec_charge
 _atom_site_hle17_ddec_spin_density
 _atom_site_hle17_ddec_sum_bond_order
 _atom_site_hle17_magmom
 _atom_site_hse06_10hf_bader_spin_density
 _atom_site_hse06_10hf_ddec_charge
 _atom_site_hse06_10hf_ddec_spin_density
 _atom_site_hse06_10hf_ddec_sum_bond_order
 _atom_site_hse06_10hf_magmom
 _atom_site_hse06_bader_spin_density
 _atom_site_hse06_ddec_charge
 _atom_site_hse06_ddec_spin_density
 _atom_site_hse06_ddec_sum_bond_order
 _atom_site_hse06_magmom
 _atom_site_pbe_bader_spin_density
 _atom_site_pbe_cm5_charge
 _atom_site_pbe_ddec_charge
 _atom_site_pbe_ddec_spin_density
 _atom_site_pbe_ddec_sum_bond_order
 _atom_site_pbe_magmom
Zn  Zn0  1  0.89854064  0.07168148  0.11186711  1  0  1.185956  0  1.695596  0  0  1.014491  0  2.15047  0  0  1.064454  0  2.088904  0  0  0.68183  0.978945  0  2.193073  0
Zn  Zn1  1  0.60145809  0.92831549  0.61186983  1  0  1.185908  0  1.695679  0  0  1.014442  0  2.15058  0  0  1.064411  0  2.089012  0  0  0.68182  0.978893  0  2.193206  0
Zn  Zn2  1  0.39854091  0.42831661  0.88813024  1  0  1.185896  0  1.695685  0  0  1.01442  0  2.150595  0  0  1.064388  0  2.089029  0  0  0.681808  0.97887  0  2.193212  0
Zn  Zn3  1  0.10145984  0.57168216  0.38813100  1  0  1.185929  0  1.695661  0  0  1.014438  0  2.150556  0  0  1.064409  0  2.088992  0  0  0.681805  0.978894  0  2.193162  0
H  H4  1  0.00084990  0.33790112  0.96347433  1  0  0.430657  0  0.853343  0  0  0.39818  0  0.925803  0  0  0.408838  0  0.910435  0  0  0.298607  0.390402  0  0.937038  0
H  H5  1  0.49914993  0.66209783  0.46347114  1  0  0.430664  0  0.853348  0  0  0.398176  0  0.92581  0  0  0.408839  0  0.910433  0  0  0.29861  0.390402  0  0.937039  0
H  H6  1  0.50084925  0.16209812  0.03652944  1  0  0.430661  0  0.853339  0  0  0.398183  0  0.925793  0  0  0.408841  0  0.910425  0  0  0.298638  0.390408  0  0.937024  0
H  H7  1  0.99915040  0.83790089  0.53652666  1  0  0.430647  0  0.853359  0  0  0.398169  0  0.92582  0  0  0.408828  0  0.91045  0  0  0.298619  0.390393  0  0.937049  0
H  H8  1  0.96906650  0.35277100  0.14077610  1  0  0.434114  0  0.858229  0  0  0.39959  0  0.935436  0  0  0.410845  0  0.918988  0  0  0.299911  0.391595  0  0.947021  0
H  H9  1  0.53092852  0.64722826  0.64077563  1  0  0.434174  0  0.858075  0  0  0.399638  0  0.935357  0  0  0.410896  0  0.918912  0  0  0.299932  0.391647  0  0.946933  0
H  H10  1  0.46906795  0.14722598  0.85922716  1  0  0.434107  0  0.858131  0  0  0.399586  0  0.93541  0  0  0.410841  0  0.918962  0  0  0.299912  0.391588  0  0.947001  0
H  H11  1  0.03093394  0.85277272  0.35922494  1  0  0.434095  0  0.858159  0  0  0.399571  0  0.935435  0  0  0.410826  0  0.918988  0  0  0.299899  0.39157  0  0.947032  0
H  H12  1  0.15054376  0.99348288  0.74248321  1  0  0.073323  0  0.911698  0  0  0.083685  0  0.967985  0  0  0.085968  0  0.96603  0  0  0.118383  0.082067  0  0.969178  0
H  H13  1  0.34945757  0.00651665  0.24249031  1  0  0.073253  0  0.911689  0  0  0.083641  0  0.967973  0  0  0.08591  0  0.966032  0  0  0.118371  0.082024  0  0.969162  0
H  H14  1  0.65054549  0.50651919  0.25751103  1  0  0.073269  0  0.911668  0  0  0.083664  0  0.967951  0  0  0.085933  0  0.966008  0  0  0.118384  0.082044  0  0.969142  0
H  H15  1  0.84945523  0.49348034  0.75751364  1  0  0.07329  0  0.911662  0  0  0.083654  0  0.967967  0  0  0.085938  0  0.966009  0  0  0.118394  0.082033  0  0.96916  0
H  H16  1  0.23443253  0.08514048  0.96311113  1  0  0.398888  0  0.88463  0  0  0.373049  0  0.953607  0  0  0.383799  0  0.941687  0  0  0.300601  0.365285  0  0.962224  0
H  H17  1  0.26556730  0.91486179  0.46311558  1  0  0.398902  0  0.884592  0  0  0.373052  0  0.953584  0  0  0.383802  0  0.941665  0  0  0.300597  0.365292  0  0.962194  0
H  H18  1  0.73443185  0.41486317  0.03688674  1  0  0.3989  0  0.884607  0  0  0.373051  0  0.953599  0  0  0.3838  0  0.941681  0  0  0.30059  0.365287  0  0.962215  0
H  H19  1  0.76556652  0.58513806  0.53688925  1  0  0.39888  0  0.88463  0  0  0.373027  0  0.953624  0  0  0.383779  0  0.941702  0  0  0.300575  0.365263  0  0.962241  0
H  H20  1  0.14171015  0.74315302  0.97341929  1  0  0.144306  0  0.915983  0  0  0.157434  0  0.974189  0  0  0.16063  0  0.972556  0  0  0.111521  0.155173  0  0.975279  0
H  H21  1  0.35828973  0.25685037  0.47341799  1  0  0.14428  0  0.91602  0  0  0.15746  0  0.974174  0  0  0.160647  0  0.972548  0  0  0.111519  0.155208  0  0.975263  0
H  H22  1  0.64170944  0.75685127  0.02658169  1  0  0.14426  0  0.916037  0  0  0.157419  0  0.974203  0  0  0.160614  0  0.972571  0  0  0.111512  0.155168  0  0.975293  0
H  H23  1  0.85828631  0.24314883  0.52658260  1  0  0.14426  0  0.916052  0  0  0.157415  0  0.974229  0  0  0.160605  0  0.972601  0  0  0.111508  0.155158  0  0.975319  0
H  H24  1  0.09118698  0.70783253  0.78269742  1  0  0.119309  0  0.943076  0  0  0.133522  0  1.004614  0  0  0.135305  0  1.004751  0  0  0.10705  0.132293  0  1.004468  0
H  H25  1  0.40881711  0.29216821  0.28269865  1  0  0.119327  0  0.943041  0  0  0.133516  0  1.004618  0  0  0.135299  0  1.004753  0  0  0.107037  0.132291  0  1.004477  0
H  H26  1  0.59118334  0.79216844  0.21730225  1  0  0.119305  0  0.943052  0  0  0.133492  0  1.004625  0  0  0.135275  0  1.00476  0  0  0.107035  0.132267  0  1.00449  0
H  H27  1  0.90881334  0.20783099  0.71730213  1  0  0.119294  0  0.943081  0  0  0.133502  0  1.004626  0  0  0.135285  0  1.004761  0  0  0.107049  0.132278  0  1.004486  0
C  C28  1  0.09035108  0.94124890  0.84158216  1  0  0.134332  0  3.655055  0  0  0.110847  0  3.907469  0  0  0.113554  0  3.914834  0  0  -0.006853  0.108611  0  3.902729  0
C  C29  1  0.40964945  0.05875308  0.34158734  1  0  0.134477  0  3.654785  0  0  0.110976  0  3.907241  0  0  0.113695  0  3.9146  0  0  -0.006871  0.10874  0  3.902512  0
C  C30  1  0.59034847  0.55875539  0.15841299  1  0  0.134518  0  3.654762  0  0  0.110969  0  3.907257  0  0  0.113699  0  3.914594  0  0  -0.006876  0.108738  0  3.902525  0
C  C31  1  0.90964921  0.44124612  0.65841457  1  0  0.134457  0  3.654897  0  0  0.110931  0  3.907332  0  0  0.113645  0  3.914689  0  0  -0.006873  0.108708  0  3.902588  0
C  C32  1  0.89688178  0.94047927  0.81311294  1  0  0.64057  0  3.829683  0  0  0.583203  0  4.1365  0  0  0.616039  0  4.130748  0  0  0.215558  0.560769  0  4.140207  0
C  C33  1  0.60312178  0.05951928  0.31311925  1  0  0.640628  0  3.829299  0  0  0.583153  0  4.13631  0  0  0.615987  0  4.130561  0  0  0.215538  0.56072  0  4.140013  0
C  C34  1  0.39687998  0.55951835  0.18688335  1  0  0.640616  0  3.829492  0  0  0.583158  0  4.136453  0  0  0.616001  0  4.1307  0  0  0.215542  0.560723  0  4.140155  0
C  C35  1  0.10312108  0.44048106  0.68688378  1  0  0.640517  0  3.82964  0  0  0.583159  0  4.136463  0  0  0.615991  0  4.130716  0  0  0.215518  0.560719  0  4.140167  0
C  C36  1  0.16095527  0.78372392  0.85772889  1  0  -0.321271  0  3.617563  0  0  -0.366622  0  3.864213  0  0  -0.372788  0  3.870109  0  0  -0.168168  -0.362414  0  3.860148  0
C  C37  1  0.33904662  0.21627810  0.35772968  1  0  -0.321276  0  3.61752  0  0  -0.366656  0  3.864192  0  0  -0.372815  0  3.87009  0  0  -0.168149  -0.362475  0  3.860163  0
C  C38  1  0.66095384  0.71627815  0.14227103  1  0  -0.321255  0  3.617457  0  0  -0.366566  0  3.86414  0  0  -0.372733  0  3.87003  0  0  -0.168154  -0.362396  0  3.860126  0
C  C39  1  0.83904375  0.28372221  0.64226971  1  0  -0.321259  0  3.617588  0  0  -0.366591  0  3.864246  0  0  -0.372754  0  3.870148  0  0  -0.168159  -0.362405  0  3.860208  0
C  C40  1  0.34915454  0.77416796  0.81402231  1  0  0.738276  0  3.790751  0  0  0.687325  0  4.087077  0  0  0.72167  0  4.079628  0  0  0.224289  0.664009  0  4.091087  0
C  C41  1  0.15084457  0.22582731  0.31402129  1  0  0.738363  0  3.79064  0  0  0.68741  0  4.08696  0  0  0.72175  0  4.079512  0  0  0.224296  0.664095  0  4.09098  0
C  C42  1  0.84915589  0.72583298  0.18597719  1  0  0.738355  0  3.790652  0  0  0.687292  0  4.087124  0  0  0.721634  0  4.079678  0  0  0.224254  0.66398  0  4.091144  0
C  C43  1  0.65084320  0.27417191  0.68597853  1  0  0.738422  0  3.790502  0  0  0.687369  0  4.086957  0  0  0.72171  0  4.079511  0  0  0.224317  0.664051  0  4.090983  0
O  O44  1  0.84813742  0.88270305  0.68771730  1  0  -0.648555  0  2.059028  0  0  -0.572881  0  2.316975  0  0  -0.602085  0  2.303142  0  0  -0.308212  -0.552611  0  2.326058  0
O  O45  1  0.65186297  0.11729299  0.18772505  1  0  -0.648595  0  2.058931  0  0  -0.572832  0  2.316869  0  0  -0.602033  0  2.303038  0  0  -0.308158  -0.552558  0  2.325936  0
O  O46  1  0.34813623  0.61729125  0.31227881  1  0  -0.648598  0  2.059027  0  0  -0.57283  0  2.316957  0  0  -0.602057  0  2.303139  0  0  -0.308163  -0.552561  0  2.326033  0
O  O47  1  0.15186287  0.38270513  0.81228267  1  0  -0.648537  0  2.058991  0  0  -0.572866  0  2.316937  0  0  -0.602071  0  2.303107  0  0  -0.30818  -0.552591  0  2.326017  0
O  O48  1  0.42174013  0.89372844  0.77431907  1  0  -0.644915  0  2.096641  0  0  -0.575624  0  2.365684  0  0  -0.6034  0  2.351027  0  0  -0.315196  -0.556115  0  2.374474  0
O  O49  1  0.07826649  0.10627339  0.27431411  1  0  -0.644968  0  2.096681  0  0  -0.575688  0  2.365738  0  0  -0.603455  0  2.351072  0  0  -0.315219  -0.55617  0  2.37452  0
O  O50  1  0.92173271  0.60626918  0.22568634  1  0  -0.645007  0  2.096587  0  0  -0.575643  0  2.365631  0  0  -0.603416  0  2.350969  0  0  -0.315199  -0.556122  0  2.374412  0
O  O51  1  0.57826529  0.39373027  0.72568318  1  0  -0.645027  0  2.096652  0  0  -0.575665  0  2.365673  0  0  -0.603438  0  2.351015  0  0  -0.315236  -0.556149  0  2.374459  0
O  O52  1  0.91670712  0.31457499  0.04482721  1  0  -0.816938  0  1.908297  0  0  -0.753037  0  2.114616  0  0  -0.774804  0  2.079855  0  0  -0.550072  -0.73719  0  2.138935  0
O  O53  1  0.58329129  0.68542515  0.54482703  1  0  -0.817019  0  1.908174  0  0  -0.753109  0  2.114573  0  0  -0.774892  0  2.079803  0  0  -0.550091  -0.737231  0  2.138824  0
O  O54  1  0.41670775  0.18542421  0.95517360  1  0  -0.816937  0  1.908226  0  0  -0.753053  0  2.114634  0  0  -0.774822  0  2.079876  0  0  -0.550102  -0.737174  0  2.1389  0
O  O55  1  0.08329333  0.81457582  0.45517374  1  0  -0.816907  0  1.908256  0  0  -0.752995  0  2.114621  0  0  -0.774762  0  2.079858  0  0  -0.550069  -0.737159  0  2.138973  0
O  O56  1  0.79622057  0.99736298  0.90828639  1  0  -0.60321  0  2.071588  0  0  -0.540264  0  2.334904  0  0  -0.567562  0  2.324421  0  0  -0.299099  -0.521915  0  2.342055  0
O  O57  1  0.70378089  0.00263136  0.40829180  1  0  -0.60326  0  2.071467  0  0  -0.540269  0  2.334785  0  0  -0.567566  0  2.324304  0  0  -0.299143  -0.521914  0  2.341927  0
O  O58  1  0.29621832  0.50263133  0.09170953  1  0  -0.603274  0  2.071562  0  0  -0.540236  0  2.334795  0  0  -0.567533  0  2.324312  0  0  -0.299098  -0.521886  0  2.341949  0
O  O59  1  0.20377971  0.49736454  0.59171386  1  0  -0.603176  0  2.071646  0  0  -0.540226  0  2.33494  0  0  -0.567519  0  2.324454  0  0  -0.299083  -0.521889  0  2.342124  0
O  O60  1  0.42521407  0.64938767  0.81146206  1  0  -0.671093  0  2.122936  0  0  -0.599977  0  2.384117  0  0  -0.628605  0  2.370885  0  0  -0.314638  -0.579678  0  2.392202  0
O  O61  1  0.07477989  0.35060981  0.31147008  1  0  -0.671153  0  2.122835  0  0  -0.600029  0  2.383987  0  0  -0.628656  0  2.370757  0  0  -0.314612  -0.579725  0  2.392078  0
O  O62  1  0.92522055  0.85060552  0.18852982  1  0  -0.671156  0  2.122996  0  0  -0.599978  0  2.384161  0  0  -0.628607  0  2.370936  0  0  -0.314581  -0.579672  0  2.392245  0
O  O63  1  0.57478112  0.14939164  0.68853735  1  0  -0.671162  0  2.122832  0  0  -0.59998  0  2.383991  0  0  -0.628604  0  2.370758  0  0  -0.314622  -0.57968  0  2.392088  0
O  O64  1  0.12461973  0.02777080  0.97223702  1  0  -0.593662  0  2.20631  0  0  -0.532868  0  2.455505  0  0  -0.551807  0  2.44209  0  0  -0.395508  -0.519192  0  2.464784  0
O  O65  1  0.37537629  0.97223592  0.47224426  1  0  -0.593735  0  2.206218  0  0  -0.532936  0  2.455428  0  0  -0.551877  0  2.442014  0  0  -0.395483  -0.519252  0  2.464702  0
O  O66  1  0.62462541  0.47223729  0.02775594  1  0  -0.593737  0  2.206215  0  0  -0.532941  0  2.455444  0  0  -0.551885  0  2.442029  0  0  -0.395488  -0.519258  0  2.464718  0
O  O67  1  0.87537676  0.52776503  0.52775872  1  0  -0.593706  0  2.206289  0  0  -0.532894  0  2.455502  0  0  -0.551836  0  2.44209  0  0  -0.39548  -0.519216  0  2.464775  0
