# generated using pymatgen
data_CdH14C20(NO)4
_symmetry_space_group_name_H-M   'P 1'
_cell_length_a   10.32738130
_cell_length_b   13.98701786
_cell_length_c   15.93987960
_cell_angle_alpha   90.00018776
_cell_angle_beta   102.60973181
_cell_angle_gamma   90.00032024
_symmetry_Int_Tables_number   1
_chemical_formula_structural   CdH14C20(NO)4
_chemical_formula_sum   'Cd4 H56 C80 N16 O16'
_cell_volume   2246.96682424
_cell_formula_units_Z   4
loop_
 _symmetry_equiv_pos_site_id
 _symmetry_equiv_pos_as_xyz
  1  'x, y, z'
loop_
 _atom_site_type_symbol
 _atom_site_label
 _atom_site_symmetry_multiplicity
 _atom_site_fract_x
 _atom_site_fract_y
 _atom_site_fract_z
 _atom_site_occupancy
 _atom_site_pbe_bader_charge
 _atom_site_pbe_bader_spin_density
 _atom_site_pbe_cm5_charge
 _atom_site_pbe_ddec_charge
 _atom_site_pbe_ddec_spin_density
 _atom_site_pbe_ddec_sum_bond_order
 _atom_site_pbe_magmom
Cd  Cd0  1  0.38077733  0.47867267  0.08334764  1  1.293187  0  0.779299  0.90615  0  2.233273  0
Cd  Cd1  1  0.61922193  0.97867171  0.41665211  1  1.293148  0  0.779313  0.906206  0  2.233196  0
Cd  Cd2  1  0.61922039  0.52132926  0.91665426  1  1.293173  0  0.779286  0.90616  0  2.233279  0
Cd  Cd3  1  0.38077573  0.02132736  0.58334727  1  1.293236  0  0.779316  0.906172  0  2.233219  0
H  H4  1  0.90218760  0.46135410  0.07847445  1  0.131724  0  0.109461  0.130811  0  1.014566  0
H  H5  1  0.09781154  0.96134887  0.42152649  1  0.132021  0  0.109442  0.130819  0  1.014566  0
H  H6  1  0.09781509  0.53864998  0.92152810  1  0.131957  0  0.109446  0.130799  0  1.014692  0
H  H7  1  0.90218616  0.03864806  0.57847478  1  0.132072  0  0.10947  0.130832  0  1.014545  0
H  H8  1  0.74112153  0.46555737  0.30584914  1  0.09183  0  0.09337  0.093091  0  1.067553  0
H  H9  1  0.25887764  0.96555410  0.19415182  1  0.091845  0  0.093371  0.093106  0  1.067578  0
H  H10  1  0.25887718  0.53444170  0.69415289  1  0.091501  0  0.09339  0.093128  0  1.067583  0
H  H11  1  0.74112109  0.03444354  0.80585084  1  0.091825  0  0.093364  0.093105  0  1.067569  0
H  H12  1  0.96759167  0.49273535  0.39656780  1  0.04674  0  0.087666  0.080224  0  1.035615  0
H  H13  1  0.03240874  0.99273296  0.10343341  1  0.04678  0  0.087658  0.080206  0  1.035585  0
H  H14  1  0.03240608  0.50726372  0.60343536  1  0.046847  0  0.087665  0.080194  0  1.035599  0
H  H15  1  0.96759193  0.00726540  0.89656763  1  0.046742  0  0.087667  0.08023  0  1.035622  0
H  H16  1  0.16372986  0.49541391  0.32615403  1  0.091036  0  0.095032  0.09059  0  1.038078  0
H  H17  1  0.83626960  0.99541294  0.17384768  1  0.091065  0  0.09503  0.090587  0  1.038111  0
H  H18  1  0.83626697  0.50458587  0.67385214  1  0.091315  0  0.094994  0.090515  0  1.038059  0
H  H19  1  0.16373007  0.00458684  0.82615259  1  0.091051  0  0.095034  0.090588  0  1.038093  0
H  H20  1  0.46203848  0.24761937  0.12581307  1  0.160027  0  0.136198  0.100865  0  1.025063  0
H  H21  1  0.53796074  0.74761864  0.37418788  1  0.160012  0  0.136199  0.100884  0  1.025052  0
H  H22  1  0.53796317  0.75238113  0.87418747  1  0.159892  0  0.136163  0.100826  0  1.025092  0
H  H23  1  0.46203787  0.25238115  0.62580975  1  0.160082  0  0.136194  0.100893  0  1.025036  0
H  H24  1  0.18805960  0.35265267  0.91029334  1  0.108443  0  0.12581  0.124182  0  0.998939  0
H  H25  1  0.81194629  0.85265772  0.58970418  1  0.10787  0  0.125778  0.124189  0  0.998871  0
H  H26  1  0.81194592  0.64734640  0.08970393  1  0.10784  0  0.1258  0.124181  0  0.998915  0
H  H27  1  0.18806015  0.14734350  0.41029008  1  0.108287  0  0.125827  0.124244  0  0.998935  0
H  H28  1  0.18461481  0.15449246  0.90274772  1  0.147857  0  0.122859  0.12331  0  1.035006  0
H  H29  1  0.81538743  0.65449613  0.59725376  1  0.147752  0  0.122848  0.123264  0  1.034924  0
H  H30  1  0.81538976  0.84550661  0.09725132  1  0.147851  0  0.122858  0.123321  0  1.035003  0
H  H31  1  0.18461119  0.34550223  0.40274449  1  0.147698  0  0.12285  0.123317  0  1.034974  0
H  H32  1  0.55566476  0.10675680  0.12616863  1  0.067408  0  0.112488  0.117161  0  0.994764  0
H  H33  1  0.44433707  0.60675425  0.37382847  1  0.067227  0  0.112484  0.117159  0  0.994642  0
H  H34  1  0.44434180  0.89324656  0.87383067  1  0.067508  0  0.112469  0.117154  0  0.99467  0
H  H35  1  0.55565759  0.39324267  0.62616926  1  0.067488  0  0.112475  0.117171  0  0.994684  0
H  H36  1  0.60429544  0.94231108  0.17373983  1  0.204677  0  0.112096  0.13544  0  1.045965  0
H  H37  1  0.39570840  0.44230728  0.32625790  1  0.204665  0  0.112096  0.135402  0  1.045983  0
H  H38  1  0.39571207  0.05769085  0.82625771  1  0.204668  0  0.112113  0.135392  0  1.045989  0
H  H39  1  0.60429121  0.55768964  0.67374048  1  0.20469  0  0.112108  0.135428  0  1.046024  0
H  H40  1  0.22522139  0.85207992  0.02009543  1  0.073951  0  0.114856  0.121943  0  0.986318  0
H  H41  1  0.77478273  0.35208183  0.47990647  1  0.073826  0  0.114852  0.121937  0  0.986284  0
H  H42  1  0.77478520  0.14792058  0.97990513  1  0.073909  0  0.11488  0.121981  0  0.986322  0
H  H43  1  0.22521984  0.64791867  0.52009168  1  0.073824  0  0.114836  0.121952  0  0.986306  0
H  H44  1  0.17463456  0.01912777  0.97560069  1  0.07503  0  0.106352  0.106712  0  1.034659  0
H  H45  1  0.82536650  0.51912977  0.52440148  1  0.074953  0  0.106385  0.106758  0  1.034636  0
H  H46  1  0.82537103  0.98087345  0.02439974  1  0.074971  0  0.106414  0.106748  0  1.034658  0
H  H47  1  0.17463309  0.48087144  0.47559564  1  0.074952  0  0.106375  0.106733  0  1.034651  0
H  H48  1  0.32804894  0.70768194  0.02099149  1  0.13399  0  0.140006  0.111465  0  0.991858  0
H  H49  1  0.67195488  0.20767842  0.47900994  1  0.133902  0  0.13999  0.111409  0  0.991887  0
H  H50  1  0.67196063  0.29232213  0.97900946  1  0.133798  0  0.139969  0.111388  0  0.99192  0
H  H51  1  0.32804089  0.79231779  0.52099296  1  0.133849  0  0.139975  0.111433  0  0.991896  0
H  H52  1  0.59571349  0.81312211  0.24327267  1  0.157209  0  0.126348  0.140107  0  1.034111  0
H  H53  1  0.40429222  0.31311738  0.25672744  1  0.157317  0  0.126387  0.140138  0  1.034158  0
H  H54  1  0.40429505  0.18688339  0.75672689  1  0.157683  0  0.126408  0.140202  0  1.034109  0
H  H55  1  0.59571237  0.68688026  0.74327223  1  0.157259  0  0.126378  0.140132  0  1.034138  0
H  H56  1  0.59125178  0.61297508  0.24489926  1  0.102924  0  0.115039  0.111697  0  1.028924  0
H  H57  1  0.40874922  0.11297107  0.25510215  1  0.102912  0  0.115034  0.111692  0  1.028922  0
H  H58  1  0.40875388  0.38702971  0.75510369  1  0.102925  0  0.115026  0.111681  0  1.028957  0
H  H59  1  0.59125145  0.88702728  0.74489889  1  0.102916  0  0.115046  0.111719  0  1.028923  0
C  C60  1  0.04464744  0.47667391  0.19892772  1  -0.03738  0  -0.015869  -0.01083  0  3.959806  0
C  C61  1  0.95535582  0.97667033  0.30107444  1  -0.037405  0  -0.01583  -0.010641  0  3.959676  0
C  C62  1  0.95535532  0.52332731  0.80107798  1  -0.03761  0  -0.015796  -0.010569  0  3.959506  0
C  C63  1  0.04464487  0.02332660  0.69892723  1  -0.037396  0  -0.01588  -0.0108  0  3.959756  0
C  C64  1  0.91639059  0.46598284  0.14827373  1  -0.042906  0  -0.076748  -0.114119  0  3.898824  0
C  C65  1  0.08361159  0.96597800  0.35172825  1  -0.043153  0  -0.076768  -0.114242  0  3.898995  0
C  C66  1  0.08361616  0.53401981  0.85173312  1  -0.043245  0  -0.076778  -0.114245  0  3.899147  0
C  C67  1  0.91638910  0.03401821  0.64827341  1  -0.043271  0  -0.076749  -0.114131  0  3.898901  0
C  C68  1  0.80769870  0.46037534  0.18758186  1  -0.005137  0  -0.023129  -0.038809  0  3.980206  0
C  C69  1  0.19230241  0.96037224  0.31241934  1  -0.00521  0  -0.023144  -0.038765  0  3.980201  0
C  C70  1  0.19230302  0.53962659  0.81242182  1  -0.004851  0  -0.02314  -0.038798  0  3.980239  0
C  C71  1  0.80769827  0.03962611  0.68758233  1  -0.005124  0  -0.023124  -0.038814  0  3.980201  0
C  C72  1  0.82723158  0.46967203  0.27702809  1  -0.076529  0  -0.092279  -0.09498  0  3.979656  0
C  C73  1  0.17276962  0.96966851  0.22297315  1  -0.076573  0  -0.092244  -0.094994  0  3.97959  0
C  C74  1  0.17276815  0.53032847  0.72297470  1  -0.076263  0  -0.092321  -0.095076  0  3.979653  0
C  C75  1  0.82723305  0.03032913  0.77702877  1  -0.076529  0  -0.092298  -0.095047  0  3.979671  0
C  C76  1  0.95429546  0.48387341  0.32713069  1  -0.085996  0  -0.107064  -0.104887  0  4.068267  0
C  C77  1  0.04570686  0.98387133  0.17287073  1  -0.086052  0  -0.107062  -0.104885  0  4.068242  0
C  C78  1  0.04570529  0.51612638  0.67287349  1  -0.086021  0  -0.107026  -0.104834  0  4.068213  0
C  C79  1  0.95429581  0.01612774  0.82713119  1  -0.086024  0  -0.107086  -0.104914  0  4.068341  0
C  C80  1  0.06295853  0.48589838  0.28835491  1  -0.084682  0  -0.092917  -0.108392  0  3.999493  0
C  C81  1  0.93704281  0.98589582  0.21164639  1  -0.084549  0  -0.092913  -0.108422  0  3.999358  0
C  C82  1  0.93704326  0.51410212  0.71165191  1  -0.084749  0  -0.092916  -0.108361  0  3.999207  0
C  C83  1  0.06295786  0.01410182  0.78835464  1  -0.084668  0  -0.092911  -0.108386  0  3.999468  0
C  C84  1  0.16349897  0.47671126  0.15882997  1  1.558729  0  0.183761  0.553554  0  4.247132  0
C  C85  1  0.83650027  0.97670948  0.34116978  1  1.558626  0  0.183726  0.553392  0  4.247299  0
C  C86  1  0.83650280  0.52328996  0.84117560  1  1.558741  0  0.18372  0.553448  0  4.247056  0
C  C87  1  0.16349436  0.02328673  0.65882732  1  1.558731  0  0.183856  0.553723  0  4.246906  0
C  C88  1  0.66876299  0.44681024  0.13554379  1  1.555117  0  0.196412  0.572136  0  4.233707  0
C  C89  1  0.33123798  0.94680576  0.36445609  1  1.555086  0  0.196428  0.572139  0  4.233625  0
C  C90  1  0.33124064  0.55319312  0.86445701  1  1.555039  0  0.196435  0.572191  0  4.233669  0
C  C91  1  0.66876165  0.05319045  0.63554292  1  1.555133  0  0.196445  0.572165  0  4.233631  0
C  C92  1  0.38815588  0.24990623  0.06595865  1  0.965503  0  0.143943  0.09628  0  3.896499  0
C  C93  1  0.61184331  0.74990674  0.43404041  1  0.965536  0  0.143931  0.096224  0  3.896374  0
C  C94  1  0.61184574  0.75009427  0.93404062  1  0.965704  0  0.143981  0.096292  0  3.896474  0
C  C95  1  0.38815427  0.25009305  0.56595582  1  0.965251  0  0.143903  0.09619  0  3.896341  0
C  C96  1  0.24442063  0.30075402  0.95405901  1  0.414402  0  0.01085  -0.00316  0  3.969976  0
C  C97  1  0.75558082  0.80075439  0.54593777  1  0.414904  0  0.010856  -0.003292  0  3.970105  0
C  C98  1  0.75558490  0.69924576  0.04593890  1  0.414992  0  0.010758  -0.003354  0  3.969873  0
C  C99  1  0.24441867  0.19924325  0.45405557  1  0.414354  0  0.010839  -0.003336  0  3.970122  0
C  C100  1  0.24036392  0.20279960  0.95030738  1  0.304253  0  -0.001021  -0.110259  0  3.904129  0
C  C101  1  0.75963572  0.70280358  0.54969139  1  0.304396  0  -0.001014  -0.110179  0  3.904177  0
C  C102  1  0.75964162  0.79720161  0.04969053  1  0.304191  0  -0.000932  -0.110154  0  3.90386  0
C  C103  1  0.24036184  0.29719692  0.45030422  1  0.304343  0  -0.001059  -0.110268  0  3.90419  0
C  C104  1  0.36177265  0.07436336  0.04698215  1  0.306377  0  0.094003  0.156002  0  4.035235  0
C  C105  1  0.63822499  0.57436405  0.45301744  1  0.306384  0  0.094043  0.156025  0  4.035281  0
C  C106  1  0.63822892  0.92563857  0.95301524  1  0.306357  0  0.093957  0.156009  0  4.035291  0
C  C107  1  0.36177064  0.42563645  0.54697979  1  0.30633  0  0.094043  0.156094  0  4.035224  0
C  C108  1  0.48228575  0.05160618  0.10270878  1  -0.004949  0  -0.083812  -0.151054  0  3.996008  0
C  C109  1  0.51771662  0.55160402  0.39729012  1  -0.004667  0  -0.083811  -0.151017  0  3.995971  0
C  C110  1  0.51771879  0.94839575  0.89728900  1  -0.004909  0  -0.083755  -0.151029  0  3.995898  0
C  C111  1  0.48228002  0.44839362  0.60270787  1  -0.004933  0  -0.083849  -0.151151  0  3.996083  0
C  C112  1  0.51108813  0.95772152  0.12840086  1  0.004958  0  -0.080168  -0.135108  0  3.936601  0
C  C113  1  0.48891488  0.45771900  0.37159807  1  0.004996  0  -0.080243  -0.135187  0  3.936972  0
C  C114  1  0.48891740  0.04228112  0.87159705  1  0.004948  0  -0.080277  -0.135166  0  3.936995  0
C  C115  1  0.51108475  0.54227864  0.62840095  1  0.004977  0  -0.080183  -0.135102  0  3.936761  0
C  C116  1  0.41992696  0.88519831  0.09772692  1  0.319365  0  0.09953  0.168807  0  4.005924  0
C  C117  1  0.58007545  0.38519413  0.40227359  1  0.319164  0  0.099559  0.168821  0  4.006243  0
C  C118  1  0.58007862  0.11480433  0.90227287  1  0.319263  0  0.099539  0.168849  0  4.006143  0
C  C119  1  0.41992420  0.61480351  0.59772605  1  0.319324  0  0.099551  0.168906  0  4.006053  0
C  C120  1  0.29916897  0.90740212  0.04185324  1  -0.038141  0  -0.086424  -0.157964  0  3.992832  0
C  C121  1  0.70082868  0.40740365  0.45814672  1  -0.037923  0  -0.086394  -0.157928  0  3.992867  0
C  C122  1  0.70083366  0.09259909  0.95814680  1  -0.038161  0  -0.086405  -0.15797  0  3.992787  0
C  C123  1  0.29917092  0.59259685  0.54185104  1  -0.037931  0  -0.086395  -0.157995  0  3.99282  0
C  C124  1  0.27023508  0.00178581  0.01693064  1  -0.016601  0  -0.089815  -0.155933  0  4.00118  0
C  C125  1  0.72976593  0.50178842  0.48307106  1  -0.016567  0  -0.089884  -0.156029  0  4.001172  0
C  C126  1  0.72976951  0.99821326  0.98306902  1  -0.016603  0  -0.089864  -0.155984  0  4.001214  0
C  C127  1  0.27023268  0.49821208  0.51692656  1  -0.016624  0  -0.08989  -0.156028  0  4.001161  0
C  C128  1  0.39740575  0.70863594  0.08272725  1  0.988136  0  0.145797  0.102807  0  3.899442  0
C  C129  1  0.60259709  0.20863405  0.41727405  1  0.988154  0  0.145886  0.103033  0  3.899583  0
C  C130  1  0.60259985  0.29136742  0.91727318  1  0.988249  0  0.14593  0.103113  0  3.89938  0
C  C131  1  0.39740067  0.79136430  0.58272911  1  0.988282  0  0.14587  0.102897  0  3.899351  0
C  C132  1  0.53944640  0.76132245  0.19920173  1  0.28842  0  0.001945  -0.10416  0  3.891523  0
C  C133  1  0.46055887  0.26131954  0.30079879  1  0.288491  0  0.001936  -0.104176  0  3.891612  0
C  C134  1  0.46055919  0.23867948  0.80079806  1  0.288149  0  0.001907  -0.104171  0  3.891523  0
C  C135  1  0.53944276  0.73867738  0.69920111  1  0.288469  0  0.001957  -0.104107  0  3.891578  0
C  C136  1  0.53597745  0.66325579  0.19898463  1  0.418506  0  -0.005028  -0.037099  0  4.005496  0
C  C137  1  0.46402498  0.16325147  0.30101649  1  0.418484  0  -0.005029  -0.037055  0  4.005479  0
C  C138  1  0.46402717  0.33675043  0.80101630  1  0.418495  0  -0.004985  -0.037063  0  4.005472  0
C  C139  1  0.53597569  0.83674617  0.69898454  1  0.418594  0  -0.005051  -0.037166  0  4.005509  0
N  N140  1  0.33672009  0.32870912  0.02617053  1  -1.202953  0  -0.344799  -0.270597  0  3.522969  0
N  N141  1  0.66328374  0.82870999  0.47382813  1  -1.202979  0  -0.344801  -0.270511  0  3.522857  0
N  N142  1  0.66328248  0.67129209  0.97382762  1  -1.202941  0  -0.344768  -0.270476  0  3.522923  0
N  N143  1  0.33671877  0.17128908  0.52616750  1  -1.202603  0  -0.344732  -0.27038  0  3.522829  0
N  N144  1  0.33231151  0.17066327  0.02203304  1  -1.268646  0  -0.224873  0.008548  0  3.798738  0
N  N145  1  0.66768899  0.67066345  0.47796784  1  -1.268621  0  -0.22486  0.008571  0  3.798673  0
N  N146  1  0.66769207  0.82933866  0.97796586  1  -1.268599  0  -0.22487  0.008562  0  3.798627  0
N  N147  1  0.33230763  0.32933633  0.52202952  1  -1.268586  0  -0.224815  0.00855  0  3.798585  0
N  N148  1  0.45004472  0.78972061  0.12485997  1  -1.266305  0  -0.222738  0.011314  0  3.781438  0
N  N149  1  0.54995880  0.28971763  0.37513978  1  -1.266194  0  -0.222782  0.011234  0  3.781775  0
N  N150  1  0.54996184  0.21028204  0.87513932  1  -1.266129  0  -0.222754  0.011155  0  3.78161  0
N  N151  1  0.45004185  0.71027930  0.62486062  1  -1.266329  0  -0.222792  0.011197  0  3.78165  0
N  N152  1  0.44752569  0.63173625  0.12617327  1  -1.195798  0  -0.347755  -0.269632  0  3.511742  0
N  N153  1  0.55247449  0.13173399  0.37382808  1  -1.195929  0  -0.347768  -0.269749  0  3.511949  0
N  N154  1  0.55247697  0.36826711  0.87382802  1  -1.19599  0  -0.347848  -0.269808  0  3.511897  0
N  N155  1  0.44752226  0.86826437  0.62617432  1  -1.195945  0  -0.34777  -0.269649  0  3.511769  0
O  O156  1  0.27361453  0.44680097  0.20480601  1  -1.186124  0  -0.343365  -0.585817  0  2.206021  0
O  O157  1  0.72638436  0.94680001  0.29519047  1  -1.185891  0  -0.343412  -0.585859  0  2.206045  0
O  O158  1  0.72638717  0.55320024  0.79519704  1  -1.186081  0  -0.343414  -0.585902  0  2.205819  0
O  O159  1  0.27361316  0.05319763  0.70480325  1  -1.186039  0  -0.343464  -0.586004  0  2.205836  0
O  O160  1  0.15073328  0.50570011  0.08195991  1  -1.155387  0  -0.334035  -0.548065  0  2.163699  0
O  O161  1  0.84926474  0.00569638  0.41803952  1  -1.155568  0  -0.333966  -0.547971  0  2.163825  0
O  O162  1  0.84926747  0.49430325  0.91804426  1  -1.155594  0  -0.333976  -0.548022  0  2.163876  0
O  O163  1  0.15072694  0.99429912  0.58195781  1  -1.155509  0  -0.334031  -0.548091  0  2.163755  0
O  O164  1  0.64719734  0.45237592  0.05412466  1  -1.163133  0  -0.343038  -0.599343  0  2.335329  0
O  O165  1  0.35280959  0.95237540  0.44587477  1  -1.163117  0  -0.343054  -0.599315  0  2.335324  0
O  O166  1  0.35281418  0.54762315  0.94587529  1  -1.163081  0  -0.343017  -0.599331  0  2.335372  0
O  O167  1  0.64719794  0.04762438  0.55412403  1  -1.163138  0  -0.343055  -0.599362  0  2.335356  0
O  O168  1  0.57779951  0.43122139  0.17683677  1  -1.179098  0  -0.338246  -0.562958  0  2.228933  0
O  O169  1  0.42219932  0.93121427  0.32316216  1  -1.17913  0  -0.338252  -0.562981  0  2.228764  0
O  O170  1  0.42220011  0.56878769  0.82316162  1  -1.179152  0  -0.33827  -0.562979  0  2.228766  0
O  O171  1  0.57779833  0.06878051  0.67683659  1  -1.179118  0  -0.338247  -0.562964  0  2.228869  0
