# generated using pymatgen
data_TlH8C7SN2F3
_symmetry_space_group_name_H-M   'P 1'
_cell_length_a   9.28930109
_cell_length_b   11.08916596
_cell_length_c   11.47113546
_cell_angle_alpha   89.99905150
_cell_angle_beta   89.99994912
_cell_angle_gamma   107.65986957
_symmetry_Int_Tables_number   1
_chemical_formula_structural   TlH8C7SN2F3
_chemical_formula_sum   'Tl4 H32 C28 S4 N8 F12'
_cell_volume   1125.96242287
_cell_formula_units_Z   4
loop_
 _symmetry_equiv_pos_site_id
 _symmetry_equiv_pos_as_xyz
  1  'x, y, z'
loop_
 _atom_site_type_symbol
 _atom_site_label
 _atom_site_symmetry_multiplicity
 _atom_site_fract_x
 _atom_site_fract_y
 _atom_site_fract_z
 _atom_site_occupancy
 _atom_site_pbe_bader_spin_density
 _atom_site_pbe_cm5_charge
 _atom_site_pbe_ddec_charge
 _atom_site_pbe_ddec_spin_density
 _atom_site_pbe_ddec_sum_bond_order
 _atom_site_pbe_magmom
Tl  Tl0  1  0.36399459  0.71812930  0.58431281  1  0  0.435424  0.781279  0  2.733132  0
Tl  Tl1  1  0.36398901  0.21812895  0.91569121  1  0  0.435391  0.781277  0  2.733069  0
Tl  Tl2  1  0.63600896  0.28186933  0.41569299  1  0  0.435382  0.78119  0  2.733078  0
Tl  Tl3  1  0.63600881  0.78186865  0.08431023  1  0  0.435391  0.781224  0  2.733081  0
H  H4  1  0.98891491  0.63923237  0.03236781  1  0  0.106117  0.131052  0  1.027263  0
H  H5  1  0.98891124  0.13921884  0.46762869  1  0  0.106115  0.13107  0  1.027287  0
H  H6  1  0.01108376  0.36077089  0.96763363  1  0  0.106116  0.131064  0  1.027357  0
H  H7  1  0.01108570  0.86078250  0.53235619  1  0  0.106093  0.131021  0  1.027346  0
H  H8  1  0.23778478  0.69852483  0.14279788  1  0  0.110203  0.088423  0  1.010373  0
H  H9  1  0.23778898  0.19851821  0.35720704  1  0  0.110203  0.088534  0  1.010321  0
H  H10  1  0.76221670  0.30148036  0.85721140  1  0  0.110217  0.088463  0  1.010428  0
H  H11  1  0.76222365  0.80148811  0.64278742  1  0  0.110207  0.088515  0  1.010371  0
H  H12  1  0.45565031  0.96720300  0.63860180  1  0  0.08054  0.16588  0  1.05633  0
H  H13  1  0.45562544  0.46719958  0.86139287  1  0  0.080544  0.165943  0  1.056373  0
H  H14  1  0.54435064  0.03279747  0.36139789  1  0  0.080523  0.165875  0  1.056259  0
H  H15  1  0.54435115  0.53279578  0.13860073  1  0  0.080529  0.165885  0  1.056335  0
H  H16  1  0.25500664  0.90543710  0.65521016  1  0  0.077064  0.159043  0  1.046774  0
H  H17  1  0.25498735  0.40542467  0.84478394  1  0  0.077163  0.159199  0  1.046703  0
H  H18  1  0.74499604  0.09456529  0.34479127  1  0  0.077058  0.15904  0  1.046755  0
H  H19  1  0.74499610  0.59456234  0.15520965  1  0  0.07705  0.159016  0  1.046759  0
H  H20  1  0.33644459  0.94395813  0.51183255  1  0  0.076944  0.162335  0  1.063669  0
H  H21  1  0.33642212  0.44394955  0.98815562  1  0  0.077006  0.162479  0  1.063686  0
H  H22  1  0.66355604  0.05604140  0.48816278  1  0  0.076963  0.162353  0  1.063726  0
H  H23  1  0.66355480  0.55604676  0.01183710  1  0  0.076928  0.162302  0  1.063844  0
H  H24  1  0.41166810  0.48921549  0.59354477  1  0  0.085463  0.172507  0  1.038817  0
H  H25  1  0.41168535  0.98922600  0.90647399  1  0  0.085461  0.172488  0  1.038851  0
H  H26  1  0.58833697  0.51078128  0.40646539  1  0  0.085486  0.172524  0  1.038797  0
H  H27  1  0.58833020  0.01077942  0.09353529  1  0  0.085486  0.172493  0  1.038825  0
H  H28  1  0.30152071  0.49691420  0.46581633  1  0  0.078103  0.155929  0  1.05897  0
H  H29  1  0.30154453  0.99692050  0.03419851  1  0  0.078121  0.155888  0  1.058886  0
H  H30  1  0.69847982  0.50307874  0.53419469  1  0  0.078084  0.155875  0  1.058831  0
H  H31  1  0.69847040  0.00307362  0.96580815  1  0  0.078079  0.155865  0  1.05898  0
H  H32  1  0.21284137  0.46940732  0.60752271  1  0  0.077576  0.158759  0  1.0477  0
H  H33  1  0.21286464  0.96939750  0.89250004  1  0  0.077559  0.158689  0  1.047817  0
H  H34  1  0.78715937  0.53058938  0.39248745  1  0  0.077561  0.158716  0  1.04775  0
H  H35  1  0.78715724  0.03059486  0.10751012  1  0  0.077563  0.158735  0  1.047729  0
C  C36  1  0.36966091  0.71226334  0.87463459  1  0  0.234826  0.390568  0  4.064446  0
C  C37  1  0.36965273  0.21225427  0.62537474  1  0  0.234879  0.390626  0  4.064266  0
C  C38  1  0.63034012  0.28774372  0.12536684  1  0  0.234845  0.390573  0  4.064464  0
C  C39  1  0.63034152  0.78774232  0.37463628  1  0  0.234854  0.390618  0  4.064375  0
C  C40  1  0.10899437  0.65408240  0.86726799  1  0  0.113926  0.091264  0  4.079288  0
C  C41  1  0.10898657  0.15407132  0.63273467  1  0  0.113989  0.091552  0  4.079684  0
C  C42  1  0.89100631  0.34593312  0.13273955  1  0  0.113907  0.091371  0  4.079622  0
C  C43  1  0.89101060  0.84592438  0.36726328  1  0  0.11388  0.091262  0  4.079451  0
C  C44  1  0.09662514  0.65909369  0.98783318  1  0  -0.104527  -0.234577  0  3.97886  0
C  C45  1  0.09662227  0.15908401  0.51216680  1  0  -0.104527  -0.234638  0  3.978657  0
C  C46  1  0.90338359  0.34091067  0.01217436  1  0  -0.10454  -0.234595  0  3.978603  0
C  C47  1  0.90338529  0.84091375  0.48781982  1  0  -0.104608  -0.234613  0  3.978736  0
C  C48  1  0.23427129  0.69225374  0.04786487  1  0  0.069988  0.159016  0  3.950426  0
C  C49  1  0.23427951  0.19225293  0.45213231  1  0  0.069868  0.158739  0  3.950429  0
C  C50  1  0.76572099  0.30774659  0.95213569  1  0  0.069987  0.158938  0  3.950631  0
C  C51  1  0.76572337  0.80775321  0.54786564  1  0  0.070087  0.159008  0  3.950331  0
C  C52  1  0.97174309  0.61908933  0.78796014  1  0  0.310829  0.64927  0  4.010312  0
C  C53  1  0.97173579  0.11906737  0.71203274  1  0  0.310907  0.649269  0  4.010672  0
C  C54  1  0.02825844  0.38093184  0.21203781  1  0  0.310879  0.649297  0  4.010385  0
C  C55  1  0.02826132  0.88091234  0.28794865  1  0  0.310807  0.649147  0  4.010412  0
C  C56  1  0.35092441  0.90868141  0.59852085  1  0  -0.342917  -0.65365  0  3.757891  0
C  C57  1  0.35090498  0.40867827  0.90147224  1  0  -0.343038  -0.653987  0  3.757978  0
C  C58  1  0.64907774  0.09131625  0.40148146  1  0  -0.342859  -0.653567  0  3.757709  0
C  C59  1  0.64907747  0.59131530  0.09851873  1  0  -0.342853  -0.653533  0  3.757865  0
C  C60  1  0.31624843  0.51662543  0.55925330  1  0  -0.339155  -0.649454  0  3.761456  0
C  C61  1  0.31625793  0.01662204  0.94076536  1  0  -0.339161  -0.64932  0  3.76144  0
C  C62  1  0.68375123  0.48337126  0.44075511  1  0  -0.339144  -0.649372  0  3.761304  0
C  C63  1  0.68375115  0.98337387  0.05924480  1  0  -0.339142  -0.649352  0  3.761389  0
S  S64  1  0.53918837  0.74751952  0.80454004  1  0  -0.178769  -0.450126  0  2.214458  0
S  S65  1  0.53917693  0.24751378  0.69546770  1  0  -0.178742  -0.450044  0  2.214438  0
S  S66  1  0.46082306  0.25248959  0.19546401  1  0  -0.178753  -0.450057  0  2.214531  0
S  S67  1  0.46081495  0.75247901  0.30453809  1  0  -0.178805  -0.450159  0  2.214395  0
N  N68  1  0.23979299  0.67904166  0.81083827  1  0  -0.312021  -0.350746  0  3.360605  0
N  N69  1  0.23976810  0.17902171  0.68916474  1  0  -0.312123  -0.351072  0  3.361095  0
N  N70  1  0.76021841  0.32097686  0.18916578  1  0  -0.312068  -0.350909  0  3.360937  0
N  N71  1  0.76021213  0.82095584  0.31082623  1  0  -0.312044  -0.350869  0  3.360595  0
N  N72  1  0.36695146  0.71806116  0.99402029  1  0  -0.304016  -0.307475  0  3.358726  0
N  N73  1  0.36695490  0.21805734  0.50598373  1  0  -0.303893  -0.307263  0  3.358711  0
N  N74  1  0.63304989  0.28194685  0.00598289  1  0  -0.303947  -0.307361  0  3.359125  0
N  N75  1  0.63304844  0.78193753  0.49401771  1  0  -0.303964  -0.307391  0  3.359032  0
F  F76  1  0.98281815  0.71021166  0.70516724  1  0  -0.09131  -0.209833  0  1.338078  0
F  F77  1  0.98277188  0.21018937  0.79481456  1  0  -0.091328  -0.209913  0  1.338431  0
F  F78  1  0.01720633  0.28981366  0.29482983  1  0  -0.091332  -0.209923  0  1.338338  0
F  F79  1  0.01719491  0.78978983  0.20516247  1  0  -0.091319  -0.209812  0  1.338173  0
F  F80  1  0.95768389  0.50852445  0.72962506  1  0  -0.098345  -0.208347  0  1.284772  0
F  F81  1  0.95769169  0.00851857  0.77038793  1  0  -0.098354  -0.20836  0  1.284813  0
F  F82  1  0.04231073  0.49148909  0.27037813  1  0  -0.098357  -0.208351  0  1.284729  0
F  F83  1  0.04232193  0.99148117  0.22961089  1  0  -0.098329  -0.208334  0  1.284801  0
F  F84  1  0.84072957  0.60457135  0.84679146  1  0  -0.085936  -0.20113  0  1.35852  0
F  F85  1  0.84071601  0.10451180  0.65320090  1  0  -0.086034  -0.201131  0  1.358615  0
F  F86  1  0.15927788  0.39546404  0.15320998  1  0  -0.086006  -0.201146  0  1.358462  0
F  F87  1  0.15926948  0.89544325  0.34678223  1  0  -0.085909  -0.201037  0  1.358593  0
