# generated using pymatgen
data_AlH7C11SO5
_symmetry_space_group_name_H-M   'P 1'
_cell_length_a   6.60158534
_cell_length_b   11.15817284
_cell_length_c   12.66926377
_cell_angle_alpha   81.52183086
_cell_angle_beta   76.06620801
_cell_angle_gamma   71.60989908
_symmetry_Int_Tables_number   1
_chemical_formula_structural   AlH7C11SO5
_chemical_formula_sum   'Al2 H14 C22 S2 O10'
_cell_volume   856.92880690
_cell_formula_units_Z   2
loop_
 _symmetry_equiv_pos_site_id
 _symmetry_equiv_pos_as_xyz
  1  'x, y, z'
loop_
 _atom_site_type_symbol
 _atom_site_label
 _atom_site_symmetry_multiplicity
 _atom_site_fract_x
 _atom_site_fract_y
 _atom_site_fract_z
 _atom_site_occupancy
 _atom_site_pbe_bader_charge
 _atom_site_pbe_bader_spin_density
 _atom_site_pbe_cm5_charge
 _atom_site_pbe_ddec_charge
 _atom_site_pbe_ddec_spin_density
 _atom_site_pbe_ddec_sum_bond_order
 _atom_site_pbe_magmom
Al  Al0  1  0.49939436  0.50056512  0.50064530  1  2.502095  0  0.391998  1.637044  0  2.582643  0
Al  Al1  1  0.99958144  0.49999532  0.50053102  1  2.502103  0  0.391851  1.632062  0  2.579769  0
H  H2  1  0.29961409  0.34604369  0.56250305  1  0.60948  0  0.346331  0.420807  0  0.879581  0
H  H3  1  0.69881410  0.65579642  0.44223025  1  0.640608  0  0.346967  0.423125  0  0.873307  0
H  H4  1  0.30739354  0.44215910  0.84861465  1  0.136224  0  0.116448  0.141085  0  0.993479  0
H  H5  1  0.69258594  0.55736902  0.15289562  1  0.132662  0  0.115921  0.140039  0  0.994682  0
H  H6  1  0.21959807  0.23910482  0.34929225  1  0.104564  0  0.101505  0.106065  0  1.042593  0
H  H7  1  0.55657471  0.12481167  0.22953470  1  0.042093  0  0.100911  0.097741  0  0.995603  0
H  H8  1  0.43376537  0.76902405  0.35454595  1  0.048074  0  0.104322  0.104435  0  1.042701  0
H  H9  1  0.66345898  0.88833942  0.23169547  1  0.04451  0  0.102054  0.098946  0  0.990535  0
H  H10  1  0.70295192  0.88809015  0.73625809  1  0.031689  0  0.09135  0.122417  0  1.007886  0
H  H11  1  0.80105057  0.75744586  0.65464511  1  0.05631  0  0.09484  0.137109  0  1.038597  0
H  H12  1  0.56740287  0.88259233  0.63355244  1  0.058329  0  0.098467  0.141428  0  0.976874  0
H  H13  1  0.45199321  0.12618167  0.61569293  1  0.039499  0  0.09882  0.137003  0  0.982539  0
H  H14  1  0.57785836  0.23215719  0.64761331  1  0.035399  0  0.097955  0.134605  0  1.037138  0
H  H15  1  0.58568222  0.08689500  0.72630527  1  0.037926  0  0.094648  0.129465  0  1.001205  0
C  C16  1  0.86335136  0.27398947  0.49273283  1  1.546562  0  0.274238  0.666034  0  4.069327  0
C  C17  1  0.67013225  0.49548275  0.69685664  1  1.57692  0  0.254858  0.633389  0  4.158633  0
C  C18  1  0.13442244  0.72626437  0.50919447  1  1.551295  0  0.275392  0.668404  0  4.068083  0
C  C19  1  0.32930172  0.50446504  0.30456648  1  1.56494  0  0.255033  0.634441  0  4.155165  0
C  C20  1  0.42303587  0.46900353  0.88162511  1  0.051726  0  -0.089805  -0.137794  0  3.975227  0
C  C21  1  0.57731952  0.53010395  0.11992916  1  0.06451  0  -0.088503  -0.136483  0  3.97641  0
C  C22  1  0.60498565  0.49734836  0.81597363  1  -0.194807  0  -0.020743  -0.117978  0  3.975691  0
C  C23  1  0.39519409  0.50193430  0.18553941  1  -0.193466  0  -0.019428  -0.116639  0  3.973435  0
C  C24  1  0.58783895  0.51805426  0.00931568  1  -0.126109  0  -0.024685  -0.015008  0  4.076403  0
C  C25  1  0.41292494  0.48060841  0.99229270  1  -0.203401  0  -0.022397  -0.011588  0  4.072174  0
C  C26  1  0.93400376  0.13250814  0.49711116  1  -0.011122  0  -0.012967  -0.152248  0  3.931725  0
C  C27  1  0.13368310  0.06953729  0.42762008  1  0.009304  0  -0.004245  0.056824  0  3.991183  0
C  C28  1  0.80321962  0.06612966  0.56817680  1  0.018617  0  -0.000363  0.103289  0  3.911661  0
C  C29  1  0.26704858  0.13609602  0.35298322  1  -0.000162  0  -0.093901  -0.132387  0  3.972555  0
C  C30  1  0.45562925  0.07198853  0.28533060  1  -0.020923  0  -0.095025  -0.083784  0  4.045184  0
C  C31  1  0.06204190  0.86767177  0.50538757  1  -0.007184  0  -0.012718  -0.150621  0  3.928618  0
C  C32  1  0.86926278  0.93056880  0.57291554  1  0.003958  0  0.000861  0.104231  0  3.915015  0
C  C33  1  0.19757059  0.93405251  0.43084135  1  -0.019428  0  -0.004625  0.059439  0  3.988318  0
C  C34  1  0.38912109  0.87139578  0.35711732  1  -0.043758  0  -0.097405  -0.144262  0  3.983898  0
C  C35  1  0.51641285  0.93856924  0.28686905  1  -0.065171  0  -0.094552  -0.08158  0  4.047563  0
C  C36  1  0.72971346  0.86020029  0.65312195  1  -0.050196  0  -0.239575  -0.4107  0  3.965508  0
C  C37  1  0.59481129  0.13226111  0.64294967  1  -0.038162  0  -0.235337  -0.405611  0  3.954647  0
S  S38  1  0.76453807  0.53801360  0.88787510  1  0.253755  0  0.090529  0.125252  0  2.759908  0
S  S39  1  0.23609510  0.46074812  0.11372815  1  0.247815  0  0.090834  0.124222  0  2.759377  0
O  O40  1  0.67803596  0.33205517  0.46954952  1  -1.259889  0  -0.230762  -0.581254  0  2.31814  0
O  O41  1  0.84948973  0.51969662  0.65144909  1  -1.246903  0  -0.239565  -0.585211  0  2.33918  0
O  O42  1  0.00806305  0.67188917  0.48711312  1  -1.26607  0  -0.23164  -0.592462  0  2.340397  0
O  O43  1  0.45512452  0.53284632  0.35268155  1  -1.255763  0  -0.236993  -0.588075  0  2.348216  0
O  O44  1  0.32052816  0.66894420  0.53187367  1  -1.262757  0  -0.232518  -0.589056  0  2.325596  0
O  O45  1  0.15040461  0.47957224  0.34988573  1  -1.256143  0  -0.23939  -0.584473  0  2.333791  0
O  O46  1  0.99132811  0.32786365  0.51409771  1  -1.268573  0  -0.232577  -0.598569  0  2.346614  0
O  O47  1  0.54315195  0.46814133  0.64877675  1  -1.261015  0  -0.237563  -0.589004  0  2.351269  0
O  O48  1  0.26151858  0.43726490  0.54706790  1  -1.413952  0  -0.449782  -0.986859  0  2.207196  0
O  O49  1  0.73710333  0.56410487  0.45431803  1  -1.446017  0  -0.449068  -0.987257  0  2.199331  0
