# generated using pymatgen
data_Zn4H43C69N17Cl4
_symmetry_space_group_name_H-M   'P 1'
_cell_length_a   15.69000906
_cell_length_b   17.85188764
_cell_length_c   19.69692721
_cell_angle_alpha   109.89365167
_cell_angle_beta   116.05597262
_cell_angle_gamma   97.44308585
_symmetry_Int_Tables_number   1
_chemical_formula_structural   Zn4H43C69N17Cl4
_chemical_formula_sum   'Zn4 H43 C69 N17 Cl4'
_cell_volume   4399.01251710
_cell_formula_units_Z   1
loop_
 _symmetry_equiv_pos_site_id
 _symmetry_equiv_pos_as_xyz
  1  'x, y, z'
loop_
 _atom_site_type_symbol
 _atom_site_label
 _atom_site_symmetry_multiplicity
 _atom_site_fract_x
 _atom_site_fract_y
 _atom_site_fract_z
 _atom_site_occupancy
 _atom_site_pbe_bader_charge
 _atom_site_pbe_bader_spin_density
 _atom_site_pbe_cm5_charge
 _atom_site_pbe_ddec_charge
 _atom_site_pbe_ddec_spin_density
 _atom_site_pbe_ddec_sum_bond_order
 _atom_site_pbe_magmom
Zn  Zn0  1  0.62287945  0.10141443  0.00156749  1  1.182158  0  0.746635  0.640298  0  2.354428  0
Zn  Zn1  1  0.40084057  0.91905906  0.02489309  1  1.199148  0  0.745259  0.6506  0  2.280942  0
Zn  Zn2  1  0.66882195  0.99448211  0.12161755  1  1.208556  0  0.756556  0.666507  0  2.295737  0
Zn  Zn3  1  0.36353439  0.02964591  0.91022069  1  1.161105  0  0.733064  0.652166  0  2.288052  0
H  H4  1  0.79108312  0.06613859  0.93686501  1  0.081237  0  0.119507  0.107571  0  0.995457  0
H  H5  1  0.38691319  0.00147854  0.19234376  1  0.079738  0  0.117283  0.103584  0  1.01948  0
H  H6  1  0.84307983  0.17765838  0.31403019  1  0.07963  0  0.12004  0.107871  0  0.984371  0
H  H7  1  0.16939958  0.08106019  0.90838998  1  0.044461  0  0.10134  0.090307  0  1.006765  0
H  H8  1  0.22879240  0.95999103  0.07353651  1  0.044912  0  0.099307  0.085927  0  1.012509  0
H  H9  1  0.61940070  0.24997632  0.14637954  1  0.116749  0  0.12031  0.114946  0  1.007918  0
H  H10  1  0.33917428  0.21339882  0.94078954  1  0.090345  0  0.117117  0.108668  0  0.998717  0
H  H11  1  0.71060341  0.08137496  0.31258934  1  0.11323  0  0.104126  0.090612  0  1.047488  0
H  H12  1  0.36355253  0.01865488  0.48243702  1  0.094319  0  0.100046  0.10112  0  0.995802  0
H  H13  1  0.33449304  0.98998552  0.58635821  1  0.046111  0  0.094936  0.098366  0  1.009042  0
H  H14  1  0.61550608  0.18406406  0.78846731  1  0.092153  0  0.097782  0.0982  0  1.001736  0
H  H15  1  0.18851521  0.74333778  0.86947986  1  0.090393  0  0.120638  0.101754  0  1.003047  0
H  H16  1  0.64487223  0.21218620  0.68439038  1  0.058999  0  0.099269  0.104706  0  0.994795  0
H  H17  1  0.42449409  0.12308801  0.32084251  1  0.074365  0  0.106964  0.112444  0  0.988611  0
H  H18  1  0.40262576  0.14761036  0.44270807  1  0.052278  0  0.105965  0.110824  0  0.988533  0
H  H19  1  0.88091336  0.55496270  0.63793786  1  0.091405  0  0.102725  0.108351  0  0.998736  0
H  H20  1  0.05076180  0.64932318  0.75283483  1  0.052853  0  0.111732  0.09426  0  0.952841  0
H  H21  1  0.10940877  0.73934422  0.60050640  1  0.038505  0  0.107028  0.115758  0  0.987458  0
H  H22  1  0.96801029  0.61490476  0.47878041  1  0.061073  0  0.105164  0.101123  0  0.999735  0
H  H23  1  0.78694170  0.53398986  0.38852902  1  0.072434  0  0.104747  0.105209  0  0.990579  0
H  H24  1  0.70572698  0.80490214  0.07890657  1  0.091764  0  0.113156  0.095545  0  1.01491  0
H  H25  1  0.71371695  0.39704809  0.26334218  1  0.069539  0  0.104317  0.108949  0  0.993852  0
H  H26  1  0.83930786  0.28025421  0.42654837  1  0.08895  0  0.102844  0.117666  0  1.004232  0
H  H27  1  0.70333693  0.68183169  0.02300107  1  0.03988  0  0.095613  0.094687  0  1.015202  0
H  H28  1  0.29506830  0.42009927  0.81964704  1  0.025265  0  0.096333  0.087412  0  1.024198  0
H  H29  1  0.71363959  0.54412640  0.01812905  1  0.030505  0  0.095026  0.098836  0  1.005726  0
H  H30  1  0.30752420  0.29636633  0.84364317  1  0.036714  0  0.096803  0.097931  0  1.005547  0
H  H31  1  0.62966471  0.40869620  0.00012601  1  0.038238  0  0.095811  0.095011  0  1.017875  0
H  H32  1  0.02215356  0.71206111  0.85805060  1  0.017088  0  0.094967  0.092162  0  1.019429  0
H  H33  1  0.90701470  0.77045978  0.64623707  1  0.049599  0  0.098041  0.101644  0  1.005364  0
H  H34  1  0.00196547  0.78557459  0.97886653  1  0.038418  0  0.097999  0.095858  0  0.998369  0
H  H35  1  0.84268440  0.87263793  0.71373784  1  0.04981  0  0.102053  0.102754  0  0.991775  0
H  H36  1  0.92782364  0.88034716  0.04164031  1  0.026144  0  0.097342  0.095317  0  1.004757  0
H  H37  1  0.80777687  0.93578229  0.82812121  1  0.036531  0  0.099823  0.101983  0  1.004142  0
H  H38  1  0.38327471  0.73240841  0.92240704  1  0.092899  0  0.108965  0.091955  0  1.072924  0
H  H39  1  0.61898178  0.04631706  0.83065949  1  0.087782  0  0.113307  0.100949  0  1.017204  0
H  H40  1  0.24884367  0.86670328  0.73145968  1  0.100011  0  0.115435  0.103327  0  1.009541  0
H  H41  1  0.76683261  0.88404036  0.03208930  1  0.0924  0  0.111282  0.093268  0  1.039846  0
H  H42  1  0.63529214  0.27281793  0.97342467  1  0.082379  0  0.116995  0.104163  0  0.998282  0
H  H43  1  0.30157986  0.52615033  0.82369231  1  0.381233  0  0.293275  0.230067  0  0.986799  0
H  H44  1  0.27456453  0.60711100  0.75012767  1  0.061922  0  0.097022  0.104646  0  0.992001  0
H  H45  1  0.36813706  0.56479800  0.74002355  1  0.023081  0  0.090518  0.091088  0  0.990971  0
H  H46  1  0.40305150  0.67083217  0.81455209  1  0.080845  0  0.100453  0.111921  0  1.012218  0
C  C47  1  0.77568627  0.02778928  0.96535610  1  0.397733  0  0.009829  -0.046403  0  3.965283  0
C  C48  1  0.17546489  0.77906778  0.76586950  1  0.069783  0  -0.029501  -0.052584  0  4.087273  0
C  C49  1  0.54179646  0.72986486  0.98077844  1  0.037654  0  -0.036256  -0.021775  0  4.052621  0
C  C50  1  0.46826896  0.05699063  0.75594184  1  0.011945  0  -0.037001  -0.096042  0  4.069694  0
C  C51  1  0.56543016  0.24765181  0.96932705  1  0.382813  0  0.006601  -0.055785  0  3.998948  0
C  C52  1  0.46472980  0.01451757  0.20880393  1  0.38529  0  0.008886  -0.045684  0  3.973833  0
C  C53  1  0.78352035  0.18251533  0.26162904  1  0.450598  0  0.012717  -0.032956  0  3.991438  0
C  C54  1  0.19718553  0.04960619  0.94817998  1  0.311499  0  -0.029898  -0.021167  0  4.122801  0
C  C55  1  0.22827194  0.98838352  0.03250118  1  0.304885  0  -0.031088  -0.022394  0  4.130088  0
C  C56  1  0.66984824  0.21994823  0.17636054  1  0.404301  0  0.013304  -0.02723  0  3.94469  0
C  C57  1  0.41392738  0.21651855  0.95148112  1  0.396057  0  0.000465  -0.059052  0  3.97892  0
C  C58  1  0.21699198  0.78344261  0.84804883  1  0.471143  0  0.029721  -0.014871  0  3.941145  0
C  C59  1  0.62998256  0.05478435  0.27004403  1  0.417003  0  0.001061  -0.045463  0  3.999583  0
C  C60  1  0.47989151  0.27289199  0.94637875  1  0.036202  0  -0.038086  -0.038585  0  4.087997  0
C  C61  1  0.55312525  0.05650851  0.28880071  1  0.055914  0  -0.041768  -0.038615  0  4.075172  0
C  C62  1  0.74214103  0.24799519  0.26191547  1  0.01654  0  -0.035184  -0.045646  0  4.063668  0
C  C63  1  0.16422914  0.02906946  0.99672665  1  -0.035362  0  -0.189731  -0.325901  0  3.467426  0
C  C64  1  0.41845555  0.05573854  0.54979402  1  -0.036793  0  -0.092232  -0.123649  0  3.989688  0
C  C65  1  0.40227620  0.03933870  0.60822443  1  -0.041967  0  -0.097419  -0.136958  0  4.000898  0
C  C66  1  0.47568908  0.08182271  0.69461379  1  0.013966  0  -0.010854  0.101432  0  4.039974  0
C  C67  1  0.56082776  0.14687344  0.72108758  1  -0.088297  0  -0.094631  -0.128706  0  3.98471  0
C  C68  1  0.57700441  0.16309723  0.66268787  1  0.004784  0  -0.096411  -0.128291  0  4.025668  0
C  C69  1  0.62760224  0.80083307  0.04525482  1  0.377051  0  0.004803  -0.052658  0  3.997326  0
C  C70  1  0.50827330  0.11481035  0.57579226  1  -0.070011  0  -0.017092  0.065603  0  4.020384  0
C  C71  1  0.61413789  0.09401497  0.50978839  1  0.053332  0  0.007483  0.045097  0  4.001344  0
C  C72  1  0.62613252  0.07942953  0.44015690  1  0.071835  0  0.004126  0.038812  0  3.995756  0
C  C73  1  0.55531274  0.08569929  0.36871701  1  0.05825  0  -0.009872  0.045233  0  4.029259  0
C  C74  1  0.47732227  0.11371475  0.37348378  1  0.014807  0  -0.093196  -0.127737  0  4.007732  0
C  C75  1  0.46528124  0.12781902  0.44203587  1  -0.066654  0  -0.094531  -0.130414  0  4.03503  0
C  C76  1  0.53133723  0.11596403  0.51073648  1  0.047589  0  -0.014019  0.015428  0  4.003187  0
C  C77  1  0.92936524  0.59501872  0.62885037  1  -0.028337  0  -0.073574  -0.120211  0  3.815849  0
C  C78  1  0.00982558  0.67206372  0.70606053  1  0.017156  0  -0.067359  -0.059288  0  3.939183  0
C  C79  1  0.08428262  0.71898610  0.69302945  1  -0.048835  0  0.020488  0.109569  0  3.883642  0
C  C80  1  0.38763781  0.04119623  0.76853532  1  0.574805  0  0.104665  0.170762  0  4.092499  0
C  C81  1  0.06020870  0.70095848  0.61046549  1  -0.04117  0  -0.095438  -0.158611  0  4.025564  0
C  C82  1  0.98076863  0.63054685  0.54178597  1  -0.008538  0  -0.072252  -0.084248  0  3.914335  0
C  C83  1  0.91942731  0.57254181  0.55154231  1  -0.022297  0  -0.021379  0.046203  0  4.059478  0
C  C84  1  0.79852065  0.47797359  0.39680085  1  -0.033882  0  -0.089413  -0.116673  0  4.01674  0
C  C85  1  0.75675321  0.40061895  0.32605941  1  0.003215  0  -0.093308  -0.138837  0  3.987723  0
C  C86  1  0.77362663  0.32790501  0.33456254  1  -0.060591  0  -0.002879  0.113011  0  4.041207  0
C  C87  1  0.82747430  0.33537697  0.41668785  1  0.021592  0  -0.099788  -0.205909  0  3.962205  0
C  C88  1  0.86891582  0.41318543  0.48709933  1  0.04285  0  0.014826  0.117806  0  4.014049  0
C  C89  1  0.85836390  0.48771030  0.47941195  1  -0.0221  0  -0.017992  -0.000684  0  3.987713  0
C  C90  1  0.54037033  0.64232178  0.95207710  1  0.037066  0  -0.020386  -0.012158  0  4.007666  0
C  C91  1  0.46321178  0.76443481  0.96557156  1  0.390861  0  -0.000637  -0.052155  0  3.982368  0
C  C92  1  0.46999602  0.34429467  0.92669838  1  -0.065956  0  -0.014463  0.086644  0  4.073036  0
C  C93  1  0.36963576  0.42032392  0.86105624  1  -0.044258  0  -0.099383  -0.130706  0  4.034786  0
C  C94  1  0.37581585  0.34954195  0.87441139  1  -0.034541  0  -0.098949  -0.136697  0  4.005765  0
C  C95  1  0.55584123  0.41061653  0.95999605  1  0.065897  0  -0.095321  -0.1867  0  3.958743  0
C  C96  1  0.55175518  0.48404723  0.94866643  1  -0.059891  0  -0.014185  0.093519  0  4.059845  0
C  C97  1  0.45618120  0.49181043  0.90057879  1  0.009047  0  -0.016407  -0.019713  0  3.970736  0
C  C98  1  0.45213963  0.57138916  0.89912600  1  0.346382  0  0.09248  0.133881  0  3.973171  0
C  C99  1  0.63431747  0.62864374  0.98914089  1  0.001875  0  -0.100372  -0.126833  0  4.070225  0
C  C100  1  0.64081280  0.55230972  0.98716481  1  -0.058472  0  -0.111444  -0.169506  0  4.075019  0
C  C101  1  0.96804136  0.73368498  0.74778581  1  -0.037342  0  -0.012639  0.084197  0  3.966923  0
C  C102  1  0.54369603  0.04316098  0.81847039  1  0.401472  0  0.000875  -0.050461  0  3.998074  0
C  C103  1  0.85954436  0.91269044  0.93756396  1  -0.010945  0  -0.006508  0.093397  0  4.052404  0
C  C104  1  0.95882497  0.81794897  0.94554283  1  -0.028216  0  -0.092757  -0.130053  0  4.017397  0
C  C105  1  0.91704944  0.87039397  0.98021925  1  -0.041763  0  -0.092358  -0.128155  0  3.999589  0
C  C106  1  0.85138241  0.90400311  0.86201431  1  0.014488  0  -0.087301  -0.181768  0  3.937908  0
C  C107  1  0.89337768  0.85035272  0.82456071  1  -0.002367  0  -0.004261  0.086215  0  4.000015  0
C  C108  1  0.94605801  0.80449203  0.86596826  1  0.034011  0  -0.005941  0.090479  0  4.003051  0
C  C109  1  0.98239471  0.74676091  0.82582584  1  -0.010856  0  -0.095255  -0.197485  0  3.98763  0
C  C110  1  0.91711076  0.77997628  0.70739734  1  -0.078358  0  -0.098518  -0.139646  0  4.012547  0
C  C111  1  0.88143698  0.83701999  0.74507238  1  -0.009543  0  -0.087114  -0.121169  0  3.988537  0
C  C112  1  0.24915962  0.84519253  0.77694743  1  0.435641  0  0.019233  -0.021852  0  3.937309  0
C  C113  1  0.76463576  0.93614272  0.01562423  1  0.404353  0  0.006251  -0.043764  0  3.987018  0
C  C114  1  0.80542498  0.95839046  0.97155418  1  0.021737  0  -0.033864  -0.034574  0  4.068329  0
C  C115  1  0.35140873  0.60656913  0.78514421  1  0.216497  0  -0.142741  -0.216249  0  3.967948  0
N  N116  1  0.72298776  0.04543634  0.00418266  1  -0.805112  0  -0.284921  -0.172412  0  3.616092  0
N  N117  1  0.48814522  0.98844574  0.14863336  1  -0.79466  0  -0.28063  -0.174  0  3.635924  0
N  N118  1  0.74041515  0.12130382  0.18265880  1  -0.813399  0  -0.287376  -0.200927  0  3.551649  0
N  N119  1  0.27748225  0.02347829  0.95553332  1  -0.803582  0  -0.302198  -0.192432  0  3.64231  0
N  N120  1  0.29762183  0.98596521  0.00859646  1  -0.759972  0  -0.278789  -0.209566  0  3.514055  0
N  N121  1  0.66908301  0.14414966  0.12931157  1  -0.81634  0  -0.281247  -0.221658  0  3.557736  0
N  N122  1  0.45705420  0.16191371  0.97559626  1  -0.770966  0  -0.272164  -0.218537  0  3.460872  0
N  N123  1  0.59016969  0.01423714  0.18617514  1  -0.792047  0  -0.26609  -0.180961  0  3.535354  0
N  N124  1  0.30493511  0.84459732  0.90004859  1  -0.815216  0  -0.265626  -0.147676  0  3.590367  0
N  N125  1  0.60141415  0.87006518  0.06634977  1  -0.805388  0  -0.285315  -0.182873  0  3.631218  0
N  N126  1  0.41386438  0.02055464  0.83285678  1  -0.763795  0  -0.285869  -0.230266  0  3.634622  0
N  N127  1  0.49935053  0.84816819  0.01673278  1  -0.793246  0  -0.27083  -0.207435  0  3.508701  0
N  N128  1  0.51117269  0.02177131  0.86476810  1  -0.754861  0  -0.268991  -0.206694  0  3.431818  0
N  N129  1  0.32485459  0.88522026  0.85748018  1  -0.762684  0  -0.255934  -0.212581  0  3.39156  0
N  N130  1  0.71489871  0.98788316  0.03429986  1  -0.775579  0  -0.272526  -0.203981  0  3.550286  0
N  N131  1  0.55055331  0.18199720  0.98614749  1  -0.822327  0  -0.289799  -0.17343  0  3.676419  0
N  N132  1  0.35988246  0.57924954  0.84962427  1  -1.1094  0  -0.461769  -0.320194  0  3.520054  0
Cl  Cl133  1  0.69807866  0.07680691  0.59132283  1  -0.202248  0  -0.019063  -0.084152  0  1.569182  0
Cl  Cl134  1  0.72566686  0.04707614  0.44109567  1  -0.210322  0  -0.018117  -0.083293  0  1.577172  0
Cl  Cl135  1  0.94066945  0.41445219  0.58491084  1  -0.231155  0  -0.030292  -0.113132  0  1.458767  0
Cl  Cl136  1  0.27020927  0.04761321  0.71707822  1  -0.207433  0  -0.002233  -0.08673  0  1.481206  0
