# generated using pymatgen
data_Li2H12C9O5
_symmetry_space_group_name_H-M   'P 1'
_cell_length_a   9.24389699
_cell_length_b   9.24575478
_cell_length_c   10.73742180
_cell_angle_alpha   90.00948539
_cell_angle_beta   89.98924510
_cell_angle_gamma   120.02577705
_symmetry_Int_Tables_number   1
_chemical_formula_structural   Li2H12C9O5
_chemical_formula_sum   'Li6 H36 C27 O15'
_cell_volume   794.53903650
_cell_formula_units_Z   3
loop_
 _symmetry_equiv_pos_site_id
 _symmetry_equiv_pos_as_xyz
  1  'x, y, z'
loop_
 _atom_site_type_symbol
 _atom_site_label
 _atom_site_symmetry_multiplicity
 _atom_site_fract_x
 _atom_site_fract_y
 _atom_site_fract_z
 _atom_site_occupancy
 _atom_site_hle17_bader_spin_density
 _atom_site_hle17_ddec_charge
 _atom_site_hle17_ddec_spin_density
 _atom_site_hle17_ddec_sum_bond_order
 _atom_site_hle17_magmom
 _atom_site_hse06_10hf_bader_spin_density
 _atom_site_hse06_10hf_ddec_charge
 _atom_site_hse06_10hf_ddec_spin_density
 _atom_site_hse06_10hf_ddec_sum_bond_order
 _atom_site_hse06_10hf_magmom
 _atom_site_hse06_bader_spin_density
 _atom_site_hse06_ddec_charge
 _atom_site_hse06_ddec_spin_density
 _atom_site_hse06_ddec_sum_bond_order
 _atom_site_hse06_magmom
 _atom_site_pbe_bader_spin_density
 _atom_site_pbe_cm5_charge
 _atom_site_pbe_ddec_charge
 _atom_site_pbe_ddec_spin_density
 _atom_site_pbe_ddec_sum_bond_order
 _atom_site_pbe_magmom
Li  Li0  1  0.87188292  0.97043134  0.41476030  1  0  0.851855  0  0.406552  0  0  0.809832  0  0.514171  0  0  0.819573  0  0.496962  0  0  0.514376  0.802849  0  0.526565  0
Li  Li1  1  0.02969653  0.90151791  0.08148637  1  0  0.851453  0  0.407506  0  0  0.809701  0  0.514981  0  0  0.819401  0  0.497803  0  0  0.515185  0.802678  0  0.527417  0
Li  Li2  1  0.09850933  0.12825573  0.74812491  1  0  0.851503  0  0.407209  0  0  0.809684  0  0.514686  0  0  0.819389  0  0.497519  0  0  0.514907  0.802726  0  0.52704  0
Li  Li3  1  0.18948221  0.10301735  0.28057150  1  0  0.854508  0  0.407179  0  0  0.812884  0  0.514497  0  0  0.822698  0  0.497038  0  0  0.519356  0.806006  0  0.526845  0
Li  Li4  1  0.89698341  0.08637125  0.94719931  1  0  0.853825  0  0.40831  0  0  0.812436  0  0.515381  0  0  0.822231  0  0.497953  0  0  0.519727  0.805601  0  0.527647  0
Li  Li5  1  0.91346677  0.81067770  0.61393211  1  0  0.854275  0  0.407599  0  0  0.812877  0  0.514489  0  0  0.822672  0  0.497054  0  0  0.519444  0.806063  0  0.52674  0
H  H6  1  0.77181553  0.93223759  0.19228767  1  0  0.373564  0  0.921412  0  0  0.34997  0  0.992636  0  0  0.360023  0  0.981179  0  0  0.309675  0.342416  0  1.001723  0
H  H7  1  0.06770241  0.83964296  0.85908270  1  0  0.373013  0  0.922034  0  0  0.348911  0  0.993881  0  0  0.358939  0  0.982473  0  0  0.309417  0.341389  0  1.002892  0
H  H8  1  0.16042275  0.22825185  0.52564625  1  0  0.373518  0  0.921021  0  0  0.349829  0  0.992394  0  0  0.359887  0  0.980915  0  0  0.309714  0.342285  0  1.001457  0
H  H9  1  0.32134558  0.03021298  0.46033253  1  0  0.356988  0  0.89838  0  0  0.339286  0  0.962293  0  0  0.346491  0  0.955002  0  0  0.312502  0.334323  0  0.967189  0
H  H10  1  0.96956956  0.29098107  0.12682766  1  0  0.357262  0  0.897001  0  0  0.339493  0  0.962071  0  0  0.346741  0  0.95463  0  0  0.312424  0.334472  0  0.967079  0
H  H11  1  0.70891694  0.67862521  0.79358011  1  0  0.358187  0  0.896044  0  0  0.33986  0  0.961566  0  0  0.347102  0  0.954157  0  0  0.312731  0.334864  0  0.966555  0
H  H12  1  0.18516745  0.67978665  0.19639345  1  0  0.091885  0  0.959071  0  0  0.105295  0  1.018145  0  0  0.108048  0  1.016332  0  0  0.111007  0.103518  0  1.019147  0
H  H13  1  0.32040787  0.50533462  0.86306460  1  0  0.092321  0  0.958361  0  0  0.105659  0  1.017448  0  0  0.108512  0  1.015493  0  0  0.111261  0.103841  0  1.018474  0
H  H14  1  0.49416259  0.81478508  0.52980639  1  0  0.092603  0  0.958527  0  0  0.105746  0  1.017817  0  0  0.108596  0  1.015911  0  0  0.111212  0.103908  0  1.01888  0
H  H15  1  0.22400492  0.43275461  0.21204222  1  0  0.103489  0  0.985976  0  0  0.111157  0  1.051591  0  0  0.114019  0  1.051713  0  0  0.104322  0.109274  0  1.051525  0
H  H16  1  0.56750505  0.79135773  0.87893103  1  0  0.103292  0  0.985963  0  0  0.110745  0  1.052121  0  0  0.113554  0  1.052267  0  0  0.104242  0.108882  0  1.052055  0
H  H17  1  0.20822734  0.77605089  0.54561635  1  0  0.103485  0  0.985824  0  0  0.110962  0  1.051969  0  0  0.113756  0  1.052136  0  0  0.104315  0.109094  0  1.051899  0
H  H18  1  0.88114217  0.25184897  0.52237296  1  0  0.104537  0  0.970648  0  0  0.115242  0  1.031467  0  0  0.118273  0  1.03122  0  0  0.110456  0.113279  0  1.031627  0
H  H19  1  0.74868195  0.62922182  0.18877829  1  0  0.1047  0  0.970678  0  0  0.115454  0  1.031422  0  0  0.118431  0  1.031262  0  0  0.110422  0.113498  0  1.031557  0
H  H20  1  0.37086057  0.11941038  0.85560110  1  0  0.104715  0  0.970526  0  0  0.11531  0  1.031503  0  0  0.118356  0  1.031246  0  0  0.110471  0.113342  0  1.031653  0
H  H21  1  0.85246267  0.50454863  0.50934544  1  0  0.083475  0  0.968512  0  0  0.097399  0  1.027523  0  0  0.100379  0  1.025181  0  0  0.10988  0.095372  0  1.029096  0
H  H22  1  0.49585254  0.34773631  0.17564236  1  0  0.083959  0  0.968292  0  0  0.09821  0  1.026836  0  0  0.101097  0  1.024661  0  0  0.109897  0.096222  0  1.028371  0
H  H23  1  0.65211365  0.14763288  0.84262385  1  0  0.083724  0  0.968633  0  0  0.09767  0  1.027494  0  0  0.100655  0  1.025151  0  0  0.109832  0.095627  0  1.029114  0
H  H24  1  0.50773264  0.85690156  0.17353282  1  0  0.065028  0  0.948293  0  0  0.082969  0  1.014769  0  0  0.083234  0  1.015157  0  0  0.095966  0.08264  0  1.014584  0
H  H25  1  0.14302143  0.65099640  0.84018529  1  0  0.06422  0  0.949872  0  0  0.082768  0  1.01569  0  0  0.082971  0  1.016169  0  0  0.095842  0.082453  0  1.015482  0
H  H26  1  0.34927143  0.49222035  0.50681194  1  0  0.063867  0  0.949287  0  0  0.082756  0  1.014903  0  0  0.082991  0  1.015341  0  0  0.096071  0.082445  0  1.014692  0
H  H27  1  0.50709895  0.93140037  0.32643149  1  0  0.075957  0  0.956624  0  0  0.094368  0  1.0217  0  0  0.094974  0  1.021708  0  0  0.098755  0.093599  0  1.022091  0
H  H28  1  0.06848870  0.57573782  0.99303735  1  0  0.07571  0  0.956058  0  0  0.094041  0  1.021215  0  0  0.094675  0  1.02117  0  0  0.098532  0.093275  0  1.021616  0
H  H29  1  0.42448477  0.49300364  0.65969366  1  0  0.075545  0  0.956384  0  0  0.094055  0  1.021314  0  0  0.094679  0  1.021301  0  0  0.098556  0.093315  0  1.021666  0
H  H30  1  0.49635117  0.73370525  0.30451265  1  0  0.058209  0  0.951027  0  0  0.074879  0  1.020118  0  0  0.075333  0  1.02066  0  0  0.089615  0.074215  0  1.02018  0
H  H31  1  0.26628405  0.76281413  0.97119240  1  0  0.058907  0  0.950197  0  0  0.075007  0  1.019993  0  0  0.075459  0  1.020514  0  0  0.089663  0.074342  0  1.020064  0
H  H32  1  0.23742877  0.50364123  0.63779736  1  0  0.058818  0  0.949319  0  0  0.074562  0  1.019544  0  0  0.075062  0  1.020033  0  0  0.089414  0.07386  0  1.019649  0
H  H33  1  0.57432117  0.21067398  0.50311084  1  0  0.070322  0  0.969236  0  0  0.085555  0  1.042103  0  0  0.084869  0  1.044618  0  0  0.096872  0.085916  0  1.040581  0
H  H34  1  0.78924204  0.36329263  0.17003930  1  0  0.070454  0  0.969838  0  0  0.085682  0  1.042545  0  0  0.085028  0  1.045026  0  0  0.096888  0.086006  0  1.041088  0
H  H35  1  0.63649412  0.42587949  0.83660623  1  0  0.070848  0  0.970017  0  0  0.085831  0  1.042698  0  0  0.085163  0  1.04523  0  0  0.096866  0.086171  0  1.0412  0
H  H36  1  0.50790279  0.35396766  0.45498263  1  0  0.074357  0  0.93923  0  0  0.093812  0  1.001511  0  0  0.094823  0  1.000659  0  0  0.100571  0.093099  0  1.0021  0
H  H37  1  0.64564350  0.15348283  0.12200486  1  0  0.074633  0  0.939353  0  0  0.094074  0  1.001579  0  0  0.095071  0  1.00079  0  0  0.100681  0.093374  0  1.002124  0
H  H38  1  0.84627767  0.49234482  0.78837761  1  0  0.074638  0  0.939328  0  0  0.094123  0  1.001413  0  0  0.095209  0  1.000501  0  0  0.100493  0.093374  0  1.002023  0
H  H39  1  0.60660436  0.28268254  0.34668661  1  0  0.070159  0  0.960413  0  0  0.089095  0  1.026465  0  0  0.088735  0  1.027806  0  0  0.09733  0.089024  0  1.026231  0
H  H40  1  0.71683359  0.32348182  0.01371241  1  0  0.071093  0  0.959625  0  0  0.089701  0  1.025866  0  0  0.089388  0  1.027158  0  0  0.097378  0.0896  0  1.025662  0
H  H41  1  0.67611286  0.39333462  0.68020190  1  0  0.071292  0  0.958332  0  0  0.089722  0  1.024837  0  0  0.08941  0  1.026138  0  0  0.097289  0.08961  0  1.024624  0
C  C42  1  0.00087135  0.76098722  0.34642032  1  0  0.709967  0  3.918501  0  0  0.66357  0  4.214346  0  0  0.696919  0  4.204257  0  0  0.228345  0.640857  0  4.2206  0
C  C43  1  0.23912983  0.23973270  0.01305956  1  0  0.710327  0  3.91763  0  0  0.663905  0  4.213698  0  0  0.697239  0  4.203661  0  0  0.228883  0.641199  0  4.219925  0
C  C44  1  0.75988564  0.99907772  0.67973256  1  0  0.710663  0  3.918161  0  0  0.66439  0  4.213813  0  0  0.697728  0  4.203753  0  0  0.229276  0.641702  0  4.220041  0
C  C45  1  0.01545886  0.60865053  0.35108447  1  0  -0.149727  0  3.822948  0  0  -0.127679  0  4.061589  0  0  -0.141306  0  4.087991  0  0  -0.041746  -0.119155  0  4.043762  0
C  C46  1  0.39164743  0.40666761  0.01758816  1  0  -0.148657  0  3.822777  0  0  -0.127072  0  4.062101  0  0  -0.140682  0  4.088515  0  0  -0.041698  -0.118599  0  4.04432  0
C  C47  1  0.59293596  0.98448821  0.68447426  1  0  -0.150045  0  3.82273  0  0  -0.127857  0  4.061252  0  0  -0.141476  0  4.087666  0  0  -0.041971  -0.119362  0  4.043444  0
C  C48  1  0.11765343  0.58450350  0.26675444  1  0  -0.031214  0  3.773795  0  0  -0.055329  0  4.017009  0  0  -0.050459  0  4.037016  0  0  -0.077984  -0.057853  0  4.002506  0
C  C49  1  0.41574990  0.53307465  0.93336906  1  0  -0.032028  0  3.772908  0  0  -0.05588  0  4.015887  0  0  -0.051072  0  4.03583  0  0  -0.077977  -0.058352  0  4.001459  0
C  C50  1  0.46645544  0.88229933  0.60018135  1  0  -0.031597  0  3.773013  0  0  -0.055592  0  4.016212  0  0  -0.050789  0  4.036132  0  0  -0.078013  -0.05807  0  4.001778  0
C  C51  1  0.13727408  0.44496084  0.27430619  1  0  -0.268695  0  3.765239  0  0  -0.275763  0  4.009218  0  0  -0.285537  0  4.028634  0  0  -0.115506  -0.269071  0  3.995154  0
C  C52  1  0.55537381  0.69232043  0.94102832  1  0  -0.268665  0  3.766162  0  0  -0.275662  0  4.01019  0  0  -0.285366  0  4.029642  0  0  -0.115617  -0.269001  0  3.996067  0
C  C53  1  0.30732895  0.86288223  0.60775794  1  0  -0.268778  0  3.765978  0  0  -0.275977  0  4.010368  0  0  -0.285655  0  4.029797  0  0  -0.115477  -0.269321  0  3.996276  0
C  C54  1  0.05308042  0.32110754  0.36744198  1  0  0.397421  0  3.89823  0  0  0.387176  0  4.154489  0  0  0.403794  0  4.167136  0  0  0.096037  0.376137  0  4.144465  0
C  C55  1  0.67931792  0.73201615  0.03407995  1  0  0.397402  0  3.897237  0  0  0.387088  0  4.153639  0  0  0.403748  0  4.166188  0  0  0.09619  0.376032  0  4.143643  0
C  C56  1  0.26781345  0.94721731  0.70084908  1  0  0.398009  0  3.897437  0  0  0.387505  0  4.153957  0  0  0.404148  0  4.166497  0  0  0.096188  0.376464  0  4.144003  0
C  C57  1  0.94762904  0.34575278  0.45078912  1  0  -0.220186  0  3.729051  0  0  -0.23444  0  3.977979  0  0  -0.244162  0  3.999335  0  0  -0.102562  -0.228256  0  3.963111  0
C  C58  1  0.65473593  0.60180224  0.11726210  1  0  -0.220495  0  3.728664  0  0  -0.23482  0  3.97782  0  0  -0.244504  0  3.999143  0  0  -0.102407  -0.228627  0  3.962956  0
C  C59  1  0.39811290  0.05274244  0.78408443  1  0  -0.221112  0  3.729037  0  0  -0.235223  0  3.978065  0  0  -0.244978  0  3.999431  0  0  -0.102965  -0.229015  0  3.963162  0
C  C60  1  0.93185805  0.48659712  0.44346067  1  0  -0.050463  0  3.808354  0  0  -0.072596  0  4.053477  0  0  -0.068069  0  4.07356  0  0  -0.080751  -0.074887  0  4.039763  0
C  C61  1  0.51380891  0.44513351  0.10982944  1  0  -0.051894  0  3.809394  0  0  -0.0741  0  4.054709  0  0  -0.069551  0  4.074828  0  0  -0.08146  -0.076413  0  4.040958  0
C  C62  1  0.55464079  0.06820516  0.77681324  1  0  -0.050439  0  3.80868  0  0  -0.072674  0  4.053758  0  0  -0.068182  0  4.073868  0  0  -0.080804  -0.074944  0  4.040011  0
C  C63  1  0.55154346  0.86276681  0.26965799  1  0  -0.010861  0  3.692877  0  0  -0.10191  0  3.964576  0  0  -0.096727  0  3.970167  0  0  -0.144657  -0.105298  0  3.961543  0
C  C64  1  0.13718277  0.68891261  0.93633538  1  0  -0.010456  0  3.693255  0  0  -0.101394  0  3.96478  0  0  -0.096187  0  3.970379  0  0  -0.144406  -0.104818  0  3.961742  0
C  C65  1  0.31133460  0.44847621  0.60296160  1  0  -0.010155  0  3.691287  0  0  -0.101265  0  3.962626  0  0  -0.096119  0  3.968264  0  0  -0.144768  -0.104654  0  3.959583  0
C  C66  1  0.52095002  0.24687553  0.42614859  1  0  -0.014305  0  3.663841  0  0  -0.108414  0  3.936029  0  0  -0.102385  0  3.940397  0  0  -0.141428  -0.112491  0  3.933301  0
C  C67  1  0.75274638  0.27363585  0.09307045  1  0  -0.016142  0  3.664598  0  0  -0.109745  0  3.936696  0  0  -0.103816  0  3.941072  0  0  -0.141642  -0.11377  0  3.933962  0
C  C68  1  0.72604383  0.47912967  0.75956195  1  0  -0.017262  0  3.664385  0  0  -0.110518  0  3.936562  0  0  -0.104635  0  3.940909  0  0  -0.141859  -0.114499  0  3.93385  0
O  O69  1  0.05602299  0.85659132  0.25123223  1  0  -0.802242  0  1.985879  0  0  -0.756068  0  2.236228  0  0  -0.775431  0  2.219325  0  0  -0.445491  -0.742148  0  2.246592  0
O  O70  1  0.14328901  0.19930821  0.91801164  1  0  -0.802041  0  1.985055  0  0  -0.755732  0  2.235179  0  0  -0.77501  0  2.218154  0  0  -0.44565  -0.741929  0  2.245705  0
O  O71  1  0.80027528  0.94387621  0.58453772  1  0  -0.802836  0  1.985675  0  0  -0.75622  0  2.234941  0  0  -0.775574  0  2.218074  0  0  -0.445472  -0.742389  0  2.245369  0
O  O72  1  0.93560751  0.79502224  0.43889092  1  0  -0.799898  0  1.967087  0  0  -0.752108  0  2.211292  0  0  -0.77128  0  2.194212  0  0  -0.445764  -0.739277  0  2.223256  0
O  O73  1  0.20525023  0.14041561  0.10547499  1  0  -0.800208  0  1.966857  0  0  -0.752419  0  2.211385  0  0  -0.771569  0  2.194229  0  0  -0.446511  -0.739553  0  2.223386  0
O  O74  1  0.85936728  0.06448578  0.77210289  1  0  -0.800002  0  1.966636  0  0  -0.752414  0  2.210889  0  0  -0.771586  0  2.193792  0  0  -0.446494  -0.739571  0  2.222863  0
O  O75  1  0.07513516  0.19091127  0.37966012  1  0  -0.813503  0  2.01731  0  0  -0.761661  0  2.258333  0  0  -0.781021  0  2.246061  0  0  -0.466088  -0.747284  0  2.266292  0
O  O76  1  0.80945719  0.88438663  0.04635140  1  0  -0.812716  0  2.017525  0  0  -0.760898  0  2.258462  0  0  -0.780292  0  2.246247  0  0  -0.466135  -0.746499  0  2.266409  0
O  O77  1  0.11551740  0.92512468  0.71317467  1  0  -0.81345  0  2.017843  0  0  -0.761452  0  2.258932  0  0  -0.780895  0  2.24688  0  0  -0.466232  -0.747076  0  2.266762  0
O  O78  1  0.73030676  0.94793963  0.27439006  1  0  -0.605403  0  2.105707  0  0  -0.546348  0  2.340103  0  0  -0.561635  0  2.328698  0  0  -0.47237  -0.536642  0  2.348782  0
O  O79  1  0.05202693  0.78242524  0.94116757  1  0  -0.604731  0  2.106773  0  0  -0.545286  0  2.342009  0  0  -0.560552  0  2.330668  0  0  -0.472271  -0.535553  0  2.350596  0
O  O80  1  0.21767387  0.26974196  0.60774716  1  0  -0.605312  0  2.105715  0  0  -0.546224  0  2.340243  0  0  -0.561513  0  2.328898  0  0  -0.472203  -0.53652  0  2.348873  0
O  O81  1  0.36268302  0.10794085  0.38983922  1  0  -0.575063  0  2.122159  0  0  -0.519907  0  2.355502  0  0  -0.533892  0  2.344599  0  0  -0.460778  -0.509857  0  2.36284  0
O  O82  1  0.89157580  0.25432767  0.05649043  1  0  -0.574404  0  2.121162  0  0  -0.519848  0  2.3535  0  0  -0.533778  0  2.342567  0  0  -0.460598  -0.509806  0  2.360951  0
O  O83  1  0.74525854  0.63723461  0.72308338  1  0  -0.574994  0  2.121614  0  0  -0.519751  0  2.354386  0  0  -0.533781  0  2.343606  0  0  -0.460719  -0.509676  0  2.361641  0
