# generated using pymatgen
data_ZnH16C11(NO)4
_symmetry_space_group_name_H-M   'P 1'
_cell_length_a   10.25634087
_cell_length_b   17.11130799
_cell_length_c   17.11113659
_cell_angle_alpha   116.12314011
_cell_angle_beta   101.51604594
_cell_angle_gamma   101.51615431
_symmetry_Int_Tables_number   1
_chemical_formula_structural   ZnH16C11(NO)4
_chemical_formula_sum   'Zn6 H96 C66 N24 O24'
_cell_volume   2496.86079022
_cell_formula_units_Z   6
loop_
 _symmetry_equiv_pos_site_id
 _symmetry_equiv_pos_as_xyz
  1  'x, y, z'
loop_
 _atom_site_type_symbol
 _atom_site_label
 _atom_site_symmetry_multiplicity
 _atom_site_fract_x
 _atom_site_fract_y
 _atom_site_fract_z
 _atom_site_occupancy
 _atom_site_pbe_bader_charge
 _atom_site_pbe_bader_spin_density
 _atom_site_pbe_cm5_charge
 _atom_site_pbe_ddec_charge
 _atom_site_pbe_ddec_spin_density
 _atom_site_pbe_ddec_sum_bond_order
 _atom_site_pbe_magmom
Zn  Zn0  1  0.83831674  0.68216268  0.30540391  1  1.261614  0  0.721432  0.755227  0  2.47245  0
Zn  Zn1  1  0.53293253  0.69477209  0.37697521  1  1.262638  0  0.720364  0.753717  0  2.472675  0
Zn  Zn2  1  0.15600630  0.62293909  0.31780806  1  1.261911  0  0.719416  0.752184  0  2.472086  0
Zn  Zn3  1  0.65600433  0.31780584  0.62293472  1  1.261947  0  0.719365  0.752054  0  2.472243  0
Zn  Zn4  1  0.33831999  0.30540219  0.68216510  1  1.261627  0  0.721501  0.755435  0  2.472213  0
Zn  Zn5  1  0.03292714  0.37696765  0.69477280  1  1.262617  0  0.720334  0.753778  0  2.472633  0
H  H6  1  0.47292819  0.34212393  0.88481149  1  0.157583  0  0.121114  0.115129  0  1.058056  0
H  H7  1  0.58823132  0.11518804  0.45697764  1  0.147945  0  0.120382  0.114333  0  1.05731  0
H  H8  1  0.13049931  0.54281694  0.65797593  1  0.146798  0  0.120308  0.114094  0  1.0567  0
H  H9  1  0.63050645  0.65797331  0.54282491  1  0.147208  0  0.12024  0.114022  0  1.056744  0
H  H10  1  0.97291496  0.88480496  0.34211968  1  0.157486  0  0.121132  0.115173  0  1.057914  0
H  H11  1  0.08823756  0.45698339  0.11518815  1  0.148006  0  0.120391  0.114311  0  1.057305  0
H  H12  1  0.61687412  0.38758410  0.02835827  1  0.512971  0  0.309053  0.284841  0  0.978286  0
H  H13  1  0.58869610  0.97161882  0.35922534  1  0.515959  0  0.309172  0.284926  0  0.97744  0
H  H14  1  0.22904635  0.64110644  0.61253178  1  0.514785  0  0.309518  0.285478  0  0.977128  0
H  H15  1  0.72905026  0.61252258  0.64110550  1  0.514819  0  0.309477  0.285424  0  0.976961  0
H  H16  1  0.11687255  0.02836167  0.38758756  1  0.512903  0  0.309072  0.28481  0  0.97834  0
H  H17  1  0.08870272  0.35922765  0.97162370  1  0.516074  0  0.309175  0.284925  0  0.97741  0
H  H18  1  0.88190300  0.37596999  0.12435614  1  0.096484  0  0.116858  0.11013  0  1.012012  0
H  H19  1  0.75766052  0.87533735  0.25164592  1  0.088043  0  0.117625  0.110881  0  1.012595  0
H  H20  1  0.50568038  0.74841544  0.62375565  1  0.081895  0  0.116993  0.110095  0  1.012672  0
H  H21  1  0.00568180  0.62374595  0.74842071  1  0.082122  0  0.116996  0.110091  0  1.012729  0
H  H22  1  0.38189480  0.12434975  0.37595921  1  0.096592  0  0.116878  0.110163  0  1.011968  0
H  H23  1  0.25767546  0.25165425  0.87534530  1  0.087861  0  0.11762  0.110852  0  1.012579  0
H  H24  1  0.72684657  0.36805166  0.15550430  1  0.186323  0  0.120825  0.131482  0  1.03281  0
H  H25  1  0.57147223  0.84428798  0.21250720  1  0.184564  0  0.121481  0.131881  0  1.032489  0
H  H26  1  0.35878777  0.78773991  0.63181790  1  0.193333  0  0.121179  0.132418  0  1.033627  0
H  H27  1  0.85878496  0.63180864  0.78774337  1  0.194259  0  0.121139  0.132381  0  1.03365  0
H  H28  1  0.22684368  0.15550246  0.36805011  1  0.185977  0  0.120813  0.131473  0  1.032823  0
H  H29  1  0.07148527  0.21250626  0.84429335  1  0.184407  0  0.121496  0.131949  0  1.032511  0
H  H30  1  0.85611336  0.35638479  0.81317690  1  0.159043  0  0.119968  0.114553  0  1.036018  0
H  H31  1  0.04300946  0.18669698  0.54323196  1  0.161722  0  0.120305  0.11413  0  1.036672  0
H  H32  1  0.49971088  0.45722100  0.64367678  1  0.141209  0  0.120939  0.11558  0  1.035641  0
H  H33  1  0.99972651  0.64368727  0.45723299  1  0.141136  0  0.120938  0.115563  0  1.035608  0
H  H34  1  0.35610863  0.81318060  0.35638182  1  0.159195  0  0.119975  0.114577  0  1.036009  0
H  H35  1  0.54301349  0.54322606  0.18670486  1  0.161833  0  0.120319  0.114129  0  1.036642  0
H  H36  1  0.11645377  0.80814199  0.61561988  1  0.066193  0  0.109299  0.030267  0  1.018021  0
H  H37  1  0.50099854  0.38430560  0.19264040  1  0.06356  0  0.108609  0.028898  0  1.018098  0
H  H38  1  0.30840934  0.80735194  0.19190888  1  0.049399  0  0.108927  0.030535  0  1.017422  0
H  H39  1  0.80841964  0.19191471  0.80735063  1  0.058118  0  0.108905  0.030555  0  1.017379  0
H  H40  1  0.61643016  0.61561680  0.80813917  1  0.066143  0  0.109299  0.030264  0  1.017973  0
H  H41  1  0.00100276  0.19265099  0.38431466  1  0.063594  0  0.108587  0.028901  0  1.018064  0
H  H42  1  0.91695412  0.94511014  0.69117954  1  0.079333  0  0.106343  0.085935  0  1.026276  0
H  H43  1  0.22599241  0.30899857  0.25416515  1  0.094379  0  0.106752  0.08587  0  1.025396  0
H  H44  1  0.97196431  0.74573881  0.05495773  1  0.056116  0  0.105201  0.084533  0  1.025316  0
H  H45  1  0.47197698  0.05496522  0.74573974  1  0.056337  0  0.105155  0.084494  0  1.0254  0
H  H46  1  0.41694524  0.69118290  0.94511909  1  0.079464  0  0.106263  0.085829  0  1.026292  0
H  H47  1  0.72599649  0.25416993  0.30900310  1  0.094272  0  0.106799  0.08594  0  1.025317  0
H  H48  1  0.92098438  0.83522016  0.61297286  1  0.049204  0  0.098555  0.068407  0  1.025753  0
H  H49  1  0.30820510  0.38703894  0.22231535  1  0.033324  0  0.098134  0.067983  0  1.025331  0
H  H50  1  0.08584732  0.77742140  0.16483332  1  0.058066  0  0.098131  0.067529  0  1.025513  0
H  H51  1  0.58585743  0.16483865  0.77741438  1  0.057395  0  0.098204  0.067654  0  1.02547  0
H  H52  1  0.42096640  0.61297397  0.83522305  1  0.049605  0  0.098496  0.06838  0  1.025694  0
H  H53  1  0.80821377  0.22233004  0.38705083  1  0.033338  0  0.098104  0.067967  0  1.025416  0
H  H54  1  0.80265038  0.90316756  0.52714266  1  0.069997  0  0.086138  0.122853  0  1.018254  0
H  H55  1  0.27570918  0.47306747  0.37607606  1  0.032746  0  0.087248  0.124322  0  1.017979  0
H  H56  1  0.89984815  0.62352788  0.09675497  1  0.046445  0  0.085502  0.122061  0  1.017892  0
H  H57  1  0.39985172  0.09675348  0.62352128  1  0.046108  0  0.085546  0.122129  0  1.017865  0
H  H58  1  0.30263416  0.52714945  0.90317387  1  0.069714  0  0.086154  0.122871  0  1.018102  0
H  H59  1  0.77570487  0.37608674  0.47306675  1  0.032434  0  0.087232  0.124279  0  1.018021  0
H  H60  1  0.95575921  0.00156523  0.58104057  1  0.03866  0  0.090244  0.127324  0  0.999027  0
H  H61  1  0.37504499  0.41932562  0.42073639  1  0.037675  0  0.090022  0.128006  0  0.999268  0
H  H62  1  0.95467994  0.57916118  0.99837489  1  0.074131  0  0.08999  0.127237  0  0.999869  0
H  H63  1  0.45468179  0.99837276  0.57915665  1  0.074418  0  0.089972  0.127209  0  0.99984  0
H  H64  1  0.45574389  0.58104072  0.00157035  1  0.038537  0  0.090314  0.127482  0  0.998887  0
H  H65  1  0.87504157  0.42074317  0.41932187  1  0.037875  0  0.089988  0.127993  0  0.999348  0
H  H66  1  0.96149477  0.89194734  0.50366258  1  0.040534  0  0.080066  0.107689  0  1.031925  0
H  H67  1  0.45799740  0.49654767  0.38830568  1  0.019872  0  0.080584  0.108787  0  1.033064  0
H  H68  1  0.06997043  0.61138435  0.10796437  1  0.016564  0  0.079762  0.108295  0  1.032531  0
H  H69  1  0.56997225  0.10795879  0.61137247  1  0.017763  0  0.079732  0.108314  0  1.032467  0
H  H70  1  0.46147146  0.50366284  0.89195044  1  0.040839  0  0.080052  0.107688  0  1.031824  0
H  H71  1  0.95799606  0.38832184  0.49655366  1  0.020037  0  0.080568  0.108724  0  1.033129  0
H  H72  1  0.11288387  0.07550309  0.73390914  1  0.07294  0  0.109225  0.089793  0  1.007919  0
H  H73  1  0.37864101  0.26598820  0.34154283  1  0.089615  0  0.109361  0.08936  0  1.007416  0
H  H74  1  0.03739304  0.65843259  0.92463281  1  0.077617  0  0.109771  0.090636  0  1.007454  0
H  H75  1  0.53740661  0.92463930  0.65842922  1  0.077651  0  0.109776  0.090534  0  1.00754  0
H  H76  1  0.61287764  0.73390835  0.07550553  1  0.073141  0  0.109233  0.08983  0  1.007896  0
H  H77  1  0.87863874  0.34154395  0.26598642  1  0.08955  0  0.109331  0.089287  0  1.007414  0
H  H78  1  0.27055932  0.05972386  0.71293696  1  0.048194  0  0.103664  0.074104  0  1.006914  0
H  H79  1  0.55735490  0.28686885  0.34694820  1  0.038524  0  0.103322  0.074424  0  1.006849  0
H  H80  1  0.21067960  0.65300272  0.94013606  1  0.034551  0  0.103494  0.073976  0  1.007986  0
H  H81  1  0.71069583  0.94014464  0.65300288  1  0.034464  0  0.103482  0.073966  0  1.008059  0
H  H82  1  0.77055060  0.71293182  0.05972330  1  0.048249  0  0.103667  0.074108  0  1.00697  0
H  H83  1  0.05735543  0.34695057  0.28686622  1  0.038357  0  0.103328  0.074364  0  1.006879  0
H  H84  1  0.31780490  0.13939918  0.88143467  1  0.002009  0  0.088694  0.120888  0  1.012315  0
H  H85  1  0.43626323  0.11845823  0.25795604  1  0.022918  0  0.088022  0.120538  0  1.012874  0
H  H86  1  0.17843507  0.74191649  0.86061816  1  0.050458  0  0.088064  0.120276  0  1.013223  0
H  H87  1  0.67843797  0.86062909  0.74191946  1  0.050638  0  0.087998  0.120221  0  1.013248  0
H  H88  1  0.81780730  0.88142823  0.13939768  1  0.001945  0  0.088677  0.120938  0  1.012235  0
H  H89  1  0.93625210  0.25795179  0.11845365  1  0.022901  0  0.088017  0.120479  0  1.012961  0
H  H90  1  0.17067477  0.05505406  0.86980781  1  0.022727  0  0.092188  0.129136  0  0.994171  0
H  H91  1  0.30080923  0.13008673  0.18520796  1  0.008035  0  0.091889  0.128519  0  0.993361  0
H  H92  1  0.11584056  0.81474674  0.94505483  1  0.039679  0  0.091805  0.128285  0  0.992707  0
H  H93  1  0.61585558  0.94507356  0.81475113  1  0.039503  0  0.091754  0.128154  0  0.992735  0
H  H94  1  0.67067516  0.86980544  0.05505630  1  0.02278  0  0.092199  0.129171  0  0.994105  0
H  H95  1  0.80080776  0.18520586  0.13009028  1  0.007998  0  0.09188  0.128516  0  0.993319  0
H  H96  1  0.32159730  0.02582027  0.84572476  1  0.048074  0  0.091076  0.124146  0  1.018081  0
H  H97  1  0.47584997  0.15420030  0.18014104  1  0.047846  0  0.09034  0.123304  0  1.017595  0
H  H98  1  0.29592031  0.81975855  0.97415393  1  0.054798  0  0.090173  0.123193  0  1.017959  0
H  H99  1  0.79593368  0.97416225  0.81975916  1  0.054562  0  0.090158  0.123132  0  1.017949  0
H  H100  1  0.82159085  0.84571662  0.02581526  1  0.047998  0  0.091061  0.124146  0  1.018096  0
H  H101  1  0.97585232  0.18014372  0.15420157  1  0.047848  0  0.090335  0.123291  0  1.017585  0
C  C102  1  0.85374127  0.50486266  0.20253529  1  1.550285  0  0.228798  0.632565  0  4.096328  0
C  C103  1  0.65115208  0.79747385  0.30254804  1  1.555211  0  0.233413  0.635561  0  4.093933  0
C  C104  1  0.34832466  0.69749572  0.49497147  1  1.561282  0  0.232814  0.634665  0  4.09685  0
C  C105  1  0.84831852  0.49496363  0.69749225  1  1.560817  0  0.232612  0.634453  0  4.096992  0
C  C106  1  0.35374734  0.20253513  0.50485962  1  1.550151  0  0.228947  0.632774  0  4.096145  0
C  C107  1  0.15115696  0.30255197  0.79748078  1  1.55584  0  0.233503  0.635658  0  4.093786  0
C  C108  1  0.55317800  0.34178770  0.85162560  1  0.403607  0  0.021252  -0.013776  0  3.946625  0
C  C109  1  0.70162968  0.14835236  0.48989807  1  0.430463  0  0.020854  -0.014297  0  3.946471  0
C  C110  1  0.21118827  0.51004771  0.65832633  1  0.460564  0  0.020685  -0.01364  0  3.945342  0
C  C111  1  0.71119662  0.65832717  0.51005635  1  0.4596  0  0.020741  -0.01362  0  3.945199  0
C  C112  1  0.05316876  0.85162191  0.34178506  1  0.403206  0  0.021229  -0.013897  0  3.946585  0
C  C113  1  0.20163193  0.48990187  0.14835409  1  0.430318  0  0.020895  -0.014195  0  3.946401  0
C  C114  1  0.79460956  0.40355429  0.12987879  1  0.275487  0  -0.062954  -0.179162  0  3.928085  0
C  C115  1  0.66480981  0.86995385  0.27368110  1  0.304551  0  -0.065483  -0.181173  0  3.930216  0
C  C116  1  0.39081608  0.72646900  0.59634871  1  0.28751  0  -0.064382  -0.179973  0  3.92855  0
C  C117  1  0.89081774  0.59634176  0.72647172  1  0.286685  0  -0.064257  -0.179783  0  3.928413  0
C  C118  1  0.29460775  0.12987494  0.40354914  1  0.275719  0  -0.062943  -0.179163  0  3.927971  0
C  C119  1  0.16481937  0.27368279  0.86996013  1  0.304884  0  -0.065481  -0.181198  0  3.93021  0
C  C120  1  0.69718450  0.35584284  0.88636101  1  -0.009754  0  -0.042496  -0.152397  0  4.080913  0
C  C121  1  0.81093473  0.11359365  0.46928024  1  -0.010019  0  -0.042228  -0.151215  0  4.081079  0
C  C122  1  0.34115169  0.53084631  0.64431484  1  -0.037069  0  -0.042636  -0.151237  0  4.081143  0
C  C123  1  0.84116619  0.64432028  0.53085563  1  -0.037084  0  -0.042604  -0.151315  0  4.081226  0
C  C124  1  0.19717282  0.88636022  0.35584053  1  -0.00976  0  -0.042515  -0.15255  0  4.081005  0
C  C125  1  0.31093888  0.46928063  0.11359816  1  -0.009792  0  -0.042185  -0.151192  0  4.081042  0
C  C126  1  0.74903286  0.34880156  0.81449052  1  0.405122  0  0.022011  -0.005953  0  3.965144  0
C  C127  1  0.93458987  0.18539945  0.53422196  1  0.386878  0  0.023721  -0.004957  0  3.962275  0
C  C128  1  0.40017196  0.46604512  0.65129290  1  0.429248  0  0.02205  -0.007669  0  3.965642  0
C  C129  1  0.90018227  0.65129934  0.46605440  1  0.429652  0  0.022048  -0.00761  0  3.96565  0
C  C130  1  0.24902562  0.81449208  0.34879951  1  0.405088  0  0.021999  -0.005969  0  3.965178  0
C  C131  1  0.43459486  0.53422050  0.18540616  1  0.386815  0  0.023685  -0.004949  0  3.962064  0
C  C132  1  0.78197022  0.37279771  0.97569574  1  1.408284  0  0.236744  0.490915  0  4.182334  0
C  C133  1  0.80637703  0.02424685  0.39687540  1  1.39867  0  0.237603  0.491061  0  4.182524  0
C  C134  1  0.40899341  0.60331282  0.62748142  1  1.384724  0  0.239197  0.492215  0  4.177095  0
C  C135  1  0.90900832  0.62748708  0.60332420  1  1.383839  0  0.239232  0.492427  0  4.177217  0
C  C136  1  0.28196083  0.97569309  0.37279541  1  1.408147  0  0.236697  0.490974  0  4.182263  0
C  C137  1  0.30638482  0.39687414  0.02425326  1  1.398732  0  0.237628  0.491096  0  4.182764  0
C  C138  1  0.18527245  0.88108803  0.66047490  1  1.371045  0  0.164994  0.29721  0  4.155173  0
C  C139  1  0.52491210  0.33942886  0.22070952  1  1.369558  0  0.16612  0.298948  0  4.155252  0
C  C140  1  0.30433309  0.77927796  0.11896089  1  1.398832  0  0.164426  0.295049  0  4.15558  0
C  C141  1  0.80434524  0.11896913  0.77927447  1  1.389602  0  0.16454  0.295166  0  4.155528  0
C  C142  1  0.68525367  0.66046763  0.88108345  1  1.370876  0  0.164955  0.297136  0  4.155079  0
C  C143  1  0.02491747  0.22071694  0.33943465  1  1.369651  0  0.166094  0.298841  0  4.155297  0
C  C144  1  0.96057380  0.90927992  0.63720774  1  0.311072  0  -0.065975  -0.03083  0  3.944341  0
C  C145  1  0.32356701  0.36289971  0.27221376  1  0.3023  0  -0.064377  -0.02822  0  3.943018  0
C  C146  1  0.05147958  0.72764155  0.09076323  1  0.309221  0  -0.061999  -0.025265  0  3.937465  0
C  C147  1  0.55149133  0.09076776  0.72763799  1  0.309548  0  -0.062091  -0.025569  0  3.937701  0
C  C148  1  0.46055843  0.63720722  0.90928370  1  0.310526  0  -0.0658  -0.030579  0  3.944102  0
C  C149  1  0.82357203  0.27222228  0.36290475  1  0.302318  0  -0.064393  -0.028339  0  3.943129  0
C  C150  1  0.91782989  0.92765980  0.55776941  1  -0.113845  0  -0.248108  -0.378428  0  3.940848  0
C  C151  1  0.36030141  0.44245298  0.36999194  1  -0.064428  0  -0.249547  -0.382401  0  3.944502  0
C  C152  1  0.99056129  0.62977157  0.07229102  1  -0.103598  0  -0.246992  -0.378886  0  3.941672  0
C  C153  1  0.49056548  0.07228851  0.62976449  1  -0.104818  0  -0.24693  -0.378804  0  3.941554  0
C  C154  1  0.41781316  0.55777075  0.92766561  1  -0.113894  0  -0.248169  -0.378645  0  3.940603  0
C  C155  1  0.86030032  0.37000296  0.44245425  1  -0.064373  0  -0.249507  -0.382281  0  3.944617  0
C  C156  1  0.18888238  0.03997028  0.73984185  1  0.298195  0  -0.059362  -0.0088  0  3.894235  0
C  C157  1  0.44888594  0.26006313  0.30018927  1  0.291353  0  -0.05949  -0.008888  0  3.893066  0
C  C158  1  0.14896327  0.69978210  0.96005777  1  0.311969  0  -0.059528  -0.009312  0  3.894815  0
C  C159  1  0.64897890  0.96006704  0.69978195  1  0.312139  0  -0.059532  -0.009214  0  3.894792  0
C  C160  1  0.68887588  0.73983829  0.03997114  1  0.297819  0  -0.059417  -0.008947  0  3.894295  0
C  C161  1  0.94888687  0.30019292  0.26006560  1  0.291156  0  -0.059421  -0.008681  0  3.892993  0
C  C162  1  0.25332999  0.06625404  0.84015289  1  -0.026691  0  -0.246553  -0.388807  0  3.954765  0
C  C163  1  0.41308494  0.15975871  0.22611143  1  -0.030486  0  -0.244179  -0.386479  0  3.951287  0
C  C164  1  0.18719135  0.77380971  0.93378862  1  -0.096619  0  -0.243681  -0.385799  0  3.951955  0
C  C165  1  0.68720449  0.93379981  0.77381316  1  -0.096434  0  -0.243538  -0.385515  0  3.951862  0
C  C166  1  0.75332666  0.84014732  0.06625332  1  -0.026453  0  -0.246499  -0.388847  0  3.954698  0
C  C167  1  0.91308292  0.22611192  0.15976055  1  -0.03039  0  -0.244198  -0.386485  0  3.951326  0
N  N168  1  0.64349674  0.33159123  0.74223831  1  -0.809537  0  -0.274597  -0.200597  0  3.611342  0
N  N169  1  0.90124687  0.25764643  0.58926860  1  -0.829459  0  -0.278749  -0.204492  0  3.613687  0
N  N170  1  0.31190685  0.41090603  0.66844367  1  -0.822489  0  -0.279781  -0.205548  0  3.615803  0
N  N171  1  0.81191796  0.66844804  0.41091401  1  -0.822254  0  -0.279836  -0.205614  0  3.6158  0
N  N172  1  0.14349421  0.74223935  0.33158987  1  -0.809554  0  -0.27459  -0.20061  0  3.611378  0
N  N173  1  0.40125094  0.58926892  0.25765243  1  -0.82966  0  -0.278694  -0.204415  0  3.61382  0
N  N174  1  0.52252426  0.32713259  0.76515486  1  -0.815338  0  -0.278953  -0.196626  0  3.610825  0
N  N175  1  0.75738534  0.23479352  0.56177714  1  -0.792729  0  -0.275727  -0.192086  0  3.606979  0
N  N176  1  0.19531735  0.43820090  0.67292341  1  -0.802292  0  -0.274002  -0.191714  0  3.608996  0
N  N177  1  0.69532510  0.67292283  0.43820680  1  -0.801828  0  -0.273938  -0.191513  0  3.608824  0
N  N178  1  0.02251853  0.76515351  0.32713042  1  -0.815015  0  -0.278921  -0.196417  0  3.610892  0
N  N179  1  0.25738870  0.56178134  0.23479744  1  -0.792754  0  -0.275854  -0.192283  0  3.60712  0
N  N180  1  0.71743979  0.38508003  0.04001225  1  -1.23183  0  -0.416445  -0.324797  0  3.547579  0
N  N181  1  0.67753736  0.95992997  0.34495078  1  -1.256012  0  -0.415564  -0.324266  0  3.546649  0
N  N182  1  0.33215903  0.65530420  0.61512911  1  -1.246453  0  -0.418382  -0.326579  0  3.545408  0
N  N183  1  0.83216714  0.61512677  0.65530895  1  -1.246099  0  -0.418384  -0.326652  0  3.545129  0
N  N184  1  0.21743548  0.04001160  0.38507976  1  -1.231756  0  -0.416462  -0.324813  0  3.547601  0
N  N185  1  0.17754296  0.34495151  0.95993746  1  -1.2561  0  -0.415612  -0.32432  0  3.546715  0
N  N186  1  0.11332469  0.94081836  0.67992482  1  -1.194542  0  -0.280379  -0.067449  0  3.644216  0
N  N187  1  0.43351864  0.32006930  0.26102721  1  -1.176492  0  -0.282278  -0.069257  0  3.647033  0
N  N188  1  0.17268176  0.73897626  0.05922717  1  -1.196801  0  -0.283429  -0.069649  0  3.644036  0
N  N189  1  0.67269448  0.05923348  0.73897186  1  -1.196535  0  -0.283466  -0.069663  0  3.643984  0
N  N190  1  0.61330996  0.67992040  0.94081706  1  -1.194725  0  -0.280459  -0.067506  0  3.644229  0
N  N191  1  0.93352107  0.26103434  0.32007285  1  -1.1762  0  -0.282218  -0.069104  0  3.646893  0
O  O192  1  0.78463709  0.55738839  0.19662307  1  -1.172409  0  -0.30897  -0.516072  0  2.328951  0
O  O193  1  0.58784124  0.80356242  0.36096817  1  -1.174313  0  -0.310363  -0.517159  0  2.329811  0
O  O194  1  0.22672048  0.63896191  0.44263080  1  -1.181712  0  -0.309984  -0.517084  0  2.328612  0
O  O195  1  0.72671424  0.44262912  0.63895753  1  -1.18143  0  -0.309882  -0.516943  0  2.328733  0
O  O196  1  0.28465998  0.19662268  0.55738945  1  -1.172247  0  -0.309096  -0.516257  0  2.32906  0
O  O197  1  0.08784209  0.36096618  0.80356872  1  -1.174387  0  -0.31038  -0.517178  0  2.329766  0
O  O198  1  0.96632451  0.53031640  0.26786814  1  -1.209513  0  -0.328305  -0.554167  0  2.348607  0
O  O199  1  0.69831519  0.73201647  0.26278635  1  -1.209917  0  -0.331352  -0.555862  0  2.348114  0
O  O200  1  0.43515052  0.73725221  0.46923910  1  -1.21205  0  -0.330939  -0.555943  0  2.351843  0
O  O201  1  0.93513799  0.46922732  0.73724940  1  -1.211917  0  -0.330926  -0.556007  0  2.351896  0
O  O202  1  0.46632938  0.26786770  0.53030523  1  -1.209517  0  -0.328364  -0.55424  0  2.34839  0
O  O203  1  0.19831636  0.26278913  0.73201999  1  -1.210447  0  -0.331381  -0.555927  0  2.348055  0
O  O204  1  0.90785612  0.37458374  0.99051552  1  -1.186715  0  -0.316571  -0.534851  0  2.150282  0
O  O205  1  0.91738465  0.00939002  0.38372444  1  -1.18279  0  -0.317456  -0.535492  0  2.151562  0
O  O206  1  0.53316872  0.61643453  0.62580820  1  -1.177044  0  -0.316557  -0.534915  0  2.148496  0
O  O207  1  0.03318810  0.62582410  0.61645293  1  -1.177315  0  -0.316564  -0.535016  0  2.148755  0
O  O208  1  0.40784713  0.99051130  0.37458136  1  -1.186562  0  -0.316527  -0.534829  0  2.150251  0
O  O209  1  0.41739051  0.38372242  0.00939716  1  -1.182951  0  -0.317514  -0.535573  0  2.151734  0
O  O210  1  0.31604348  0.90292777  0.68929103  1  -1.165478  0  -0.307653  -0.458091  0  2.239719  0
O  O211  1  0.62681384  0.31054896  0.21366052  1  -1.163257  0  -0.308605  -0.458946  0  2.238858  0
O  O212  1  0.41330983  0.78631570  0.09716306  1  -1.162678  0  -0.3072  -0.457207  0  2.239619  0
O  O213  1  0.91332104  0.09716860  0.78630599  1  -1.162304  0  -0.307238  -0.457301  0  2.239636  0
O  O214  1  0.81602303  0.68927866  0.90291941  1  -1.164995  0  -0.307551  -0.457977  0  2.239707  0
O  O215  1  0.12681271  0.21366202  0.31054844  1  -1.163306  0  -0.308588  -0.458911  0  2.238914  0
