# generated using pymatgen
data_Ag2H6C3(NCl)2
_symmetry_space_group_name_H-M   'P 1'
_cell_length_a   8.50334063
_cell_length_b   9.41584943
_cell_length_c   16.40300000
_cell_angle_alpha   90.00000000
_cell_angle_beta   90.00000000
_cell_angle_gamma   90.00000000
_symmetry_Int_Tables_number   1
_chemical_formula_structural   Ag2H6C3(NCl)2
_chemical_formula_sum   'Ag16 H48 C24 N16 Cl16'
_cell_volume   1313.32546938
_cell_formula_units_Z   8
loop_
 _symmetry_equiv_pos_site_id
 _symmetry_equiv_pos_as_xyz
  1  'x, y, z'
loop_
 _atom_site_type_symbol
 _atom_site_label
 _atom_site_symmetry_multiplicity
 _atom_site_fract_x
 _atom_site_fract_y
 _atom_site_fract_z
 _atom_site_occupancy
 _atom_site_pbe_bader_charge
 _atom_site_pbe_bader_spin_density
 _atom_site_pbe_cm5_charge
 _atom_site_pbe_ddec_charge
 _atom_site_pbe_ddec_spin_density
 _atom_site_pbe_ddec_sum_bond_order
 _atom_site_pbe_magmom
Ag  Ag0  1  0.14587561  0.24999975  0.36059379  1  0.536402  0  0.302299  0.372067  0  2.004788  0
Ag  Ag1  1  0.35413141  0.74999925  0.86059440  1  0.53633  0  0.302298  0.372014  0  2.004841  0
Ag  Ag2  1  0.85413843  0.74999925  0.63940438  1  0.536257  0  0.302294  0.372  0  2.00485  0
Ag  Ag3  1  0.64587675  0.24999975  0.13940560  1  0.536345  0  0.302292  0.372033  0  2.00486  0
Ag  Ag4  1  0.24248235  0.74999925  0.41751753  1  0.492932  0  0.323094  0.370045  0  2.177689  0
Ag  Ag5  1  0.25751997  0.25000081  0.91751875  1  0.492931  0  0.323101  0.370051  0  2.177696  0
Ag  Ag6  1  0.75751875  0.24999975  0.58248186  1  0.492917  0  0.323097  0.370055  0  2.177707  0
Ag  Ag7  1  0.74247996  0.75000031  0.08248247  1  0.492847  0  0.323099  0.370008  0  2.177689  0
Ag  Ag8  1  0.34221609  0.42016496  0.20423947  1  0.533191  0  0.315796  0.376657  0  1.978697  0
Ag  Ag9  1  0.15778387  0.92016658  0.70424252  1  0.533219  0  0.315807  0.376661  0  1.978659  0
Ag  Ag10  1  0.34221962  0.07983560  0.20424130  1  0.53322  0  0.315789  0.376626  0  1.978702  0
Ag  Ag11  1  0.15778269  0.57983722  0.70424252  1  0.533211  0  0.315797  0.376642  0  1.978713  0
Ag  Ag12  1  0.65778148  0.57983298  0.79575931  1  0.533215  0  0.315813  0.376656  0  1.978685  0
Ag  Ag13  1  0.84221723  0.07983773  0.29575931  1  0.533183  0  0.315795  0.376645  0  1.97867  0
Ag  Ag14  1  0.65778031  0.92016446  0.79575870  1  0.533247  0  0.315788  0.376619  0  1.97872  0
Ag  Ag15  1  0.84221605  0.42016177  0.29575809  1  0.533202  0  0.315816  0.376682  0  1.978649  0
H  H16  1  0.22696374  0.47309593  0.51305005  1  0.123818  0  0.101502  0.076054  0  1.027961  0
H  H17  1  0.27303269  0.97309542  0.01304700  1  0.12375  0  0.101521  0.076097  0  1.027883  0
H  H18  1  0.22696374  0.02690357  0.51304944  1  0.123807  0  0.101506  0.076089  0  1.027944  0
H  H19  1  0.27303269  0.52690307  0.01304822  1  0.123766  0  0.101493  0.076056  0  1.027941  0
H  H20  1  0.77303618  0.52690414  0.48695117  1  0.123793  0  0.101493  0.076071  0  1.027957  0
H  H21  1  0.72696841  0.02690570  0.98695117  1  0.123772  0  0.101509  0.076074  0  1.027955  0
H  H22  1  0.77303501  0.97309649  0.48695178  1  0.123803  0  0.101516  0.076091  0  1.027913  0
H  H23  1  0.72696723  0.47309486  0.98695117  1  0.123773  0  0.101503  0.076065  0  1.027969  0
H  H24  1  0.05629552  0.37786394  0.54567640  1  0.108466  0  0.103562  0.08258  0  1.025301  0
H  H25  1  0.44370091  0.87786344  0.04567335  1  0.108508  0  0.103565  0.082557  0  1.025391  0
H  H26  1  0.05629552  0.12213556  0.54567579  1  0.108459  0  0.103558  0.082564  0  1.025304  0
H  H27  1  0.44370209  0.62213399  0.04567396  1  0.108489  0  0.103535  0.082556  0  1.025301  0
H  H28  1  0.94370676  0.62213505  0.45432482  1  0.108445  0  0.103561  0.082567  0  1.02527  0
H  H29  1  0.55629548  0.12213449  0.95432787  1  0.108539  0  0.103555  0.082577  0  1.025207  0
H  H30  1  0.94370558  0.87786451  0.45432482  1  0.10843  0  0.103577  0.082595  0  1.025294  0
H  H31  1  0.55629548  0.37786501  0.95432726  1  0.108546  0  0.103517  0.082527  0  1.025228  0
H  H32  1  0.46130811  0.37813795  0.69162287  1  0.125279  0  0.106926  0.086349  0  1.013061  0
H  H33  1  0.03868950  0.87814276  0.19162104  1  0.125332  0  0.106938  0.086356  0  1.013047  0
H  H34  1  0.46130811  0.12186049  0.69162226  1  0.125283  0  0.106934  0.086315  0  1.013118  0
H  H35  1  0.03869068  0.62186211  0.19162104  1  0.125027  0  0.106881  0.08627  0  1.013091  0
H  H36  1  0.53869182  0.62186105  0.30837835  1  0.1253  0  0.106924  0.086323  0  1.013075  0
H  H37  1  0.96130337  0.12186261  0.80837774  1  0.125294  0  0.106903  0.086348  0  1.013066  0
H  H38  1  0.53869182  0.87813851  0.30837896  1  0.125323  0  0.106895  0.086299  0  1.013079  0
H  H39  1  0.96130455  0.37813795  0.80837652  1  0.125277  0  0.106929  0.086335  0  1.013062  0
H  H40  1  0.46070952  0.47308424  0.59766140  1  0.063813  0  0.110811  0.084748  0  0.994916  0
H  H41  1  0.03929044  0.97308799  0.09765896  1  0.063696  0  0.110833  0.084799  0  0.995097  0
H  H42  1  0.46070952  0.02691526  0.59766140  1  0.063791  0  0.110825  0.084761  0  0.99499  0
H  H43  1  0.03928926  0.52691688  0.09766079  1  0.06378  0  0.110829  0.084738  0  0.995079  0
H  H44  1  0.53929040  0.52691582  0.40233921  1  0.063745  0  0.110856  0.084817  0  0.995113  0
H  H45  1  0.96070713  0.02691526  0.90233799  1  0.0638  0  0.110813  0.084727  0  0.994992  0
H  H46  1  0.53929040  0.97308374  0.40233921  1  0.063749  0  0.11086  0.0848  0  0.995127  0
H  H47  1  0.96070831  0.47308531  0.90233738  1  0.063804  0  0.11081  0.084722  0  0.994962  0
H  H48  1  0.45742375  0.15580326  0.46948729  1  0.071818  0  0.110468  0.084477  0  0.995317  0
H  H49  1  0.04257268  0.65580382  0.96948668  1  0.071697  0  0.11045  0.084459  0  0.995365  0
H  H50  1  0.45742375  0.34419518  0.46948729  1  0.071841  0  0.110478  0.084466  0  0.995318  0
H  H51  1  0.04257386  0.84419468  0.96948485  1  0.071683  0  0.110435  0.084452  0  0.995366  0
H  H52  1  0.54257852  0.84419468  0.53051393  1  0.071843  0  0.110477  0.084465  0  0.995366  0
H  H53  1  0.95742725  0.34419624  0.03051210  1  0.071803  0  0.110464  0.084504  0  0.995326  0
H  H54  1  0.54257735  0.65580488  0.53051393  1  0.071843  0  0.110482  0.08448  0  0.995359  0
H  H55  1  0.95742842  0.15580538  0.03051210  1  0.0717  0  0.110454  0.08448  0  0.99533  0
H  H56  1  0.23237573  0.24999869  0.73465403  1  0.089632  0  0.100234  0.077406  0  1.036889  0
H  H57  1  0.26762423  0.75000031  0.23465098  1  0.089688  0  0.100206  0.077392  0  1.03697  0
H  H58  1  0.76762537  0.74999925  0.26534719  1  0.089659  0  0.100196  0.077346  0  1.036996  0
H  H59  1  0.73236981  0.24999975  0.76534597  1  0.089681  0  0.100244  0.077387  0  1.036947  0
H  H60  1  0.05872045  0.24999975  0.67162470  1  0.052797  0  0.100563  0.074607  0  1.04048  0
H  H61  1  0.44127951  0.75000031  0.17162165  1  0.052851  0  0.100562  0.07458  0  1.040469  0
H  H62  1  0.94128183  0.75000031  0.32837652  1  0.052788  0  0.100565  0.074573  0  1.040501  0
H  H63  1  0.55872159  0.25000081  0.82837896  1  0.052802  0  0.100546  0.074535  0  1.040596  0
C  C64  1  0.18530482  0.37778323  0.54490764  1  0.498421  0  0.008344  0.007897  0  3.82807  0
C  C65  1  0.31470220  0.87778273  0.04490337  1  0.498416  0  0.008311  0.007906  0  3.827881  0
C  C66  1  0.18530364  0.12221627  0.54490703  1  0.498418  0  0.008336  0.007915  0  3.827934  0
C  C67  1  0.31469397  0.62221577  0.04490459  1  0.498431  0  0.008382  0.007929  0  3.827945  0
C  C68  1  0.81469628  0.62221577  0.45509419  1  0.498439  0  0.008365  0.007878  0  3.827869  0
C  C69  1  0.68530949  0.12221521  0.95509541  1  0.498384  0  0.008356  0.007956  0  3.827827  0
C  C70  1  0.81469981  0.87778167  0.45509480  1  0.498461  0  0.008326  0.007823  0  3.827885  0
C  C71  1  0.68531066  0.37778429  0.95509541  1  0.498395  0  0.00838  0.007961  0  3.827899  0
C  C72  1  0.41764292  0.37740089  0.62867463  1  0.533391  0  0.010405  0.003215  0  3.854128  0
C  C73  1  0.08235822  0.87740889  0.12867158  1  0.533282  0  0.010366  0.003063  0  3.854306  0
C  C74  1  0.41764409  0.12259648  0.62867463  1  0.533409  0  0.010353  0.003181  0  3.854257  0
C  C75  1  0.08235469  0.62259598  0.12867341  1  0.533513  0  0.010431  0.003292  0  3.854091  0
C  C76  1  0.58235701  0.62259279  0.37132659  1  0.533389  0  0.010368  0.003108  0  3.854306  0
C  C77  1  0.91764406  0.12259754  0.87132598  1  0.533366  0  0.01041  0.003215  0  3.854206  0
C  C78  1  0.58235818  0.87740677  0.37132720  1  0.533384  0  0.010395  0.00321  0  3.854223  0
C  C79  1  0.91764171  0.37740302  0.87132537  1  0.533387  0  0.010382  0.00326  0  3.854172  0
C  C80  1  0.41432422  0.24999869  0.50187527  1  0.591169  0  0.012337  0.007848  0  3.875497  0
C  C81  1  0.08567221  0.75000031  0.00187283  1  0.59193  0  0.012312  0.007735  0  3.875557  0
C  C82  1  0.58567688  0.75000031  0.49812656  1  0.591662  0  0.012226  0.007642  0  3.875718  0
C  C83  1  0.91432889  0.25000081  0.99812473  1  0.591772  0  0.012317  0.007696  0  3.875588  0
C  C84  1  0.18783324  0.24999975  0.67184722  1  0.530135  0  0.003644  -0.003228  0  3.830606  0
C  C85  1  0.31216320  0.75000137  0.17184600  1  0.529516  0  0.003677  -0.003188  0  3.830654  0
C  C86  1  0.81216551  0.75000031  0.32815400  1  0.529843  0  0.003725  -0.003041  0  3.830524  0
C  C87  1  0.68782967  0.24999975  0.82815522  1  0.530124  0  0.003667  -0.0031  0  3.830741  0
N  N88  1  0.24129576  0.24999975  0.50149729  1  -1.056764  0  -0.349921  -0.15535  0  3.457665  0
N  N89  1  0.25870068  0.74999925  0.00149485  1  -1.057249  0  -0.349891  -0.155295  0  3.457436  0
N  N90  1  0.75870299  0.74999925  0.49850454  1  -1.057264  0  -0.349911  -0.155183  0  3.457443  0
N  N91  1  0.74130042  0.24999975  0.99850332  1  -1.057251  0  -0.349889  -0.155321  0  3.45767  0
N  N92  1  0.47676909  0.24999975  0.58596964  1  -0.982644  0  -0.356694  -0.170274  0  3.493758  0
N  N93  1  0.02322852  0.75000031  0.08596781  1  -0.982366  0  -0.356648  -0.170122  0  3.49335  0
N  N94  1  0.52323083  0.75000031  0.41403280  1  -0.982571  0  -0.356669  -0.170211  0  3.493444  0
N  N95  1  0.97676906  0.24999975  0.91403097  1  -0.982609  0  -0.356703  -0.170262  0  3.493678  0
N  N96  1  0.24377596  0.37997953  0.63007803  1  -0.995948  0  -0.351466  -0.14234  0  3.44619  0
N  N97  1  0.25621813  0.87998221  0.13007560  1  -0.995599  0  -0.351484  -0.142275  0  3.445978  0
N  N98  1  0.24377713  0.12001891  0.63007803  1  -0.995926  0  -0.351486  -0.142364  0  3.446124  0
N  N99  1  0.25621930  0.62001947  0.13007560  1  -0.99552  0  -0.351502  -0.142382  0  3.44615  0
N  N100  1  0.75622044  0.62001735  0.36992318  1  -0.995612  0  -0.351498  -0.142335  0  3.446088  0
N  N101  1  0.74377710  0.12001891  0.86992379  1  -0.995919  0  -0.351483  -0.14238  0  3.446215  0
N  N102  1  0.75622162  0.87998115  0.36992379  1  -0.995915  0  -0.351539  -0.142406  0  3.446134  0
N  N103  1  0.74377710  0.37998059  0.86992318  1  -0.995927  0  -0.351477  -0.142361  0  3.446255  0
Cl  Cl104  1  0.16885834  0.52823275  0.33696580  1  -0.60509  0  -0.295412  -0.479667  0  1.699307  0
Cl  Cl105  1  0.33114162  0.02823218  0.83696702  1  -0.60519  0  -0.295412  -0.479644  0  1.699284  0
Cl  Cl106  1  0.16886069  0.97176681  0.33696580  1  -0.605184  0  -0.295407  -0.479666  0  1.699296  0
Cl  Cl107  1  0.33114280  0.47176731  0.83696580  1  -0.605109  0  -0.295407  -0.479638  0  1.699309  0
Cl  Cl108  1  0.83113806  0.47176838  0.66303481  1  -0.60513  0  -0.295401  -0.479646  0  1.699281  0
Cl  Cl109  1  0.66885595  0.97176788  0.16303420  1  -0.605101  0  -0.295412  -0.479644  0  1.699307  0
Cl  Cl110  1  0.83114041  0.02823325  0.66303420  1  -0.605128  0  -0.29541  -0.479663  0  1.699293  0
Cl  Cl111  1  0.66885595  0.52823381  0.16303481  1  -0.605112  0  -0.295415  -0.479647  0  1.699307  0
Cl  Cl112  1  0.49318617  0.25000187  0.29730232  1  -0.563286  0  -0.272733  -0.450505  0  1.715788  0
Cl  Cl113  1  0.00681614  0.75000031  0.79730232  1  -0.563205  0  -0.272733  -0.450504  0  1.715834  0
Cl  Cl114  1  0.50681258  0.75000031  0.70269890  1  -0.563324  0  -0.272737  -0.450457  0  1.715723  0
Cl  Cl115  1  0.99318848  0.24999869  0.20269646  1  -0.563267  0  -0.272753  -0.450534  0  1.715801  0
Cl  Cl116  1  0.16715901  0.75000031  0.56564897  1  -0.604681  0  -0.304646  -0.482493  0  1.683473  0
Cl  Cl117  1  0.33284448  0.24999869  0.06564836  1  -0.604681  0  -0.304633  -0.482504  0  1.683539  0
Cl  Cl118  1  0.83284209  0.25000081  0.43435103  1  -0.604637  0  -0.304647  -0.482522  0  1.683505  0
Cl  Cl119  1  0.66715780  0.75000031  0.93435164  1  -0.604649  0  -0.304632  -0.482473  0  1.683465  0
