# generated using pymatgen
data_HgH11C11N3Cl2
_symmetry_space_group_name_H-M   'P 1'
_cell_length_a   7.83989026
_cell_length_b   8.20251576
_cell_length_c   11.23961808
_cell_angle_alpha   103.77202438
_cell_angle_beta   95.16659652
_cell_angle_gamma   113.97615321
_symmetry_Int_Tables_number   1
_chemical_formula_structural   HgH11C11N3Cl2
_chemical_formula_sum   'Hg2 H22 C22 N6 Cl4'
_cell_volume   627.06271702
_cell_formula_units_Z   2
loop_
 _symmetry_equiv_pos_site_id
 _symmetry_equiv_pos_as_xyz
  1  'x, y, z'
loop_
 _atom_site_type_symbol
 _atom_site_label
 _atom_site_symmetry_multiplicity
 _atom_site_fract_x
 _atom_site_fract_y
 _atom_site_fract_z
 _atom_site_occupancy
 _atom_site_hle17_bader_spin_density
 _atom_site_hle17_ddec_charge
 _atom_site_hle17_ddec_spin_density
 _atom_site_hle17_ddec_sum_bond_order
 _atom_site_hle17_magmom
 _atom_site_hse06_10hf_bader_spin_density
 _atom_site_hse06_10hf_ddec_charge
 _atom_site_hse06_10hf_ddec_spin_density
 _atom_site_hse06_10hf_ddec_sum_bond_order
 _atom_site_hse06_10hf_magmom
 _atom_site_hse06_bader_spin_density
 _atom_site_hse06_ddec_charge
 _atom_site_hse06_ddec_spin_density
 _atom_site_hse06_ddec_sum_bond_order
 _atom_site_hse06_magmom
 _atom_site_pbe_bader_spin_density
 _atom_site_pbe_cm5_charge
 _atom_site_pbe_ddec_charge
 _atom_site_pbe_ddec_spin_density
 _atom_site_pbe_ddec_sum_bond_order
 _atom_site_pbe_magmom
Hg  Hg0  1  0.94026484  0.55456987  0.71231851  1  0  0.747435  0  2.064294  0  0  0.585293  0  2.56008  0  0  0.63532  0  2.525543  0  0  0.526438  0.551104  0  2.583252  0
Hg  Hg1  1  0.05973199  0.44543113  0.28768079  1  0  0.747451  0  2.06431  0  0  0.585323  0  2.560103  0  0  0.635348  0  2.525565  0  0  0.526448  0.551128  0  2.583284  0
H  H2  1  0.84725369  0.84422136  0.66986311  1  0  0.262054  0  0.969488  0  0  0.24421  0  1.043064  0  0  0.250844  0  1.038105  0  0  0.274239  0.239541  0  1.046517  0
H  H3  1  0.15274890  0.15578106  0.33013769  1  0  0.26209  0  0.969587  0  0  0.244231  0  1.04315  0  0  0.250865  0  1.038191  0  0  0.274259  0.239569  0  1.046587  0
H  H4  1  0.48932763  0.80682516  0.65671680  1  0  0.117848  0  0.952801  0  0  0.123792  0  1.018586  0  0  0.127343  0  1.017367  0  0  0.103473  0.121159  0  1.019773  0
H  H5  1  0.51067687  0.19317867  0.34328525  1  0  0.117857  0  0.952766  0  0  0.12379  0  1.018568  0  0  0.127342  0  1.017347  0  0  0.103482  0.121155  0  1.019747  0
H  H6  1  0.18242795  0.81441768  0.58552666  1  0  0.07744  0  1.003973  0  0  0.083405  0  1.079727  0  0  0.085741  0  1.07743  0  0  0.083735  0.081673  0  1.081376  0
H  H7  1  0.81757529  0.18558334  0.41447304  1  0  0.077452  0  1.00393  0  0  0.083431  0  1.079674  0  0  0.085769  0  1.077377  0  0  0.083744  0.0817  0  1.08132  0
H  H8  1  0.18724389  0.12520284  0.58808614  1  0  0.101337  0  0.963278  0  0  0.111862  0  1.023291  0  0  0.114896  0  1.022493  0  0  0.096892  0.109626  0  1.024165  0
H  H9  1  0.81275483  0.87479955  0.41190996  1  0  0.101321  0  0.963392  0  0  0.11192  0  1.02332  0  0  0.114941  0  1.022534  0  0  0.096892  0.109679  0  1.024201  0
H  H10  1  0.49904250  0.40872121  0.65155734  1  0  0.084191  0  0.945958  0  0  0.087209  0  1.019304  0  0  0.089937  0  1.016392  0  0  0.105989  0.085159  0  1.021522  0
H  H11  1  0.50096074  0.59127981  0.34844236  1  0  0.084177  0  0.945942  0  0  0.087202  0  1.019274  0  0  0.089929  0  1.016364  0  0  0.105977  0.085146  0  1.021499  0
H  H12  1  0.93202798  0.14614921  0.65723030  1  0  0.08168  0  0.923585  0  0  0.098984  0  0.987672  0  0  0.099427  0  0.987036  0  0  0.10965  0.098627  0  0.988234  0
H  H13  1  0.06797778  0.85385742  0.34277409  1  0  0.08165  0  0.923582  0  0  0.098972  0  0.987645  0  0  0.099415  0  0.987007  0  0  0.109652  0.098611  0  0.988207  0
H  H14  1  0.93028745  0.22885121  0.81531993  1  0  0.079091  0  0.941933  0  0  0.091579  0  1.012673  0  0  0.092086  0  1.012352  0  0  0.10568  0.091281  0  1.012836  0
H  H15  1  0.06971452  0.77114983  0.18468414  1  0  0.079066  0  0.94195  0  0  0.091561  0  1.012675  0  0  0.092068  0  1.012352  0  0  0.105674  0.091255  0  1.012843  0
H  H16  1  0.74441971  0.11714281  0.94397839  1  0  0.109095  0  0.972148  0  0  0.117575  0  1.036623  0  0  0.120909  0  1.035886  0  0  0.096417  0.115165  0  1.037541  0
H  H17  1  0.25557781  0.88285401  0.05602379  1  0  0.10905  0  0.972097  0  0  0.117538  0  1.036573  0  0  0.120871  0  1.035838  0  0  0.096425  0.115128  0  1.037489  0
H  H18  1  0.66143689  0.99782319  0.12127562  1  0  0.08205  0  0.969949  0  0  0.091986  0  1.035813  0  0  0.093825  0  1.034907  0  0  0.093006  0.090667  0  1.036457  0
H  H19  1  0.33855869  0.00217501  0.87872490  1  0  0.082105  0  0.970043  0  0  0.092044  0  1.035895  0  0  0.093876  0  1.034988  0  0  0.093036  0.090727  0  1.036543  0
H  H20  1  0.66602728  0.69020085  0.12452531  1  0  0.099222  0  0.979429  0  0  0.106232  0  1.046766  0  0  0.108818  0  1.047621  0  0  0.091751  0.10442  0  1.046275  0
H  H21  1  0.33396575  0.30979454  0.87547278  1  0  0.099178  0  0.979485  0  0  0.106188  0  1.046814  0  0  0.108772  0  1.047678  0  0  0.091738  0.104377  0  1.046329  0
H  H22  1  0.75827108  0.52410242  0.94631613  1  0  0.06669  0  0.953427  0  0  0.072551  0  1.025513  0  0  0.075216  0  1.02222  0  0  0.100024  0.070371  0  1.02831  0
H  H23  1  0.24172703  0.47589858  0.05368325  1  0  0.066677  0  0.95338  0  0  0.072544  0  1.02545  0  0  0.075207  0  1.02216  0  0  0.100011  0.070365  0  1.028245  0
C  C24  1  0.65617446  0.10393668  0.69036945  1  0  0.22325  0  3.711119  0  0  0.226807  0  3.951345  0  0  0.23452  0  3.973318  0  0  0.11759  0.221719  0  3.936534  0
C  C25  1  0.34382619  0.89606713  0.30963147  1  0  0.223157  0  3.7111  0  0  0.226711  0  3.951345  0  0  0.234423  0  3.973318  0  0  0.117543  0.221616  0  3.936534  0
C  C26  1  0.48717869  0.93815044  0.65495688  1  0  -0.150535  0  3.695277  0  0  -0.168412  0  3.940606  0  0  -0.176568  0  3.962896  0  0  -0.084846  -0.163178  0  3.925915  0
C  C27  1  0.51283032  0.06185201  0.34504521  1  0  -0.150477  0  3.695463  0  0  -0.168311  0  3.940732  0  0  -0.176467  0  3.963027  0  0  -0.084815  -0.163072  0  3.926025  0
C  C28  1  0.31576425  0.94301774  0.61663139  1  0  0.003055  0  3.725845  0  0  -0.013291  0  3.972024  0  0  -0.009728  0  3.99173  0  0  -0.071554  -0.015297  0  3.958619  0
C  C29  1  0.68423001  0.05698326  0.38336864  1  0  0.002903  0  3.726177  0  0  -0.013444  0  3.972339  0  0  -0.009889  0  3.992056  0  0  -0.071615  -0.015453  0  3.958929  0
C  C30  1  0.31709922  0.11348506  0.61677208  1  0  -0.1217  0  3.723281  0  0  -0.132355  0  3.969122  0  0  -0.140305  0  3.991  0  0  -0.088997  -0.12731  0  3.954539  0
C  C31  1  0.68290913  0.88651878  0.38322931  1  0  -0.121582  0  3.723023  0  0  -0.132297  0  3.968848  0  0  -0.140231  0  3.990727  0  0  -0.088952  -0.127258  0  3.954274  0
C  C32  1  0.49090125  0.27312724  0.65246935  1  0  0.134093  0  3.709074  0  0  0.101783  0  3.963881  0  0  0.11027  0  3.981846  0  0  0.042725  0.096402  0  3.951544  0
C  C33  1  0.50909304  0.72687096  0.34753109  1  0  0.134031  0  3.709147  0  0  0.101725  0  3.963979  0  0  0.110214  0  3.981943  0  0  0.04268  0.096356  0  3.951636  0
C  C34  1  0.84982519  0.11087332  0.72947618  1  0  -0.030078  0  3.734495  0  0  -0.09533  0  3.990645  0  0  -0.090933  0  4.001402  0  0  -0.055559  -0.098205  0  3.983105  0
C  C35  1  0.15017868  0.88912911  0.27052469  1  0  -0.02991  0  3.734488  0  0  -0.095172  0  3.990578  0  0  -0.090768  0  4.001329  0  0  -0.055517  -0.09803  0  3.983035  0
C  C36  1  0.79752038  0.88322491  0.84741648  1  0  0.411629  0  3.818183  0  0  0.385166  0  4.073365  0  0  0.404459  0  4.088931  0  0  0.221958  0.372384  0  4.062453  0
C  C37  1  0.20247650  0.11677050  0.15258186  1  0  0.411442  0  3.818218  0  0  0.384973  0  4.07341  0  0  0.404265  0  4.088979  0  0  0.221935  0.372195  0  4.062498  0
C  C38  1  0.74738603  0.98627664  0.94576813  1  0  -0.223383  0  3.697764  0  0  -0.237721  0  3.947979  0  0  -0.249302  0  3.968558  0  0  -0.104719  -0.230467  0  3.934426  0
C  C39  1  0.25261080  0.01372437  0.05423384  1  0  -0.223206  0  3.69769  0  0  -0.23755  0  3.94794  0  0  -0.249132  0  3.968516  0  0  -0.104725  -0.230294  0  3.934383  0
C  C40  1  0.70028971  0.91809773  0.04565200  1  0  0.026194  0  3.74471  0  0  0.007087  0  3.994319  0  0  0.014808  0  4.010164  0  0  -0.074938  0.002335  0  3.98335  0
C  C41  1  0.29970721  0.08189489  0.95434675  1  0  0.026035  0  3.744705  0  0  0.006903  0  3.994375  0  0  0.014634  0  4.010212  0  0  -0.074993  0.002141  0  3.983422  0
C  C42  1  0.70210835  0.74899655  0.04805982  1  0  -0.158979  0  3.763698  0  0  -0.173672  0  4.018925  0  0  -0.182876  0  4.040507  0  0  -0.112441  -0.167577  0  4.004112  0
C  C43  1  0.29789230  0.25100726  0.95194288  1  0  -0.158745  0  3.763744  0  0  -0.173416  0  4.018949  0  0  -0.182622  0  4.040528  0  0  -0.112346  -0.167325  0  4.004148  0
C  C44  1  0.75315410  0.65574305  0.94849748  1  0  0.134329  0  3.760895  0  0  0.103484  0  4.017191  0  0  0.113459  0  4.034701  0  0  0.03009  0.097131  0  4.005079  0
C  C45  1  0.24684664  0.34425238  0.05150199  1  0  0.134164  0  3.76109  0  0  0.103319  0  4.017387  0  0  0.113292  0  4.034902  0  0  0.030044  0.096966  0  4.005273  0
N  N46  1  0.65633234  0.26763571  0.68796259  1  0  -0.345062  0  3.24143  0  0  -0.266576  0  3.495106  0  0  -0.289405  0  3.517549  0  0  -0.310907  -0.251096  0  3.479345  0
N  N47  1  0.34367219  0.73236532  0.31203720  1  0  -0.345004  0  3.24169  0  0  -0.266552  0  3.495405  0  0  -0.289377  0  3.517839  0  0  -0.31087  -0.251074  0  3.479643  0
N  N48  1  0.84672039  0.94146032  0.74601675  1  0  -0.423019  0  3.374191  0  0  -0.362736  0  3.616081  0  0  -0.383416  0  3.628049  0  0  -0.440331  -0.348208  0  3.607064  0
N  N49  1  0.15328346  0.05854490  0.25398638  1  0  -0.423055  0  3.374239  0  0  -0.362744  0  3.616128  0  0  -0.383429  0  3.628093  0  0  -0.440344  -0.348228  0  3.607094  0
N  N50  1  0.80068639  0.72032208  0.85092381  1  0  -0.414282  0  3.218503  0  0  -0.338357  0  3.483176  0  0  -0.363179  0  3.501876  0  0  -0.328069  -0.321267  0  3.469807  0
N  N51  1  0.19931106  0.27968032  0.14907577  1  0  -0.414191  0  3.218368  0  0  -0.338279  0  3.483051  0  0  -0.363099  0  3.501751  0  0  -0.328073  -0.321185  0  3.469674  0
Cl  Cl52  1  0.23458064  0.60283372  0.83345017  1  0  -0.464957  0  0.968016  0  0  -0.401062  0  1.239096  0  0  -0.419229  0  1.224348  0  0  -0.261392  -0.388931  0  1.249695  0
Cl  Cl53  1  0.76542588  0.39715749  0.16653470  1  0  -0.464983  0  0.968031  0  0  -0.4011  0  1.239127  0  0  -0.419267  0  1.224381  0  0  -0.261417  -0.388968  0  1.249729  0
Cl  Cl54  1  0.81975997  0.59577192  0.51364771  1  0  -0.508689  0  0.978959  0  0  -0.44952  0  1.258115  0  0  -0.466962  0  1.238559  0  0  -0.265898  -0.437241  0  1.271644  0
Cl  Cl55  1  0.18023620  0.40423047  0.48634912  1  0  -0.508652  0  0.978969  0  0  -0.449484  0  1.258127  0  0  -0.466927  0  1.238574  0  0  -0.26588  -0.437211  0  1.271654  0
