# generated using pymatgen
data_ZnH18C20(NO2)2
_symmetry_space_group_name_H-M   'P 1'
_cell_length_a   9.80313196
_cell_length_b   9.90051769
_cell_length_c   11.70055502
_cell_angle_alpha   66.32120734
_cell_angle_beta   89.06428130
_cell_angle_gamma   62.54491188
_symmetry_Int_Tables_number   1
_chemical_formula_structural   ZnH18C20(NO2)2
_chemical_formula_sum   'Zn2 H36 C40 N4 O8'
_cell_volume   902.73589108
_cell_formula_units_Z   2
loop_
 _symmetry_equiv_pos_site_id
 _symmetry_equiv_pos_as_xyz
  1  'x, y, z'
loop_
 _atom_site_type_symbol
 _atom_site_label
 _atom_site_symmetry_multiplicity
 _atom_site_fract_x
 _atom_site_fract_y
 _atom_site_fract_z
 _atom_site_occupancy
 _atom_site_hle17_bader_spin_density
 _atom_site_hle17_ddec_charge
 _atom_site_hle17_ddec_spin_density
 _atom_site_hle17_ddec_sum_bond_order
 _atom_site_hle17_magmom
 _atom_site_hse06_10hf_bader_spin_density
 _atom_site_hse06_10hf_ddec_charge
 _atom_site_hse06_10hf_ddec_spin_density
 _atom_site_hse06_10hf_ddec_sum_bond_order
 _atom_site_hse06_10hf_magmom
 _atom_site_hse06_bader_spin_density
 _atom_site_hse06_ddec_charge
 _atom_site_hse06_ddec_spin_density
 _atom_site_hse06_ddec_sum_bond_order
 _atom_site_hse06_magmom
 _atom_site_pbe_bader_spin_density
 _atom_site_pbe_cm5_charge
 _atom_site_pbe_ddec_charge
 _atom_site_pbe_ddec_spin_density
 _atom_site_pbe_ddec_sum_bond_order
 _atom_site_pbe_magmom
Zn  Zn0  1  0.85954433  0.98573245  0.00137992  1  0  1.044254  0  1.847754  0  0  0.873486  0  2.31433  0  0  0.926891  0  2.248305  0  0  0.674673  0.836347  0  2.359179  0
Zn  Zn1  1  0.14045829  0.01426996  0.99861859  1  0  1.044265  0  1.847629  0  0  0.873502  0  2.314161  0  0  0.926918  0  2.248122  0  0  0.674675  0.836342  0  2.359042  0
H  H2  1  0.54298281  0.22615188  0.85523292  1  0  0.11272  0  0.946221  0  0  0.118179  0  1.011947  0  0  0.121636  0  1.008816  0  0  0.129598  0.115766  0  1.01436  0
H  H3  1  0.45702194  0.77384805  0.14477069  1  0  0.112783  0  0.946146  0  0  0.118158  0  1.011971  0  0  0.121615  0  1.008841  0  0  0.129592  0.115747  0  1.014379  0
H  H4  1  0.82968082  0.61485237  0.13467827  1  0  0.129124  0  0.947228  0  0  0.148793  0  1.010398  0  0  0.149355  0  1.011196  0  0  0.099148  0.148304  0  1.01015  0
H  H5  1  0.17031768  0.38515009  0.86532282  1  0  0.129172  0  0.947178  0  0  0.148821  0  1.010378  0  0  0.149385  0  1.011171  0  0  0.099184  0.148332  0  1.010126  0
H  H6  1  0.72235581  0.62509965  0.25887042  1  0  0.126918  0  0.983423  0  0  0.138602  0  1.056305  0  0  0.140682  0  1.056144  0  0  0.093336  0.137026  0  1.056633  0
H  H7  1  0.27764431  0.37490152  0.74113024  1  0  0.126939  0  0.983359  0  0  0.138608  0  1.056257  0  0  0.140689  0  1.056099  0  0  0.093346  0.137032  0  1.056584  0
H  H8  1  0.84547597  0.72027191  0.22050541  1  0  0.14254  0  0.951403  0  0  0.161861  0  1.009833  0  0  0.164051  0  1.008649  0  0  0.101582  0.160077  0  1.010884  0
H  H9  1  0.15452953  0.27972417  0.77949696  1  0  0.14254  0  0.951299  0  0  0.161848  0  1.009757  0  0  0.164046  0  1.008561  0  0  0.101577  0.16007  0  1.010797  0
H  H10  1  0.25475132  0.89801167  0.39739860  1  0  0.09454  0  0.952421  0  0  0.104831  0  1.014303  0  0  0.107759  0  1.012614  0  0  0.102718  0.102848  0  1.01544  0
H  H11  1  0.74524401  0.10198438  0.60260047  1  0  0.094479  0  0.952408  0  0  0.104781  0  1.014322  0  0  0.10772  0  1.012603  0  0  0.102728  0.102799  0  1.015462  0
H  H12  1  0.28979321  0.80482652  0.63181906  1  0  0.081321  0  0.971935  0  0  0.092153  0  1.033596  0  0  0.09432  0  1.033836  0  0  0.096369  0.090735  0  1.033193  0
H  H13  1  0.71019776  0.19517461  0.36817745  1  0  0.081238  0  0.971949  0  0  0.09208  0  1.033591  0  0  0.094244  0  1.033837  0  0  0.096338  0.090665  0  1.033188  0
H  H14  1  0.12111678  0.69792934  0.75350188  1  0  0.086622  0  0.935394  0  0  0.102366  0  0.986001  0  0  0.104675  0  0.98545  0  0  0.101805  0.100749  0  0.986399  0
H  H15  1  0.87887986  0.30207053  0.24649671  1  0  0.086591  0  0.935378  0  0  0.10236  0  0.985965  0  0  0.104668  0  0.985416  0  0  0.101809  0.100743  0  0.986363  0
H  H16  1  0.92058815  0.68139504  0.64056951  1  0  0.080924  0  0.977829  0  0  0.09273  0  1.039005  0  0  0.094606  0  1.039905  0  0  0.096098  0.0913  0  1.038465  0
H  H17  1  0.07940535  0.31860493  0.35943506  1  0  0.080792  0  0.977942  0  0  0.092669  0  1.039069  0  0  0.094543  0  1.039966  0  0  0.096063  0.091239  0  1.038526  0
H  H18  1  0.88476106  0.77924885  0.40469653  1  0  0.089224  0  0.969456  0  0  0.098899  0  1.034776  0  0  0.102065  0  1.032618  0  0  0.09931  0.097239  0  1.034857  0
H  H19  1  0.11522778  0.22075240  0.59530764  1  0  0.089177  0  0.969524  0  0  0.098868  0  1.034817  0  0  0.102039  0  1.032662  0  0  0.099309  0.097208  0  1.034894  0
H  H20  1  0.51176576  0.52130165  0.89059594  1  0  0.095333  0  0.953612  0  0  0.105149  0  1.016559  0  0  0.108179  0  1.015042  0  0  0.101464  0.102837  0  1.017998  0
H  H21  1  0.48825044  0.47868670  0.10940385  1  0  0.09532  0  0.953775  0  0  0.105169  0  1.016678  0  0  0.108203  0  1.015151  0  0  0.101485  0.102859  0  1.018107  0
H  H22  1  0.35419321  0.83856270  0.79830589  1  0  0.101322  0  0.94968  0  0  0.11211  0  1.007335  0  0  0.11531  0  1.005948  0  0  0.10231  0.109249  0  1.009457  0
H  H23  1  0.64581667  0.16142172  0.20168593  1  0  0.101309  0  0.949673  0  0  0.112081  0  1.007346  0  0  0.115284  0  1.005956  0  0  0.102265  0.109218  0  1.009472  0
H  H24  1  0.49120018  0.00751450  0.74185626  1  0  0.083349  0  0.962201  0  0  0.097184  0  1.020002  0  0  0.0997  0  1.018918  0  0  0.099246  0.095136  0  1.021219  0
H  H25  1  0.50879352  0.99248521  0.25813216  1  0  0.083383  0  0.962124  0  0  0.097201  0  1.019967  0  0  0.099718  0  1.018881  0  0  0.099247  0.095149  0  1.021191  0
H  H26  1  0.78312469  0.86107373  0.79643947  1  0  0.105057  0  0.962126  0  0  0.114024  0  1.024521  0  0  0.117456  0  1.022823  0  0  0.102184  0.11094  0  1.026763  0
H  H27  1  0.21687012  0.13893897  0.20356325  1  0  0.105053  0  0.96219  0  0  0.113981  0  1.024622  0  0  0.117412  0  1.022925  0  0  0.102152  0.110897  0  1.02686  0
H  H28  1  0.93804405  0.54431619  0.89420831  1  0  0.092832  0  0.97093  0  0  0.101722  0  1.037559  0  0  0.104964  0  1.035291  0  0  0.101884  0.099066  0  1.039983  0
H  H29  1  0.06195836  0.45569542  0.10580668  1  0  0.092831  0  0.970897  0  0  0.10172  0  1.037525  0  0  0.105006  0  1.0352  0  0  0.10189  0.099059  0  1.039955  0
H  H30  1  0.39603937  0.58243151  0.28185994  1  0  0.082526  0  0.958598  0  0  0.088633  0  1.02808  0  0  0.091238  0  1.026837  0  0  0.108612  0.086799  0  1.029114  0
H  H31  1  0.60395510  0.41757089  0.71813694  1  0  0.082524  0  0.958529  0  0  0.088646  0  1.02799  0  0  0.091256  0  1.026742  0  0  0.108642  0.086807  0  1.029047  0
H  H32  1  0.64095113  0.76581616  0.47224082  1  0  0.116475  0  0.940748  0  0  0.138638  0  0.998879  0  0  0.140072  0  0.998024  0  0  0.095178  0.137581  0  0.999543  0
H  H33  1  0.35904167  0.23418761  0.52776159  1  0  0.116443  0  0.940715  0  0  0.138599  0  0.998867  0  0  0.140031  0  0.998014  0  0  0.095179  0.137541  0  0.99953  0
H  H34  1  0.70358685  0.61665236  0.63700851  1  0  0.112204  0  0.976334  0  0  0.13045  0  1.040096  0  0  0.130708  0  1.042548  0  0  0.089573  0.130025  0  1.038924  0
H  H35  1  0.29640728  0.38334627  0.36299224  1  0  0.112204  0  0.976312  0  0  0.130463  0  1.040064  0  0  0.130719  0  1.042518  0  0  0.089602  0.130039  0  1.038888  0
H  H36  1  0.80864523  0.56132291  0.52278999  1  0  0.117934  0  0.943668  0  0  0.138554  0  1.00609  0  0  0.138986  0  1.007345  0  0  0.096088  0.139755  0  1.002104  0
H  H37  1  0.19134803  0.43868210  0.47721028  1  0  0.117944  0  0.943688  0  0  0.138545  0  1.006129  0  0  0.138975  0  1.007386  0  0  0.096064  0.139747  0  1.002141  0
C  C38  1  0.52287646  0.12540384  0.92058708  1  0  0.049266  0  3.608259  0  0  0.011927  0  3.861005  0  0  0.014714  0  3.877285  0  0  0.067026  0.00963  0  3.850071  0
C  C39  1  0.47712771  0.87459736  0.07941610  1  0  0.04922  0  3.608214  0  0  0.011967  0  3.861022  0  0  0.014755  0  3.877305  0  0  0.067015  0.009666  0  3.850072  0
C  C40  1  0.62806228  0.85473939  0.08699423  1  0  0.282976  0  3.690104  0  0  0.285671  0  3.940196  0  0  0.290486  0  3.961643  0  0  0.138939  0.282198  0  3.92559  0
C  C41  1  0.37194289  0.14526185  0.91301149  1  0  0.283036  0  3.690154  0  0  0.285791  0  3.940195  0  0  0.290611  0  3.961641  0  0  0.138982  0.282303  0  3.925606  0
C  C42  1  0.76403314  0.69437888  0.18178166  1  0  -0.389934  0  3.697497  0  0  -0.472159  0  3.934622  0  0  -0.475652  0  3.942882  0  0  -0.242123  -0.469404  0  3.929391  0
C  C43  1  0.23597220  0.30561977  0.81822154  1  0  -0.389993  0  3.697424  0  0  -0.472193  0  3.934546  0  0  -0.475693  0  3.9428  0  0  -0.242163  -0.469448  0  3.929343  0
C  C44  1  0.04450004  0.90534848  0.24591750  1  0  0.661169  0  3.876687  0  0  0.610378  0  4.163506  0  0  0.646473  0  4.155728  0  0  0.21651  0.585819  0  4.168358  0
C  C45  1  0.95549149  0.09465141  0.75408113  1  0  0.661262  0  3.876472  0  0  0.610445  0  4.16331  0  0  0.646541  0  4.155527  0  0  0.216563  0.585884  0  4.168171  0
C  C46  1  0.06772955  0.84418402  0.38732243  1  0  -0.078833  0  3.772145  0  0  -0.053159  0  4.001859  0  0  -0.062956  0  4.02656  0  0  -0.02216  -0.047162  0  3.986424  0
C  C47  1  0.93226079  0.15580955  0.61268010  1  0  -0.079044  0  3.772188  0  0  -0.053361  0  4.001954  0  0  -0.063157  0  4.026658  0  0  -0.022226  -0.047361  0  3.986517  0
C  C48  1  0.18224610  0.85048556  0.45175575  1  0  -0.056697  0  3.734707  0  0  -0.082001  0  3.981349  0  0  -0.080995  0  4.002924  0  0  -0.081053  -0.082415  0  3.967161  0
C  C49  1  0.81774984  0.14950918  0.54824120  1  0  -0.056624  0  3.734416  0  0  -0.081997  0  3.981145  0  0  -0.080988  0  4.002724  0  0  -0.081105  -0.082415  0  3.966968  0
C  C50  1  0.20155339  0.79768682  0.58289390  1  0  -0.075071  0  3.772931  0  0  -0.086559  0  4.023879  0  0  -0.090443  0  4.046965  0  0  -0.091796  -0.083833  0  4.007956  0
C  C51  1  0.79844050  0.20230793  0.41710307  1  0  -0.074938  0  3.772687  0  0  -0.08639  0  4.023621  0  0  -0.090273  0  4.046708  0  0  -0.091734  -0.083664  0  4.007702  0
C  C52  1  0.10737844  0.73699952  0.65095780  1  0  -0.049145  0  3.745095  0  0  -0.065347  0  3.994568  0  0  -0.065367  0  4.015204  0  0  -0.083579  -0.064753  0  3.980185  0
C  C53  1  0.89261484  0.26299654  0.34904129  1  0  -0.049166  0  3.745089  0  0  -0.065399  0  3.994615  0  0  -0.065418  0  4.01525  0  0  -0.083554  -0.064809  0  3.980235  0
C  C54  1  0.99441848  0.72813024  0.58753506  1  0  -0.080623  0  3.776007  0  0  -0.090248  0  4.022969  0  0  -0.094136  0  4.045944  0  0  -0.094874  -0.087145  0  4.005858  0
C  C55  1  0.00557273  0.27186588  0.41246745  1  0  -0.08049  0  3.776094  0  0  -0.090191  0  4.023082  0  0  -0.094073  0  4.046056  0  0  -0.094838  -0.087089  0  4.005971  0
C  C56  1  0.97413619  0.78225620  0.45610396  1  0  -0.081212  0  3.756818  0  0  -0.10613  0  4.003712  0  0  -0.105304  0  4.023973  0  0  -0.089519  -0.10607  0  3.987679  0
C  C57  1  0.02585179  0.21774250  0.54389939  1  0  -0.081014  0  3.756834  0  0  -0.10593  0  4.003705  0  0  -0.105116  0  4.023978  0  0  -0.089455  -0.105868  0  3.98767  0
C  C58  1  0.82984241  0.32432853  0.94502200  1  0  0.655962  0  3.889231  0  0  0.605994  0  4.175942  0  0  0.641646  0  4.168455  0  0  0.213443  0.58175  0  4.180331  0
C  C59  1  0.17018061  0.67567386  0.05497886  1  0  0.656036  0  3.889376  0  0  0.60609  0  4.176039  0  0  0.641752  0  4.16855  0  0  0.213458  0.581845  0  4.180427  0
C  C60  1  0.73447401  0.51391085  0.89589433  1  0  -0.08644  0  3.774961  0  0  -0.059507  0  4.002999  0  0  -0.068337  0  4.026549  0  0  -0.025265  -0.054101  0  3.987086  0
C  C61  1  0.26553775  0.48609160  0.10410834  1  0  -0.086603  0  3.774991  0  0  -0.0596  0  4.002954  0  0  -0.068464  0  4.026554  0  0  -0.025278  -0.054197  0  3.987047  0
C  C62  1  0.56965440  0.59720558  0.86908008  1  0  -0.073302  0  3.741544  0  0  -0.097517  0  3.98962  0  0  -0.097195  0  4.009955  0  0  -0.084223  -0.097351  0  3.976034  0
C  C63  1  0.43035892  0.40278910  0.13091585  1  0  -0.073248  0  3.741578  0  0  -0.097511  0  3.989629  0  0  -0.097176  0  4.00997  0  0  -0.084239  -0.09734  0  3.976047  0
C  C64  1  0.48223326  0.77417319  0.81550676  1  0  -0.077866  0  3.759008  0  0  -0.088955  0  4.010874  0  0  -0.09201  0  4.031747  0  0  -0.094802  -0.086795  0  3.997403  0
C  C65  1  0.51777356  0.22582014  0.18448372  1  0  -0.077869  0  3.75902  0  0  -0.088947  0  4.010899  0  0  -0.092003  0  4.031769  0  0  -0.094732  -0.086789  0  3.997433  0
C  C66  1  0.55918624  0.86903284  0.78600451  1  0  -0.066582  0  3.76616  0  0  -0.08368  0  4.014708  0  0  -0.084028  0  4.036236  0  0  -0.093197  -0.083438  0  3.999833  0
C  C67  1  0.44081556  0.13096695  0.21398977  1  0  -0.066659  0  3.766212  0  0  -0.083769  0  4.01474  0  0  -0.084118  0  4.036268  0  0  -0.093267  -0.083526  0  3.999865  0
C  C68  1  0.72326727  0.78720900  0.81537713  1  0  -0.080391  0  3.756449  0  0  -0.092301  0  4.00865  0  0  -0.095572  0  4.029705  0  0  -0.095189  -0.089804  0  3.99474  0
C  C69  1  0.27673078  0.21280111  0.18462388  1  0  -0.080323  0  3.756363  0  0  -0.09217  0  4.008522  0  0  -0.095441  0  4.029589  0  0  -0.095052  -0.08967  0  3.994598  0
C  C70  1  0.81019097  0.61033592  0.87077518  1  0  -0.073798  0  3.743572  0  0  -0.097856  0  3.990964  0  0  -0.09711  0  4.010392  0  0  -0.086824  -0.097931  0  3.978373  0
C  C71  1  0.18981677  0.38967302  0.12923382  1  0  -0.073763  0  3.74347  0  0  -0.097855  0  3.990855  0  0  -0.09713  0  4.010274  0  0  -0.086903  -0.097925  0  3.978267  0
C  C72  1  0.44382452  0.54477859  0.38025724  1  0  0.019097  0  3.705179  0  0  -0.010836  0  3.967854  0  0  -0.009798  0  3.985742  0  0  0.043207  -0.012552  0  3.957126  0
C  C73  1  0.55617052  0.45522255  0.61974093  1  0  0.019227  0  3.705021  0  0  -0.010709  0  3.967687  0  0  -0.009675  0  3.985574  0  0  0.04321  -0.012437  0  3.956973  0
C  C74  1  0.58946527  0.56395344  0.51788961  1  0  0.245705  0  3.749273  0  0  0.258675  0  3.997317  0  0  0.261798  0  4.019295  0  0  0.118616  0.256178  0  3.983866  0
C  C75  1  0.41053035  0.43604643  0.48210899  1  0  0.245778  0  3.749218  0  0  0.258746  0  3.99725  0  0  0.261868  0  4.019229  0  0  0.118627  0.256243  0  3.983803  0
C  C76  1  0.69079172  0.63098931  0.53925248  1  0  -0.361127  0  3.713392  0  0  -0.440603  0  3.944315  0  0  -0.442858  0  3.954161  0  0  -0.236066  -0.439318  0  3.937543  0
C  C77  1  0.30920169  0.36901314  0.46074781  1  0  -0.361101  0  3.713376  0  0  -0.440567  0  3.944323  0  0  -0.442823  0  3.954173  0  0  -0.236088  -0.439285  0  3.937551  0
N  N78  1  0.64811396  0.98374829  0.00560601  1  0  -0.306068  0  3.214521  0  0  -0.233665  0  3.483039  0  0  -0.249512  0  3.497761  0  0  -0.302458  -0.222028  0  3.471974  0
N  N79  1  0.35189022  0.01625290  0.99439631  1  0  -0.306137  0  3.214592  0  0  -0.2338  0  3.483139  0  0  -0.249661  0  3.497879  0  0  -0.302434  -0.222151  0  3.472066  0
N  N80  1  0.53180446  0.60844848  0.39706165  1  0  -0.320323  0  3.070932  0  0  -0.285832  0  3.335439  0  0  -0.294828  0  3.351531  0  0  -0.306426  -0.280004  0  3.325999  0
N  N81  1  0.46819263  0.39155264  0.60293564  1  0  -0.320409  0  3.070875  0  0  -0.285926  0  3.335398  0  0  -0.294922  0  3.35149  0  0  -0.30645  -0.280095  0  3.325966  0
O  O82  1  0.92395681  0.91993592  0.19013262  1  0  -0.646186  0  2.093792  0  0  -0.57648  0  2.355314  0  0  -0.605834  0  2.341674  0  0  -0.316958  -0.55619  0  2.364527  0
O  O83  1  0.07602072  0.08007673  0.80986432  1  0  -0.646221  0  2.093918  0  0  -0.576524  0  2.355487  0  0  -0.605867  0  2.34182  0  0  -0.317  -0.556232  0  2.364704  0
O  O84  1  0.85391218  0.06143328  0.80894498  1  0  -0.630499  0  2.092435  0  0  -0.564231  0  2.358316  0  0  -0.593567  0  2.346129  0  0  -0.310554  -0.543549  0  2.366181  0
O  O85  1  0.14608492  0.93855001  0.19105420  1  0  -0.630419  0  2.092664  0  0  -0.564184  0  2.358549  0  0  -0.593495  0  2.346321  0  0  -0.31049  -0.543504  0  2.366412  0
O  O86  1  0.75523128  0.24427806  0.95664791  1  0  -0.643076  0  2.079903  0  0  -0.579617  0  2.345807  0  0  -0.608635  0  2.333832  0  0  -0.316391  -0.559396  0  2.353816  0
O  O87  1  0.24479274  0.75571780  0.04334408  1  0  -0.643033  0  2.080016  0  0  -0.579544  0  2.345834  0  0  -0.608561  0  2.333854  0  0  -0.316385  -0.559338  0  2.353875  0
O  O88  1  0.02119942  0.74173411  0.03160466  1  0  -0.632355  0  2.079883  0  0  -0.564486  0  2.341785  0  0  -0.593823  0  2.329964  0  0  -0.315549  -0.54424  0  2.350006  0
O  O89  1  0.97881617  0.25827102  0.96840644  1  0  -0.63236  0  2.080028  0  0  -0.564415  0  2.341879  0  0  -0.593749  0  2.330065  0  0  -0.315519  -0.54417  0  2.350099  0
