# generated using pymatgen
data_HgH8C10S2(NCl)2
_symmetry_space_group_name_H-M   'P 1'
_cell_length_a   8.03073947
_cell_length_b   8.03070258
_cell_length_c   11.29784722
_cell_angle_alpha   87.57233858
_cell_angle_beta   87.57200271
_cell_angle_gamma   73.59988778
_symmetry_Int_Tables_number   1
_chemical_formula_structural   HgH8C10S2(NCl)2
_chemical_formula_sum   'Hg2 H16 C20 S4 N4 Cl4'
_cell_volume   698.00207605
_cell_formula_units_Z   2
loop_
 _symmetry_equiv_pos_site_id
 _symmetry_equiv_pos_as_xyz
  1  'x, y, z'
loop_
 _atom_site_type_symbol
 _atom_site_label
 _atom_site_symmetry_multiplicity
 _atom_site_fract_x
 _atom_site_fract_y
 _atom_site_fract_z
 _atom_site_occupancy
 _atom_site_hle17_bader_spin_density
 _atom_site_hle17_ddec_charge
 _atom_site_hle17_ddec_spin_density
 _atom_site_hle17_ddec_sum_bond_order
 _atom_site_hle17_magmom
 _atom_site_hse06_10hf_bader_spin_density
 _atom_site_hse06_10hf_ddec_charge
 _atom_site_hse06_10hf_ddec_spin_density
 _atom_site_hse06_10hf_ddec_sum_bond_order
 _atom_site_hse06_10hf_magmom
 _atom_site_hse06_bader_spin_density
 _atom_site_hse06_ddec_charge
 _atom_site_hse06_ddec_spin_density
 _atom_site_hse06_ddec_sum_bond_order
 _atom_site_hse06_magmom
 _atom_site_pbe_bader_spin_density
 _atom_site_pbe_cm5_charge
 _atom_site_pbe_ddec_charge
 _atom_site_pbe_ddec_spin_density
 _atom_site_pbe_ddec_sum_bond_order
 _atom_site_pbe_magmom
Hg  Hg0  1  0.99609377  0.00390527  0.25000016  1  0  0.74332  0  2.143831  0  0  0.583498  0  2.649756  0  0  0.62989  0  2.619753  0  0  0.510867  0.551504  0  2.670645  0
Hg  Hg1  1  0.00390665  0.99609479  0.75000105  1  0  0.743319  0  2.143897  0  0  0.583493  0  2.64983  0  0  0.629886  0  2.619827  0  0  0.510877  0.551497  0  2.670716  0
H  H2  1  0.73891331  0.00592728  0.48450660  1  0  0.080399  0  0.935576  0  0  0.088133  0  0.999771  0  0  0.090936  0  0.99694  0  0  0.105813  0.086107  0  1.001788  0
H  H3  1  0.99407048  0.26108460  0.01549170  1  0  0.080374  0  0.935574  0  0  0.088104  0  0.999771  0  0  0.090907  0  0.996941  0  0  0.105817  0.086076  0  1.001789  0
H  H4  1  0.26108586  0.99407279  0.51549376  1  0  0.080411  0  0.935594  0  0  0.088139  0  0.999797  0  0  0.090942  0  0.996967  0  0  0.105819  0.086111  0  1.001813  0
H  H5  1  0.00593155  0.73891414  0.98450861  1  0  0.080383  0  0.935591  0  0  0.088111  0  0.999794  0  0  0.090915  0  0.996965  0  0  0.105816  0.086083  0  1.001812  0
H  H6  1  0.57772056  0.19244688  0.64760814  1  0  0.109761  0  0.985122  0  0  0.114075  0  1.052675  0  0  0.117882  0  1.051389  0  0  0.094655  0.111241  0  1.053952  0
H  H7  1  0.80754992  0.42227456  0.85239043  1  0  0.109775  0  0.98512  0  0  0.114129  0  1.05264  0  0  0.117926  0  1.051365  0  0  0.094662  0.111293  0  1.053917  0
H  H8  1  0.42227987  0.80755318  0.35239306  1  0  0.109769  0  0.985123  0  0  0.114094  0  1.052666  0  0  0.11789  0  1.051393  0  0  0.094652  0.111258  0  1.053944  0
H  H9  1  0.19245157  0.57772160  0.14760821  1  0  0.109764  0  0.985167  0  0  0.114104  0  1.052695  0  0  0.117901  0  1.051419  0  0  0.09466  0.111269  0  1.053971  0
H  H10  1  0.79250093  0.59937314  0.50183962  1  0  0.117968  0  0.945739  0  0  0.128152  0  1.005636  0  0  0.13157  0  1.004387  0  0  0.101382  0.125676  0  1.006714  0
H  H11  1  0.40062441  0.20749428  0.99816288  1  0  0.117911  0  0.945802  0  0  0.128133  0  1.005669  0  0  0.131553  0  1.004414  0  0  0.10136  0.125657  0  1.006747  0
H  H12  1  0.20749700  0.40062693  0.49815989  1  0  0.117979  0  0.945758  0  0  0.12818  0  1.005634  0  0  0.131597  0  1.004384  0  0  0.101394  0.125704  0  1.006712  0
H  H13  1  0.59937797  0.79250318  0.00183746  1  0  0.117916  0  0.945776  0  0  0.128133  0  1.005642  0  0  0.131553  0  1.004384  0  0  0.10136  0.125656  0  1.00672  0
H  H14  1  0.94717762  0.39374902  0.34859167  1  0  0.080161  0  0.946319  0  0  0.085386  0  1.016847  0  0  0.088128  0  1.013887  0  0  0.103136  0.083256  0  1.019266  0
H  H15  1  0.60625069  0.05282408  0.15140950  1  0  0.08013  0  0.946335  0  0  0.085356  0  1.016871  0  0  0.088096  0  1.013912  0  0  0.103111  0.083225  0  1.019292  0
H  H16  1  0.05281905  0.60625107  0.65140789  1  0  0.080163  0  0.946323  0  0  0.085401  0  1.016836  0  0  0.088134  0  1.013886  0  0  0.103131  0.083269  0  1.019257  0
H  H17  1  0.39374902  0.94717858  0.84859165  1  0  0.080162  0  0.946336  0  0  0.085387  0  1.016869  0  0  0.088125  0  1.013913  0  0  0.103124  0.083255  0  1.019291  0
C  C18  1  0.74765958  0.13824371  0.49264458  1  0  0.128344  0  3.743184  0  0  0.098809  0  3.998419  0  0  0.106793  0  4.015975  0  0  0.037745  0.093537  0  3.986521  0
C  C19  1  0.86175631  0.25233780  0.00735482  1  0  0.128426  0  3.743166  0  0  0.098916  0  3.998393  0  0  0.1069  0  4.015945  0  0  0.037746  0.093644  0  3.986492  0
C  C20  1  0.25233924  0.86175766  0.50735576  1  0  0.128364  0  3.743111  0  0  0.098835  0  3.998338  0  0  0.106819  0  4.015889  0  0  0.037757  0.093565  0  3.986436  0
C  C21  1  0.13824822  0.74766093  0.99264718  1  0  0.128389  0  3.743264  0  0  0.098865  0  3.998502  0  0  0.106849  0  4.016051  0  0  0.037738  0.093594  0  3.986596  0
C  C22  1  0.65740864  0.24267155  0.58293499  1  0  -0.190858  0  3.776454  0  0  -0.204468  0  4.023718  0  0  -0.213692  0  4.045601  0  0  -0.101266  -0.198469  0  4.009429  0
C  C23  1  0.75732537  0.34258667  0.91706440  1  0  -0.190859  0  3.776398  0  0  -0.204558  0  4.02369  0  0  -0.213772  0  4.045573  0  0  -0.101234  -0.198559  0  4.0094  0
C  C24  1  0.34259089  0.75732722  0.41706452  1  0  -0.190837  0  3.776473  0  0  -0.204474  0  4.023752  0  0  -0.213689  0  4.045638  0  0  -0.101244  -0.198476  0  4.009466  0
C  C25  1  0.24267541  0.65741209  0.08293507  1  0  -0.190811  0  3.776509  0  0  -0.204498  0  4.023766  0  0  -0.213709  0  4.045645  0  0  -0.101243  -0.198501  0  4.009475  0
C  C26  1  0.67245471  0.41153734  0.58817804  1  0  0.085739  0  3.783002  0  0  0.100836  0  4.0378  0  0  0.107173  0  4.05966  0  0  0.002758  0.096676  0  4.022775  0
C  C27  1  0.58846011  0.32754295  0.91181982  1  0  0.085628  0  3.783145  0  0  0.100802  0  4.03786  0  0  0.107129  0  4.059745  0  0  0.002699  0.096641  0  4.022848  0
C  C28  1  0.32754500  0.58846531  0.41182046  1  0  0.085681  0  3.783194  0  0  0.100799  0  4.037965  0  0  0.107135  0  4.059826  0  0  0.002729  0.096642  0  4.022936  0
C  C29  1  0.41154191  0.67245579  0.08817961  1  0  0.085641  0  3.783219  0  0  0.10087  0  4.037826  0  0  0.107181  0  4.059761  0  0  0.002752  0.096707  0  4.022816  0
C  C30  1  0.77741271  0.46865284  0.50256836  1  0  -0.153465  0  3.7041  0  0  -0.171949  0  3.955804  0  0  -0.179975  0  3.976222  0  0  -0.092616  -0.166614  0  3.942028  0
C  C31  1  0.53134410  0.22258435  0.99742854  1  0  -0.153346  0  3.704017  0  0  -0.171891  0  3.955704  0  0  -0.179918  0  3.97612  0  0  -0.092585  -0.166547  0  3.941899  0
C  C32  1  0.22258646  0.53134722  0.49743023  1  0  -0.153476  0  3.704089  0  0  -0.171989  0  3.955795  0  0  -0.180013  0  3.97621  0  0  -0.09263  -0.166655  0  3.94202  0
C  C33  1  0.46865669  0.77741441  0.00257269  1  0  -0.153333  0  3.704101  0  0  -0.171886  0  3.955766  0  0  -0.179908  0  3.976176  0  0  -0.092591  -0.166549  0  3.941977  0
C  C34  1  0.86360772  0.35445033  0.41640667  1  0  0.127329  0  3.734232  0  0  0.094498  0  3.995989  0  0  0.103002  0  4.012893  0  0  0.036231  0.08889  0  3.984762  0
C  C35  1  0.64554814  0.13639469  0.08359372  1  0  0.127386  0  3.734177  0  0  0.094559  0  3.995962  0  0  0.103072  0  4.012857  0  0  0.036293  0.088952  0  3.984739  0
C  C36  1  0.13638985  0.64555104  0.58359371  1  0  0.127345  0  3.73417  0  0  0.094509  0  3.995923  0  0  0.103019  0  4.01283  0  0  0.036247  0.088902  0  3.984698  0
C  C37  1  0.35445443  0.86360665  0.91640915  1  0  0.127309  0  3.734139  0  0  0.094484  0  3.995919  0  0  0.102997  0  4.012812  0  0  0.03627  0.088875  0  3.984694  0
S  S38  1  0.56711789  0.56308439  0.69530809  1  0  0.054372  0  2.49341  0  0  0.055536  0  2.852275  0  0  0.052103  0  2.854344  0  0  0.066759  0.058582  0  2.851465  0
S  S39  1  0.43691402  0.43287528  0.80469310  1  0  0.054334  0  2.493549  0  0  0.055473  0  2.852388  0  0  0.052043  0  2.854463  0  0  0.066704  0.058518  0  2.851578  0
S  S40  1  0.43288128  0.43691567  0.30469227  1  0  0.054378  0  2.493479  0  0  0.05553  0  2.852349  0  0  0.0521  0  2.854413  0  0  0.066751  0.058576  0  2.85154  0
S  S41  1  0.56308783  0.56711959  0.19530646  1  0  0.054358  0  2.493516  0  0  0.05548  0  2.852331  0  0  0.052056  0  2.854412  0  0  0.066723  0.058526  0  2.851525  0
N  N42  1  0.84943992  0.19207714  0.41129973  1  0  -0.320553  0  3.281086  0  0  -0.249325  0  3.553762  0  0  -0.269595  0  3.574477  0  0  -0.323338  -0.235562  0  3.539868  0
N  N43  1  0.80792058  0.15055935  0.08870046  1  0  -0.320595  0  3.281165  0  0  -0.24939  0  3.553852  0  0  -0.269663  0  3.57457  0  0  -0.323349  -0.235626  0  3.539957  0
N  N44  1  0.15055836  0.80792164  0.58870070  1  0  -0.320605  0  3.281122  0  0  -0.24937  0  3.553781  0  0  -0.26964  0  3.574501  0  0  -0.32337  -0.235606  0  3.539884  0
N  N45  1  0.19207949  0.84944200  0.91130072  1  0  -0.320603  0  3.281128  0  0  -0.249389  0  3.553801  0  0  -0.269661  0  3.574522  0  0  -0.323383  -0.235624  0  3.5399  0
Cl  Cl46  1  0.22773725  0.13575242  0.21112012  1  0  -0.490845  0  0.96587  0  0  -0.431413  0  1.235638  0  0  -0.449249  0  1.219865  0  0  -0.286675  -0.419052  0  1.246528  0
Cl  Cl47  1  0.86425382  0.77225822  0.28887849  1  0  -0.490839  0  0.96588  0  0  -0.431405  0  1.235636  0  0  -0.44924  0  1.219866  0  0  -0.286671  -0.419041  0  1.246527  0
Cl  Cl48  1  0.77226532  0.86424892  0.78888009  1  0  -0.49084  0  0.965901  0  0  -0.431415  0  1.235678  0  0  -0.44925  0  1.219904  0  0  -0.286675  -0.419052  0  1.246564  0
Cl  Cl49  1  0.13574927  0.22773663  0.71112103  1  0  -0.490823  0  0.965885  0  0  -0.431391  0  1.23566  0  0  -0.449226  0  1.219888  0  0  -0.286671  -0.419029  0  1.246547  0
