# generated using pymatgen
data_LiH2C2O3
_symmetry_space_group_name_H-M   'P 1'
_cell_length_a   5.00523638
_cell_length_b   6.56300777
_cell_length_c   8.85998395
_cell_angle_alpha   95.86227135
_cell_angle_beta   90.00008031
_cell_angle_gamma   89.99661304
_symmetry_Int_Tables_number   1
_chemical_formula_structural   LiH2C2O3
_chemical_formula_sum   'Li4 H8 C8 O12'
_cell_volume   289.52312056
_cell_formula_units_Z   4
loop_
 _symmetry_equiv_pos_site_id
 _symmetry_equiv_pos_as_xyz
  1  'x, y, z'
loop_
 _atom_site_type_symbol
 _atom_site_label
 _atom_site_symmetry_multiplicity
 _atom_site_fract_x
 _atom_site_fract_y
 _atom_site_fract_z
 _atom_site_occupancy
 _atom_site_hle17_bader_spin_density
 _atom_site_hle17_ddec_charge
 _atom_site_hle17_ddec_spin_density
 _atom_site_hle17_ddec_sum_bond_order
 _atom_site_hle17_magmom
 _atom_site_hse06_10hf_bader_spin_density
 _atom_site_hse06_10hf_ddec_charge
 _atom_site_hse06_10hf_ddec_spin_density
 _atom_site_hse06_10hf_ddec_sum_bond_order
 _atom_site_hse06_10hf_magmom
 _atom_site_hse06_bader_spin_density
 _atom_site_hse06_ddec_charge
 _atom_site_hse06_ddec_spin_density
 _atom_site_hse06_ddec_sum_bond_order
 _atom_site_hse06_magmom
 _atom_site_pbe_bader_spin_density
 _atom_site_pbe_cm5_charge
 _atom_site_pbe_ddec_charge
 _atom_site_pbe_ddec_spin_density
 _atom_site_pbe_ddec_sum_bond_order
 _atom_site_pbe_magmom
Li  Li0  1  0.83858207  0.13013653  0.26263487  1  0  0.845289  0  0.417794  0  0  0.80477  0  0.524516  0  0  0.814619  0  0.507271  0  0  0.530017  0.797636  0  0.536916  0
Li  Li1  1  0.33862460  0.86990670  0.23736641  1  0  0.845256  0  0.417977  0  0  0.804781  0  0.524605  0  0  0.814636  0  0.507368  0  0  0.530151  0.797648  0  0.536996  0
Li  Li2  1  0.16132426  0.86990236  0.73735726  1  0  0.84526  0  0.418028  0  0  0.80484  0  0.524584  0  0  0.814684  0  0.507354  0  0  0.530214  0.797718  0  0.536967  0
Li  Li3  1  0.66148552  0.13012912  0.76262999  1  0  0.845264  0  0.417723  0  0  0.804683  0  0.524531  0  0  0.81454  0  0.50728  0  0  0.529847  0.797539  0  0.536946  0
H  H4  1  0.65793794  0.30691909  0.04407705  1  0  0.391323  0  0.9076  0  0  0.36511  0  0.982  0  0  0.375954  0  0.966669  0  0  0.314004  0.357463  0  0.990711  0
H  H5  1  0.15772536  0.69310843  0.45589609  1  0  0.391201  0  0.907359  0  0  0.365012  0  0.981727  0  0  0.375855  0  0.966721  0  0  0.313993  0.357373  0  0.99041  0
H  H6  1  0.34227007  0.69313207  0.95590359  1  0  0.391112  0  0.907459  0  0  0.364896  0  0.981895  0  0  0.375741  0  0.966886  0  0  0.313879  0.357249  0  0.990594  0
H  H7  1  0.84211904  0.30692434  0.54408992  1  0  0.39134  0  0.907431  0  0  0.365126  0  0.981845  0  0  0.37597  0  0.966613  0  0  0.313992  0.357479  0  0.990554  0
H  H8  1  0.18556364  0.45365966  0.13055166  1  0  0.081629  0  0.916736  0  0  0.08787  0  0.979107  0  0  0.090425  0  0.977353  0  0  0.130722  0.08603  0  0.980477  0
H  H9  1  0.68563150  0.54634646  0.36951012  1  0  0.08154  0  0.917009  0  0  0.087668  0  0.979515  0  0  0.090217  0  0.977765  0  0  0.130816  0.085831  0  0.980876  0
H  H10  1  0.81438464  0.54632548  0.86952213  1  0  0.081658  0  0.917131  0  0  0.087778  0  0.9796  0  0  0.090331  0  0.977847  0  0  0.130838  0.085937  0  0.980961  0
H  H11  1  0.31438471  0.45363714  0.63056693  1  0  0.081783  0  0.916652  0  0  0.087948  0  0.979105  0  0  0.090504  0  0.97735  0  0  0.130837  0.086111  0  0.980471  0
C  C12  1  0.16907570  0.24406377  0.92676339  1  0  0.706975  0  3.813163  0  0  0.660659  0  4.111918  0  0  0.69366  0  4.100841  0  0  0.249288  0.638293  0  4.118857  0
C  C13  1  0.66920188  0.75589844  0.57319485  1  0  0.706791  0  3.81131  0  0  0.660614  0  4.109898  0  0  0.693624  0  4.098816  0  0  0.249392  0.638233  0  4.116849  0
C  C14  1  0.83085860  0.75591085  0.07318769  1  0  0.706258  0  3.812244  0  0  0.660294  0  4.110499  0  0  0.693312  0  4.09942  0  0  0.249297  0.63791  0  4.117445  0
C  C15  1  0.33087827  0.24405470  0.42677378  1  0  0.7069  0  3.812833  0  0  0.660886  0  4.11113  0  0  0.693873  0  4.100077  0  0  0.249558  0.638523  0  4.118067  0
C  C16  1  0.03853902  0.40560098  0.04159355  1  0  0.060938  0  3.617989  0  0  0.037473  0  3.86647  0  0  0.038307  0  3.873405  0  0  0.014097  0.03662  0  3.862128  0
C  C17  1  0.53847821  0.59441395  0.45837084  1  0  0.061203  0  3.618137  0  0  0.03778  0  3.866571  0  0  0.038619  0  3.873501  0  0  0.0141  0.036931  0  3.862273  0
C  C18  1  0.96151316  0.59443028  0.95837541  1  0  0.060966  0  3.619063  0  0  0.03749  0  3.867483  0  0  0.038323  0  3.874399  0  0  0.013968  0.036661  0  3.86315  0
C  C19  1  0.46144410  0.40562494  0.54162128  1  0  0.060709  0  3.617673  0  0  0.037197  0  3.866147  0  0  0.038035  0  3.873075  0  0  0.013856  0.036334  0  3.861848  0
O  O20  1  0.81322276  0.33001534  0.11596554  1  0  -0.621314  0  2.122789  0  0  -0.581637  0  2.359872  0  0  -0.595818  0  2.344508  0  0  -0.44648  -0.57143  0  2.368626  0
O  O21  1  0.31310519  0.66993566  0.38404563  1  0  -0.621183  0  2.122392  0  0  -0.581553  0  2.359478  0  0  -0.595743  0  2.344409  0  0  -0.446437  -0.57135  0  2.368228  0
O  O22  1  0.18687137  0.66996223  0.88405011  1  0  -0.621033  0  2.12252  0  0  -0.581375  0  2.359545  0  0  -0.595613  0  2.344586  0  0  -0.446257  -0.571191  0  2.368325  0
O  O23  1  0.68679315  0.33003426  0.61597169  1  0  -0.621404  0  2.122549  0  0  -0.581663  0  2.35954  0  0  -0.595887  0  2.344354  0  0  -0.44648  -0.571463  0  2.368331  0
O  O24  1  0.01923253  0.12777247  0.84019730  1  0  -0.763179  0  1.957865  0  0  -0.719516  0  2.202376  0  0  -0.739807  0  2.186264  0  0  -0.43187  -0.705432  0  2.21322  0
O  O25  1  0.51917311  0.87210364  0.65971047  1  0  -0.762954  0  1.956509  0  0  -0.719486  0  2.201196  0  0  -0.739731  0  2.184996  0  0  -0.431567  -0.705431  0  2.212102  0
O  O26  1  0.98081166  0.87211329  0.15975376  1  0  -0.762724  0  1.957159  0  0  -0.719339  0  2.201762  0  0  -0.739601  0  2.185569  0  0  -0.431641  -0.705272  0  2.212633  0
O  O27  1  0.48076919  0.12780053  0.34023071  1  0  -0.763091  0  1.958056  0  0  -0.719543  0  2.202469  0  0  -0.73984  0  2.186373  0  0  -0.431831  -0.705458  0  2.213302  0
O  O28  1  0.42254050  0.23693663  0.92154061  1  0  -0.701688  0  2.006569  0  0  -0.654695  0  2.247969  0  0  -0.677296  0  2.233719  0  0  -0.359839  -0.63913  0  2.257286  0
O  O29  1  0.92274011  0.76314487  0.57852698  1  0  -0.701638  0  2.005906  0  0  -0.654674  0  2.247181  0  0  -0.677287  0  2.232983  0  0  -0.360203  -0.639095  0  2.25648  0
O  O30  1  0.57730590  0.76312823  0.07850090  1  0  -0.701445  0  2.005554  0  0  -0.654542  0  2.246738  0  0  -0.677155  0  2.232538  0  0  -0.360117  -0.638976  0  2.256059  0
O  O31  1  0.07739798  0.23691844  0.42152118  1  0  -0.701741  0  2.00643  0  0  -0.654854  0  2.247713  0  0  -0.67745  0  2.233484  0  0  -0.360143  -0.639292  0  2.257034  0
