# generated using pymatgen
data_AlH8C14NClO6
_symmetry_space_group_name_H-M   'P 1'
_cell_length_a   6.63375633
_cell_length_b   15.24333430
_cell_length_c   17.03361395
_cell_angle_alpha   86.25732963
_cell_angle_beta   81.41845790
_cell_angle_gamma   77.73108676
_symmetry_Int_Tables_number   1
_chemical_formula_structural   AlH8C14NClO6
_chemical_formula_sum   'Al2 H16 C28 N2 Cl2 O12'
_cell_volume   1663.26184243
_cell_formula_units_Z   2
loop_
 _symmetry_equiv_pos_site_id
 _symmetry_equiv_pos_as_xyz
  1  'x, y, z'
loop_
 _atom_site_type_symbol
 _atom_site_label
 _atom_site_symmetry_multiplicity
 _atom_site_fract_x
 _atom_site_fract_y
 _atom_site_fract_z
 _atom_site_occupancy
 _atom_site_pbe_bader_charge
 _atom_site_pbe_bader_spin_density
 _atom_site_pbe_cm5_charge
 _atom_site_pbe_ddec_charge
 _atom_site_pbe_ddec_spin_density
 _atom_site_pbe_ddec_sum_bond_order
 _atom_site_pbe_magmom
Al  Al0  1  0.49999939  0.50000196  0.49999748  1  2.502564  0  0.39563  1.636411  0  2.578599  0
Al  Al1  1  0.00000610  0.49999847  0.49999515  1  2.503458  0  0.394199  1.636612  0  2.586895  0
H  H2  1  0.20321693  0.61171231  0.47138389  1  0.603401  0  0.348013  0.420374  0  0.873576  0
H  H3  1  0.79676179  0.38828631  0.52860014  1  0.603991  0  0.347926  0.420223  0  0.873567  0
H  H4  1  0.83178083  0.52900537  0.74135382  1  0.121335  0  0.107227  0.115694  0  1.016652  0
H  H5  1  0.77515280  0.53366011  0.88967505  1  0.080852  0  0.10359  0.109055  0  1.030453  0
H  H6  1  0.43976246  0.46058413  0.89040867  1  0.113439  0  0.115451  0.138709  0  0.989904  0
H  H7  1  0.56021236  0.53943453  0.10958982  1  0.113453  0  0.115521  0.138756  0  0.989977  0
H  H8  1  0.22482901  0.46633511  0.11031367  1  0.081438  0  0.10364  0.109125  0  1.030281  0
H  H9  1  0.16821322  0.47098648  0.25863791  1  0.121565  0  0.107266  0.115686  0  1.016525  0
H  H10  1  0.21110895  0.05964050  0.43274130  1  0.067531  0  0.104967  0.114485  0  1.022057  0
H  H11  1  0.78922214  0.94033764  0.56708802  1  0.064465  0  0.104761  0.114256  0  1.022341  0
H  H12  1  0.33479351  0.76672900  0.46825551  1  0.105005  0  0.107281  0.106921  0  1.001415  0
H  H13  1  0.25510130  0.93048381  0.45208109  1  0.061046  0  0.105111  0.108487  0  1.007765  0
H  H14  1  0.66500482  0.23327747  0.53189134  1  0.104552  0  0.107305  0.107076  0  1.001194  0
H  H15  1  0.74459952  0.06953017  0.54811952  1  0.059022  0  0.105348  0.108432  0  1.007735  0
H  H16  1  0.53221839  0.45863733  0.67957254  1  0.662643  0  0.313733  0.360161  0  0.954417  0
H  H17  1  0.46777962  0.54138070  0.32042352  1  0.662747  0  0.313794  0.360256  0  0.954452  0
C  C18  1  0.65824556  0.65948645  0.52021883  1  1.588869  0  0.273751  0.666075  0  4.080392  0
C  C19  1  0.80920334  0.50850561  0.35509856  1  1.518688  0  0.261868  0.64917  0  4.086467  0
C  C20  1  0.34176769  0.34050339  0.47977547  1  1.588993  0  0.273738  0.666047  0  4.080821  0
C  C21  1  0.19079300  0.49150037  0.64489234  1  1.51875  0  0.2618  0.649224  0  4.086509  0
C  C22  1  0.16570168  0.49412039  0.73189813  1  -0.079017  0  -0.038058  -0.205658  0  3.977744  0
C  C23  1  0.96321840  0.51530984  0.77478377  1  -0.04633  0  -0.079239  -0.044388  0  3.996393  0
C  C24  1  0.93086606  0.51718089  0.85655401  1  0.058771  0  -0.099307  -0.18002  0  3.978982  0
C  C25  1  0.10507915  0.49646421  0.89808513  1  0.296774  0  0.091598  0.198395  0  4.060596  0
C  C26  1  0.30723931  0.47617517  0.85733642  1  0.038391  0  -0.089174  -0.26081  0  3.885184  0
C  C27  1  0.34042869  0.47496744  0.77412514  1  0.519602  0  0.096674  0.32582  0  4.048276  0
C  C28  1  0.69273538  0.52383742  0.14266355  1  0.0384  0  -0.089255  -0.260985  0  3.885433  0
C  C29  1  0.89489138  0.50353835  0.10190913  1  0.298028  0  0.091664  0.198586  0  4.060517  0
C  C30  1  0.06911116  0.48282372  0.14343625  1  0.057115  0  -0.099343  -0.180124  0  3.978823  0
C  C31  1  0.03676608  0.48468604  0.22520771  1  -0.046295  0  -0.079219  -0.044342  0  3.995773  0
C  C32  1  0.83427483  0.50588553  0.26809621  1  -0.079661  0  -0.038038  -0.205556  0  3.977307  0
C  C33  1  0.65955921  0.52504319  0.22587127  1  0.519457  0  0.096534  0.325818  0  4.048689  0
C  C34  1  0.39071518  0.24059818  0.47737912  1  0.028363  0  -0.017174  -0.106847  0  3.942442  0
C  C35  1  0.60930929  0.75939969  0.52262178  1  0.029505  0  -0.01716  -0.107035  0  3.942975  0
C  C36  1  0.26589950  0.18921495  0.44880633  1  0.057279  0  0.02462  0.143767  0  4.032523  0
C  C37  1  0.31132119  0.09578436  0.45690913  1  0.04533  0  -0.093442  -0.200836  0  3.955107  0
C  C38  1  0.73424026  0.81077686  0.55112977  1  0.055621  0  0.024838  0.143858  0  4.032946  0
C  C39  1  0.68886519  0.90420635  0.54300508  1  0.04757  0  -0.093284  -0.200402  0  3.95502  0
C  C40  1  0.43471852  0.80590908  0.48900291  1  -0.041429  0  -0.076065  -0.065657  0  3.998478  0
C  C41  1  0.39086469  0.89881927  0.48001832  1  -0.043882  0  -0.089495  -0.136684  0  3.972859  0
C  C42  1  0.56517214  0.19409466  0.51108026  1  -0.041458  0  -0.075978  -0.065844  0  3.997597  0
C  C43  1  0.60896691  0.10118285  0.52009051  1  -0.040729  0  -0.089569  -0.13657  0  3.972186  0
C  C44  1  0.48008854  0.04959964  0.49440679  1  -0.035413  0  0.002036  0.095552  0  3.97571  0
C  C45  1  0.51991142  0.95039811  0.50560486  1  0.013676  0  0.002065  0.095182  0  3.976016  0
N  N46  1  0.09210477  0.49429883  0.98181877  1  -0.426713  0  -0.143394  -0.127731  0  3.260633  0
N  N47  1  0.90787710  0.50571182  0.01817327  1  -0.476717  0  -0.143347  -0.127678  0  3.260464  0
Cl  Cl48  1  0.05711534  0.23787674  0.39979874  1  -0.185532  0  0.015238  -0.053948  0  1.510038  0
Cl  Cl49  1  0.94317062  0.76211788  0.60006219  1  -0.185069  0  0.01514  -0.054064  0  1.510699  0
O  O50  1  0.50522181  0.61980082  0.52783083  1  -1.258195  0  -0.237231  -0.5938  0  2.327929  0
O  O51  1  0.97010652  0.49730869  0.38973539  1  -1.252542  0  -0.235354  -0.580241  0  2.350432  0
O  O52  1  0.15106631  0.37882959  0.49369145  1  -1.257606  0  -0.23017  -0.597729  0  2.398088  0
O  O53  1  0.38013333  0.47630476  0.60760816  1  -1.266502  0  -0.246517  -0.624335  0  2.380763  0
O  O54  1  0.49477123  0.38019901  0.47217112  1  -1.258179  0  -0.237246  -0.593916  0  2.328032  0
O  O55  1  0.02989522  0.50268921  0.61025855  1  -1.25271  0  -0.235359  -0.580328  0  2.350429  0
O  O56  1  0.84895381  0.62115898  0.50629431  1  -1.257649  0  -0.230148  -0.597748  0  2.398022  0
O  O57  1  0.61986881  0.52369849  0.39238783  1  -1.266557  0  -0.246516  -0.624332  0  2.380671  0
O  O58  1  0.23967677  0.54664508  0.46937016  1  -1.407698  0  -0.448377  -0.976667  0  2.176427  0
O  O59  1  0.76032561  0.45335488  0.53061718  1  -1.408221  0  -0.448311  -0.976408  0  2.176295  0
O  O60  1  0.53926234  0.45462065  0.73796411  1  -1.168944  0  -0.343245  -0.433677  0  2.277984  0
O  O61  1  0.46073813  0.54539534  0.26203485  1  -1.168645  0  -0.343318  -0.433855  0  2.278361  0
