# generated using pymatgen
data_CuH18C24(NO2)4
_symmetry_space_group_name_H-M   'P 1'
_cell_length_a   6.96556910
_cell_length_b   7.98551248
_cell_length_c   10.60499341
_cell_angle_alpha   99.53586307
_cell_angle_beta   105.09026407
_cell_angle_gamma   109.80306750
_symmetry_Int_Tables_number   1
_chemical_formula_structural   CuH18C24(NO2)4
_chemical_formula_sum   'Cu1 H18 C24 N4 O8'
_cell_volume   514.51556025
_cell_formula_units_Z   1
loop_
 _symmetry_equiv_pos_site_id
 _symmetry_equiv_pos_as_xyz
  1  'x, y, z'
loop_
 _atom_site_type_symbol
 _atom_site_label
 _atom_site_symmetry_multiplicity
 _atom_site_fract_x
 _atom_site_fract_y
 _atom_site_fract_z
 _atom_site_occupancy
 _atom_site_hle17_ddec_charge
 _atom_site_hle17_ddec_spin_density
 _atom_site_hle17_ddec_sum_bond_order
 _atom_site_hle17_magmom
 _atom_site_hse06_10hf_ddec_charge
 _atom_site_hse06_10hf_ddec_spin_density
 _atom_site_hse06_10hf_ddec_sum_bond_order
 _atom_site_hse06_10hf_magmom
 _atom_site_hse06_ddec_charge
 _atom_site_hse06_ddec_spin_density
 _atom_site_hse06_ddec_sum_bond_order
 _atom_site_hse06_magmom
 _atom_site_pbe_cm5_charge
 _atom_site_pbe_ddec_charge
 _atom_site_pbe_ddec_spin_density
 _atom_site_pbe_ddec_sum_bond_order
 _atom_site_pbe_magmom
Cu  Cu0  1  0.00000099  0.00000012  0.99999885  1  0.982313  0.688209  1.646499  0.516  0.98036  0.786605  2.038489  0.642  1.078086  0.85055  1.962393  0.729  0.695392  0.908084  0.740784  2.107312  0.585
H  H1  1  0.29380287  0.37031933  0.48575267  1  0.081878  -1.8e-05  1.009773  0.0  0.094155  -1.7e-05  1.07151  0.0  0.096155  -1.3e-05  1.071086  0.0  0.099698  0.092612  -1.7e-05  1.072052  0.0
H  H2  1  0.70618305  0.62967190  0.51424070  1  0.081916  -1.8e-05  1.009714  0.0  0.094178  -1.7e-05  1.071461  0.0  0.096176  -1.3e-05  1.071038  0.0  0.099669  0.092633  -1.7e-05  1.072006  0.0
H  H3  1  0.01243374  0.56709386  0.16415261  1  0.106732  0.000305  0.935156  0.0  0.119243  0.000289  0.991903  0.0  0.122312  0.000197  0.989788  0.0  0.109908  0.116921  0.000371  0.993611  0.0
H  H4  1  0.98757057  0.43291829  0.83584368  1  0.106717  0.000305  0.935231  0.0  0.11923  0.000289  0.991969  0.0  0.122296  0.000197  0.989853  0.0  0.109924  0.116909  0.000371  0.993682  0.0
H  H5  1  0.38683500  0.66212285  0.65510809  1  0.122256  0.000153  0.991807  0.0  0.129149  0.000124  1.055975  0.0  0.132719  8.5e-05  1.054179  0.0  0.108026  0.126532  0.000157  1.057405  0.0
H  H6  1  0.61315610  0.33786979  0.34488913  1  0.12221  0.000155  0.991881  0.0  0.129118  0.000124  1.056047  0.0  0.13269  8.5e-05  1.054251  0.0  0.108005  0.126505  0.000157  1.057475  0.0
H  H7  1  0.11457789  0.86683863  0.32828927  1  0.121256  1e-05  0.973057  0.0  0.129186  -2e-06  1.038271  0.0  0.132285  -9e-06  1.036836  0.0  0.107265  0.126821  9e-06  1.039499  0.0
H  H8  1  0.88543574  0.13317083  0.67171381  1  0.121233  5e-06  0.973151  0.0  0.129167  -3e-06  1.038355  0.0  0.13228  -9e-06  1.036902  0.0  0.107262  0.126802  9e-06  1.039584  0.0
H  H9  1  0.52400134  0.92204866  0.78099008  1  0.134074  -0.000161  0.953648  0.0  0.134205  -0.000149  1.026752  0.0  0.138156  -0.000177  1.021385  0.0  0.152499  0.131313  -9.3e-05  1.030439  0.0
H  H10  1  0.47599916  0.07794821  0.21901110  1  0.13408  -0.00016  0.953649  0.0  0.134195  -0.000148  1.026761  0.0  0.138149  -0.000177  1.021394  0.0  0.152501  0.131282  -9.3e-05  1.030472  0.0
H  H11  1  0.17596829  0.10046647  0.47570743  1  0.133842  1.2e-05  0.984963  0.0  0.139625  -3e-06  1.049853  0.0  0.143797  0.0  1.046239  0.0  0.128021  0.13655  1e-06  1.052602  0.0
H  H12  1  0.82403203  0.89953314  0.52429597  1  0.133875  9e-06  0.984978  0.0  0.139643  -3e-06  1.049879  0.0  0.143832  0.0  1.046227  0.0  0.12802  0.136574  1e-06  1.052604  0.0
H  H13  1  0.36511083  0.37821358  0.72601949  1  0.149248  -5.2e-05  0.955597  0.0  0.15658  -2.8e-05  1.014922  0.0  0.160275  -2e-05  1.012605  0.0  0.136286  0.153822  -3.6e-05  1.016809  0.0
H  H14  1  0.63490332  0.62179034  0.27398576  1  0.14923  -5.1e-05  0.95561  0.0  0.156613  -2.8e-05  1.014875  0.0  0.160305  -2e-05  1.012566  0.0  0.136292  0.153854  -3.6e-05  1.016765  0.0
H  H15  1  0.73409286  0.24460874  0.97226908  1  0.136223  -0.000846  0.951308  -0.001  0.144098  -0.000439  1.018002  0.0  0.147458  -0.000439  1.015565  0.0  0.123139  0.141771  -0.000405  1.019538  0.0
H  H16  1  0.26591320  0.75539370  0.02773563  1  0.136197  -0.000845  0.95133  -0.001  0.14411  -0.000438  1.01798  0.0  0.14747  -0.000438  1.015546  0.0  0.123156  0.141785  -0.000405  1.019516  0.0
H  H17  1  0.65278155  0.42709361  0.94050285  1  0.128772  0.000649  0.92006  0.001  0.138174  0.000713  0.983878  0.001  0.14078  0.000497  0.982312  0.001  0.124226  0.136214  0.000888  0.985132  0.001
H  H18  1  0.34722022  0.57290603  0.05949890  1  0.128783  0.000647  0.92003  0.001  0.138179  0.000713  0.983864  0.001  0.140785  0.000497  0.982298  0.001  0.124224  0.136221  0.000888  0.985121  0.001
C  C19  1  0.10461752  0.26734132  0.21994081  1  0.636348  -0.007508  3.905113  -0.007  0.591471  -0.002737  4.20739  -0.003  0.629428  -0.003064  4.199492  -0.003  0.19603  0.565973  -0.002306  4.210864  -0.003
C  C20  1  0.89538516  0.73266390  0.78005617  1  0.636205  -0.007524  3.905203  -0.007  0.591374  -0.002734  4.207485  -0.003  0.629329  -0.003066  4.199594  -0.003  0.196001  0.565876  -0.002306  4.210959  -0.003
C  C21  1  0.14607181  0.44744040  0.31477039  1  -0.061276  0.006877  3.737472  0.007  -0.038689  0.004008  3.96652  0.005  -0.047595  0.002893  3.988327  0.003  -0.017536  -0.03337  0.004833  3.952447  0.005
C  C22  1  0.85391706  0.55256050  0.68522569  1  -0.061116  0.006929  3.737257  0.007  -0.038648  0.00401  3.966435  0.005  -0.047553  0.002894  3.988243  0.003  -0.017442  -0.033327  0.004833  3.952359  0.005
C  C23  1  0.24979045  0.47796760  0.45341463  1  -0.051384  -0.000924  3.762741  0.0  -0.072935  1e-06  4.002387  0.0  -0.072163  -0.000243  4.024451  0.0  -0.083636  -0.073238  0.000163  3.987667  0.0
C  C24  1  0.75019315  0.52202496  0.54658043  1  -0.051471  -0.000988  3.762757  0.0  -0.072953  0.0  4.002423  0.0  -0.072183  -0.000244  4.02449  0.0  -0.083621  -0.073257  0.000163  3.987702  0.0
C  C25  1  0.09436622  0.58824038  0.27165254  1  -0.04094  -0.001661  3.710903  -0.001  -0.066666  -0.000235  3.963784  0.0  -0.063792  -0.000409  3.981795  0.0  -0.078509  -0.068491  -0.000145  3.951949  0.0
C  C26  1  0.90562845  0.41176333  0.72834768  1  -0.040947  -0.001748  3.710738  -0.001  -0.066641  -0.000238  3.963675  0.0  -0.063763  -0.000412  3.981685  0.0  -0.078572  -0.06847  -0.000145  3.951846  0.0
C  C27  1  0.30547378  0.64356191  0.54796507  1  -0.150541  0.001228  3.724147  0.001  -0.171557  0.000512  3.978712  0.001  -0.177177  0.000407  3.999628  0.0  -0.092141  -0.167899  0.000658  3.964711  0.001
C  C28  1  0.69451479  0.35643482  0.45203512  1  -0.150492  0.001262  3.724156  0.001  -0.171569  0.00051  3.978728  0.001  -0.177188  0.000408  3.999641  0.0  -0.092109  -0.167911  0.000658  3.964725  0.001
C  C29  1  0.15061240  0.75727352  0.36479007  1  -0.169435  0.000656  3.721384  0.001  -0.191401  0.00015  3.981608  0.0  -0.1976  0.000165  4.003474  0.0  -0.095343  -0.187238  0.000202  3.966995  0.0
C  C30  1  0.84938189  0.24272604  0.63521047  1  -0.169541  0.000711  3.7215  0.001  -0.191514  0.000149  3.981679  0.0  -0.197726  0.000167  4.003537  0.0  -0.095378  -0.18735  0.000202  3.967068  0.0
C  C31  1  0.25805169  0.78423451  0.50274734  1  0.186145  -0.001642  3.752793  -0.001  0.176366  -0.000607  4.00438  0.0  0.183046  -0.000653  4.026508  0.0  0.095542  0.172053  -0.000593  3.989305  0.0
C  C32  1  0.74194079  0.21576086  0.49725612  1  0.186158  -0.001703  3.752744  -0.001  0.17645  -0.000602  4.004264  0.0  0.18313  -0.000656  4.026394  0.0  0.095534  0.172135  -0.000593  3.989187  0.0
C  C33  1  0.45052172  0.00520096  0.73225634  1  0.162237  6e-05  3.470946  0.0  0.096467  0.000168  3.725116  0.0  0.113987  3.1e-05  3.731429  0.0  0.183921  0.085095  0.00035  3.720773  0.0
C  C34  1  0.54947818  0.99479452  0.26774550  1  0.16225  4.5e-05  3.470908  0.0  0.096509  0.000168  3.725083  0.0  0.114026  3.1e-05  3.731398  0.0  0.18392  0.085145  0.00035  3.720764  0.0
C  C35  1  0.26928309  0.10417861  0.57638912  1  -0.043427  -0.00059  3.630424  0.0  -0.088487  -0.000227  3.90146  0.0  -0.086974  -0.000221  3.917919  0.0  0.016723  -0.089518  -0.000197  3.890658  0.0
C  C36  1  0.73072163  0.89582109  0.42361123  1  -0.04351  -0.000559  3.630433  0.0  -0.088547  -0.000228  3.90145  0.0  -0.087031  -0.000221  3.917916  0.0  0.016691  -0.089573  -0.000197  3.890656  0.0
C  C37  1  0.36418584  0.24100644  0.69660498  1  -0.019298  0.000422  3.597052  0.0  -0.062041  0.000146  3.859698  0.0  -0.0602  9.5e-05  3.877266  0.0  0.028864  -0.063323  0.000194  3.848309  0.0
C  C38  1  0.63581913  0.75899049  0.30339598  1  -0.01932  0.000404  3.597041  0.0  -0.062094  0.000147  3.859641  0.0  -0.060255  9.5e-05  3.877206  0.0  0.028834  -0.063378  0.000194  3.848257  0.0
C  C39  1  0.59366298  0.27887123  0.93365091  1  -0.177907  0.009692  3.577935  0.011  -0.23703  0.005606  3.820699  0.006  -0.239356  0.003657  3.82607  0.004  -0.053236  -0.23516  0.007287  3.817098  0.008
C  C40  1  0.40634245  0.72112982  0.06635351  1  -0.177862  0.009698  3.577883  0.011  -0.237022  0.005605  3.82068  0.006  -0.239351  0.003657  3.826056  0.004  -0.053235  -0.235138  0.007287  3.81703  0.008
C  C41  1  0.45414371  0.23577608  0.02485457  1  0.686203  -0.003317  3.87282  -0.004  0.64688  0.001066  4.177362  0.001  0.683289  0.000355  4.169025  0.001  0.209777  0.621945  0.001847  4.181559  0.001
C  C42  1  0.54585806  0.76422356  0.97514718  1  0.686233  -0.003332  3.872812  -0.004  0.646913  0.001066  4.177344  0.001  0.683322  0.000355  4.169007  0.001  0.209766  0.621978  0.001846  4.181543  0.001
N  N43  1  0.32346111  0.95723779  0.60033693  1  -0.063187  0.000449  3.568342  0.001  0.02213  0.000258  3.783516  0.0  0.00802  0.000154  3.807089  0.0  -0.206733  0.031366  0.000416  3.767501  0.001
N  N44  1  0.67653704  0.04276044  0.39966405  1  -0.063024  0.000449  3.568095  0.001  0.022246  0.000258  3.783256  0.0  0.008135  0.000153  3.806829  0.0  -0.206643  0.031485  0.000416  3.76724  0.001
N  N45  1  0.47624624  0.17662027  0.79095229  1  0.00285  -0.000744  3.59899  -0.001  0.090851  -0.000146  3.815944  0.0  0.077889  -0.000194  3.841382  0.0  -0.22155  0.099107  -7.8e-05  3.798938  0.0
N  N46  1  0.52375877  0.82337665  0.20905056  1  0.00277  -0.00074  3.599051  -0.001  0.090751  -0.000144  3.816033  0.0  0.077786  -0.000194  3.84147  0.0  -0.221567  0.099013  -7.8e-05  3.799026  0.0
O  O47  1  0.04125353  0.25318041  0.09106886  1  -0.609687  0.087126  2.043052  0.118  -0.579265  0.055706  2.320498  0.083  -0.622054  0.041924  2.31047  0.068  -0.329728  -0.548992  0.064373  2.326941  0.09
O  O48  1  0.95874007  0.74681778  0.90892856  1  -0.609595  0.087133  2.042951  0.118  -0.579191  0.055707  2.320396  0.083  -0.62198  0.041925  2.310374  0.068  -0.329713  -0.548917  0.064375  2.326838  0.09
O  O49  1  0.13667787  0.14124340  0.26790860  1  -0.635751  -0.001533  1.934028  0.001  -0.605682  -0.001854  2.186172  0.0  -0.630687  -0.002784  2.173857  -0.001  -0.330719  -0.587313  -0.001003  2.193589  0.001
O  O50  1  0.86335692  0.85877050  0.73209093  1  -0.635717  -0.001523  1.934105  0.001  -0.605671  -0.001857  2.186276  0.0  -0.630681  -0.002783  2.173964  -0.001  -0.330726  -0.587305  -0.001003  2.193694  0.001
O  O51  1  0.28381994  0.08397190  0.97289518  1  -0.643198  0.0647  2.103609  0.09  -0.616685  0.042984  2.3948  0.065  -0.657967  0.032058  2.382811  0.053  -0.34069  -0.586847  0.050344  2.402752  0.071
O  O52  1  0.71618185  0.91602774  0.02710752  1  -0.643178  0.064697  2.103609  0.09  -0.616648  0.042985  2.394755  0.065  -0.657929  0.032058  2.382763  0.053  -0.340656  -0.586811  0.050344  2.402704  0.071
O  O53  1  0.52542213  0.34699060  0.14031404  1  -0.613189  0.002589  1.938766  0.004  -0.568311  0.001407  2.165238  0.003  -0.593065  0.000435  2.157633  0.001  -0.31781  -0.550743  0.002388  2.169569  0.004
O  O54  1  0.47457339  0.65301175  0.85968518  1  -0.613243  0.002599  1.93876  0.004  -0.56837  0.001405  2.165255  0.003  -0.593122  0.000436  2.157647  0.001  -0.317826  -0.550806  0.002388  2.169589  0.004
