# generated using pymatgen
data_CuH16C16S2I
_symmetry_space_group_name_H-M   'P 1'
_cell_length_a   11.56097372
_cell_length_b   12.13325595
_cell_length_c   12.35340170
_cell_angle_alpha   109.63550352
_cell_angle_beta   92.16863976
_cell_angle_gamma   91.63670940
_symmetry_Int_Tables_number   1
_chemical_formula_structural   CuH16C16S2I
_chemical_formula_sum   'Cu4 H64 C64 S8 I4'
_cell_volume   1629.33563157
_cell_formula_units_Z   4
loop_
 _symmetry_equiv_pos_site_id
 _symmetry_equiv_pos_as_xyz
  1  'x, y, z'
loop_
 _atom_site_type_symbol
 _atom_site_label
 _atom_site_symmetry_multiplicity
 _atom_site_fract_x
 _atom_site_fract_y
 _atom_site_fract_z
 _atom_site_occupancy
 _atom_site_hle17_bader_spin_density
 _atom_site_hle17_ddec_charge
 _atom_site_hle17_ddec_spin_density
 _atom_site_hle17_ddec_sum_bond_order
 _atom_site_hle17_magmom
 _atom_site_hse06_10hf_bader_spin_density
 _atom_site_hse06_10hf_ddec_charge
 _atom_site_hse06_10hf_ddec_spin_density
 _atom_site_hse06_10hf_ddec_sum_bond_order
 _atom_site_hse06_10hf_magmom
 _atom_site_hse06_bader_spin_density
 _atom_site_hse06_ddec_charge
 _atom_site_hse06_ddec_spin_density
 _atom_site_hse06_ddec_sum_bond_order
 _atom_site_hse06_magmom
 _atom_site_pbe_bader_spin_density
 _atom_site_pbe_cm5_charge
 _atom_site_pbe_ddec_charge
 _atom_site_pbe_ddec_spin_density
 _atom_site_pbe_ddec_sum_bond_order
 _atom_site_pbe_magmom
Cu  Cu0  1  0.06981755  0.41622854  0.48853351  1  0  0.128672  0  2.407777  0  0  0.062116  0  2.902246  0  0  0.068084  0  2.855513  0  0  0.236471  0.060179  0  2.931988  0
Cu  Cu1  1  0.93018167  0.58377090  0.51146606  1  0  0.128676  0  2.407795  0  0  0.062127  0  2.902263  0  0  0.068108  0  2.855533  0  0  0.236436  0.06019  0  2.931928  0
Cu  Cu2  1  0.43260292  0.40309817  0.94392858  1  0  0.142381  0  2.325549  0  0  0.073612  0  2.815406  0  0  0.081042  0  2.767981  0  0  0.224896  0.070567  0  2.845757  0
Cu  Cu3  1  0.56739976  0.59690128  0.05607111  1  0  0.142403  0  2.325518  0  0  0.073644  0  2.815361  0  0  0.081068  0  2.767939  0  0  0.224887  0.070603  0  2.84566  0
H  H4  1  0.54349970  0.20767868  0.27426765  1  0  0.085134  0  0.960673  0  0  0.095956  0  1.023441  0  0  0.098881  0  1.022043  0  0  0.096813  0.093825  0  1.024549  0
H  H5  1  0.45649873  0.79232251  0.72573409  1  0  0.085159  0  0.960648  0  0  0.095968  0  1.02342  0  0  0.098892  0  1.022023  0  0  0.096823  0.09385  0  1.024514  0
H  H6  1  0.60719284  0.11184221  0.41327399  1  0  0.084213  0  0.971333  0  0  0.096237  0  1.031356  0  0  0.098247  0  1.031453  0  0  0.096628  0.094827  0  1.031303  0
H  H7  1  0.39280740  0.88816076  0.58673244  1  0  0.084175  0  0.971356  0  0  0.096222  0  1.031353  0  0  0.098231  0  1.031448  0  0  0.096627  0.094809  0  1.031307  0
H  H8  1  0.81488304  0.11175836  0.46878996  1  0  0.091536  0  0.986529  0  0  0.102578  0  1.050567  0  0  0.1046  0  1.051108  0  0  0.097512  0.101131  0  1.050266  0
H  H9  1  0.18511636  0.88824547  0.53121511  1  0  0.091503  0  0.986534  0  0  0.102546  0  1.050579  0  0  0.104568  0  1.051121  0  0  0.097494  0.101105  0  1.05027  0
H  H10  1  0.89896407  0.31042035  0.24773781  1  0  0.097688  0  0.972906  0  0  0.10727  0  1.036434  0  0  0.110747  0  1.03462  0  0  0.090046  0.104739  0  1.037854  0
H  H11  1  0.10103429  0.68957909  0.75226335  1  0  0.097664  0  0.972927  0  0  0.107237  0  1.03647  0  0  0.110715  0  1.034658  0  0  0.090018  0.104706  0  1.037889  0
H  H12  1  0.69016439  0.30914772  0.19253238  1  0  0.084959  0  0.964454  0  0  0.091541  0  1.034865  0  0  0.094837  0  1.032953  0  0  0.092698  0.089151  0  1.036299  0
H  H13  1  0.30983563  0.69084998  0.80746665  1  0  0.084937  0  0.964503  0  0  0.09151  0  1.034932  0  0  0.094804  0  1.033022  0  0  0.09268  0.08912  0  1.036365  0
H  H14  1  0.12554693  0.19494386  0.54871668  1  0  0.103819  0  0.953784  0  0  0.121026  0  1.012058  0  0  0.121565  0  1.013272  0  0  0.100466  0.120583  0  1.011349  0
H  H15  1  0.87445140  0.80505472  0.45128581  1  0  0.103829  0  0.953851  0  0  0.121053  0  1.012132  0  0  0.121594  0  1.013347  0  0  0.100479  0.120607  0  1.011417  0
H  H16  1  0.97677008  0.20238108  0.57836143  1  0  0.098539  0  0.951941  0  0  0.112999  0  1.016508  0  0  0.114209  0  1.016361  0  0  0.097475  0.112098  0  1.016688  0
H  H17  1  0.02323170  0.79761750  0.42163957  1  0  0.098554  0  0.952042  0  0  0.113025  0  1.016604  0  0  0.114234  0  1.016459  0  0  0.09748  0.11212  0  1.016782  0
H  H18  1  0.08533316  0.98490205  0.40329061  1  0  0.086679  0  0.957418  0  0  0.097928  0  1.02134  0  0  0.099781  0  1.022217  0  0  0.096402  0.096616  0  1.020785  0
H  H19  1  0.91466620  0.01510089  0.59670688  1  0  0.086685  0  0.957392  0  0  0.097904  0  1.021339  0  0  0.099756  0  1.022216  0  0  0.096417  0.096591  0  1.020786  0
H  H20  1  0.27802419  0.27037853  0.33374709  1  0  0.09626  0  0.955136  0  0  0.106117  0  1.020478  0  0  0.109592  0  1.017942  0  0  0.099463  0.103551  0  1.022446  0
H  H21  1  0.72197672  0.72962004  0.66625145  1  0  0.096296  0  0.955126  0  0  0.106127  0  1.020497  0  0  0.109602  0  1.017961  0  0  0.09946  0.103558  0  1.022465  0
H  H22  1  0.35191687  0.29830282  0.68675550  1  0  0.08389  0  1.011626  0  0  0.084494  0  1.095544  0  0  0.088189  0  1.092933  0  0  0.082306  0.081727  0  1.097604  0
H  H23  1  0.64808156  0.70169837  0.31324219  1  0  0.083845  0  1.011677  0  0  0.084474  0  1.095522  0  0  0.088169  0  1.09291  0  0  0.082283  0.081703  0  1.097578  0
H  H24  1  0.40461689  0.08982765  0.62348995  1  0  0.076594  0  0.986004  0  0  0.081427  0  1.060773  0  0  0.083939  0  1.060381  0  0  0.091788  0.07966  0  1.061076  0
H  H25  1  0.59538756  0.91017268  0.37650928  1  0  0.076583  0  0.986052  0  0  0.081384  0  1.060852  0  0  0.083897  0  1.06046  0  0  0.091749  0.079616  0  1.061154  0
H  H26  1  0.39457643  0.97087014  0.41313508  1  0  0.080611  0  0.981754  0  0  0.090897  0  1.047279  0  0  0.092822  0  1.047461  0  0  0.094754  0.08946  0  1.047277  0
H  H27  1  0.60542788  0.02912669  0.58686219  1  0  0.080688  0  0.981758  0  0  0.090954  0  1.047302  0  0  0.092887  0  1.047468  0  0  0.094782  0.089497  0  1.047338  0
H  H28  1  0.33483957  0.06281748  0.26917800  1  0  0.093157  0  0.945894  0  0  0.104881  0  1.002704  0  0  0.107098  0  1.003253  0  0  0.10055  0.103282  0  1.002416  0
H  H29  1  0.66516398  0.93718197  0.73082091  1  0  0.093155  0  0.94599  0  0  0.104879  0  1.002794  0  0  0.107095  0  1.003344  0  0  0.100535  0.103305  0  1.002482  0
H  H30  1  0.32285081  0.47090355  0.39714792  1  0  0.093858  0  0.955644  0  0  0.107368  0  1.021164  0  0  0.109003  0  1.02042  0  0  0.0868  0.106103  0  1.021861  0
H  H31  1  0.67714773  0.52910028  0.60285631  1  0  0.093899  0  0.955584  0  0  0.107399  0  1.021091  0  0  0.109038  0  1.020339  0  0  0.086825  0.106132  0  1.021789  0
H  H32  1  0.29237103  0.60045513  0.51065358  1  0  0.101816  0  0.955612  0  0  0.118744  0  1.014243  0  0  0.118555  0  1.016665  0  0  0.095384  0.118784  0  1.012719  0
H  H33  1  0.70762628  0.39953993  0.48934449  1  0  0.101844  0  0.955568  0  0  0.118754  0  1.014217  0  0  0.118565  0  1.016641  0  0  0.09537  0.118793  0  1.012695  0
H  H34  1  0.47809320  0.58483538  0.62104565  1  0  0.077793  0  0.985048  0  0  0.090572  0  1.04957  0  0  0.092337  0  1.050277  0  0  0.082393  0.089277  0  1.049174  0
H  H35  1  0.52190169  0.41516406  0.37895539  1  0  0.077752  0  0.984929  0  0  0.090509  0  1.0495  0  0  0.092274  0  1.050203  0  0  0.082364  0.089211  0  1.049108  0
H  H36  1  0.19454501  0.13805223  0.77395754  1  0  0.096422  0  0.947363  0  0  0.108502  0  1.006528  0  0  0.111175  0  1.006089  0  0  0.097812  0.106575  0  1.006943  0
H  H37  1  0.80545331  0.86194634  0.22604333  1  0  0.096546  0  0.947333  0  0  0.108587  0  1.006514  0  0  0.111259  0  1.006078  0  0  0.097874  0.106659  0  1.006925  0
H  H38  1  0.14509690  0.97391070  0.84354168  1  0  0.085885  0  0.975634  0  0  0.095815  0  1.037689  0  0  0.097424  0  1.038976  0  0  0.094055  0.094656  0  1.036863  0
H  H39  1  0.85490059  0.02608875  0.15646107  1  0  0.08588  0  0.97561  0  0  0.095815  0  1.037661  0  0  0.097424  0  1.038947  0  0  0.094056  0.094657  0  1.036835  0
H  H40  1  0.10818952  0.01455365  0.05150297  1  0  0.082459  0  0.983941  0  0  0.092107  0  1.048277  0  0  0.094686  0  1.047514  0  0  0.095174  0.090281  0  1.048854  0
H  H41  1  0.89180974  0.98544667  0.94849770  1  0  0.082485  0  0.983912  0  0  0.092133  0  1.048246  0  0  0.094712  0  1.047481  0  0  0.095195  0.090307  0  1.048823  0
H  H42  1  0.12045132  0.21965357  0.18728783  1  0  0.077844  0  0.992961  0  0  0.083981  0  1.064989  0  0  0.086508  0  1.064365  0  0  0.087581  0.082119  0  1.065567  0
H  H43  1  0.87954718  0.78034938  0.81271368  1  0  0.077851  0  0.993012  0  0  0.083996  0  1.065022  0  0  0.086522  0  1.064399  0  0  0.087595  0.082133  0  1.0656  0
H  H44  1  0.17524822  0.38235105  0.12020988  1  0  0.093342  0  0.995017  0  0  0.101679  0  1.06285  0  0  0.104968  0  1.061203  0  0  0.085756  0.099186  0  1.064287  0
H  H45  1  0.82475363  0.61764928  0.87978926  1  0  0.093375  0  0.994992  0  0  0.101714  0  1.062822  0  0  0.105002  0  1.061175  0  0  0.085757  0.099221  0  1.064255  0
H  H46  1  0.19502237  0.53264807  0.07010503  1  0  0.101782  0  0.944011  0  0  0.114679  0  1.008804  0  0  0.115943  0  1.009141  0  0  0.09596  0.113676  0  1.008783  0
H  H47  1  0.80498461  0.46735052  0.92989858  1  0  0.101756  0  0.944076  0  0  0.11474  0  1.008781  0  0  0.116009  0  1.00911  0  0  0.095999  0.113738  0  1.00876  0
H  H48  1  0.20224562  0.58097206  0.95014463  1  0  0.105235  0  0.919953  0  0  0.127116  0  0.970664  0  0  0.127672  0  0.971073  0  0  0.103813  0.126631  0  0.970533  0
H  H49  1  0.79776135  0.41902652  0.04985412  1  0  0.10529  0  0.919904  0  0  0.127146  0  0.970658  0  0  0.127702  0  0.971067  0  0  0.103783  0.126662  0  0.970528  0
H  H50  1  0.00521052  0.48237696  0.87072067  1  0  0.0749  0  1.0273  0  0  0.08705  0  1.09287  0  0  0.089431  0  1.092895  0  0  0.071559  0.085338  0  1.092888  0
H  H51  1  0.99479551  0.51761987  0.12927828  1  0  0.074933  0  1.027208  0  0  0.087064  0  1.09281  0  0  0.089448  0  1.092827  0  0  0.071539  0.085353  0  1.092823  0
H  H52  1  0.51828518  0.20580229  0.07335592  1  0  0.094037  0  0.958045  0  0  0.108592  0  1.022953  0  0  0.109738  0  1.02279  0  0  0.094712  0.107731  0  1.023141  0
H  H53  1  0.48171484  0.79419540  0.92664230  1  0  0.094095  0  0.957957  0  0  0.108657  0  1.022876  0  0  0.109802  0  1.022714  0  0  0.094724  0.107797  0  1.023067  0
H  H54  1  0.37054055  0.18291917  0.02613210  1  0  0.104243  0  0.959365  0  0  0.121488  0  1.017676  0  0  0.121338  0  1.020481  0  0  0.100093  0.121495  0  1.015908  0
H  H55  1  0.62945769  0.81707764  0.97386415  1  0  0.104279  0  0.9593  0  0  0.121512  0  1.017643  0  0  0.121363  0  1.020445  0  0  0.10009  0.12152  0  1.015873  0
H  H56  1  0.40837167  0.97216541  0.89924419  1  0  0.080052  0  0.978021  0  0  0.089972  0  1.046174  0  0  0.091583  0  1.047375  0  0  0.091727  0.088812  0  1.04542  0
H  H57  1  0.59162657  0.02783140  0.10075287  1  0  0.080081  0  0.97799  0  0  0.089979  0  1.046149  0  0  0.09159  0  1.047346  0  0  0.091747  0.088817  0  1.045394  0
H  H58  1  0.59627630  0.24933213  0.70606227  1  0  0.096555  0  0.958585  0  0  0.108591  0  1.017204  0  0  0.111553  0  1.015921  0  0  0.093845  0.106411  0  1.01829  0
H  H59  1  0.40372220  0.75067081  0.29393762  1  0  0.096514  0  0.958513  0  0  0.108533  0  1.017165  0  0  0.111496  0  1.01588  0  0  0.093797  0.106351  0  1.018253  0
H  H60  1  0.80292619  0.25899871  0.66635150  1  0  0.080079  0  0.990826  0  0  0.088562  0  1.059013  0  0  0.091596  0  1.057345  0  0  0.084983  0.086346  0  1.06031  0
H  H61  1  0.19707228  0.74100336  0.33364809  1  0  0.080095  0  0.990823  0  0  0.088552  0  1.059024  0  0  0.091585  0  1.057356  0  0  0.084978  0.086336  0  1.060316  0
H  H62  1  0.95475042  0.21841099  0.79700648  1  0  0.087206  0  0.96328  0  0  0.095837  0  1.028898  0  0  0.098732  0  1.027841  0  0  0.093788  0.093713  0  1.02983  0
H  H63  1  0.04524794  0.78158845  0.20299144  1  0  0.087201  0  0.963301  0  0  0.095819  0  1.028931  0  0  0.098713  0  1.027877  0  0  0.093781  0.093694  0  1.029862  0
H  H64  1  0.89512390  0.16893046  0.96653021  1  0  0.085845  0  0.960697  0  0  0.099513  0  1.016488  0  0  0.101373  0  1.016959  0  0  0.098515  0.098154  0  1.016299  0
H  H65  1  0.10487445  0.83106898  0.03346690  1  0  0.085818  0  0.960758  0  0  0.099496  0  1.016545  0  0  0.101355  0  1.017017  0  0  0.098499  0.098138  0  1.016355  0
H  H66  1  0.68806976  0.15548748  0.00544546  1  0  0.089435  0  0.990441  0  0  0.09994  0  1.056088  0  0  0.102044  0  1.056342  0  0  0.09615  0.098438  0  1.055962  0
H  H67  1  0.31192860  0.84451197  0.99455327  1  0  0.089435  0  0.990482  0  0  0.099991  0  1.056078  0  0  0.102104  0  1.056311  0  0  0.096155  0.098491  0  1.055952  0
C  C68  1  0.63549229  0.20719300  0.29689931  1  0  -0.08349  0  3.783181  0  0  -0.098911  0  4.034292  0  0  -0.100002  0  4.053451  0  0  -0.098564  -0.098194  0  4.021399  0
C  C69  1  0.36450610  0.79280732  0.70310214  1  0  -0.083621  0  3.783203  0  0  -0.099028  0  4.034343  0  0  -0.100124  0  4.053505  0  0  -0.098631  -0.098322  0  4.021446  0
C  C70  1  0.67135825  0.15360329  0.37545491  1  0  -0.059543  0  3.765085  0  0  -0.069209  0  4.006918  0  0  -0.070082  0  4.027197  0  0  -0.091251  -0.068542  0  3.993113  0
C  C71  1  0.32864469  0.84640230  0.62455167  1  0  -0.0595  0  3.765103  0  0  -0.069193  0  4.006934  0  0  -0.070064  0  4.02721  0  0  -0.091287  -0.068526  0  3.993135  0
C  C72  1  0.78865537  0.15462807  0.40793096  1  0  -0.12332  0  3.752623  0  0  -0.141744  0  3.992587  0  0  -0.144581  0  4.014149  0  0  -0.099204  -0.13981  0  3.978104  0
C  C73  1  0.21134497  0.84537752  0.59207472  1  0  -0.123313  0  3.752615  0  0  -0.141693  0  3.9926  0  0  -0.14453  0  4.01416  0  0  -0.099144  -0.139764  0  3.978118  0
C  C74  1  0.87084157  0.21043117  0.36112144  1  0  0.034287  0  3.777273  0  0  0.056581  0  4.028658  0  0  0.057871  0  4.050855  0  0  -0.013701  0.055437  0  4.013927  0
C  C75  1  0.12915949  0.78957091  0.63887744  1  0  0.03434  0  3.777149  0  0  0.056534  0  4.028651  0  0  0.057824  0  4.050846  0  0  -0.013724  0.055387  0  4.013913  0
C  C76  1  0.83508379  0.26415634  0.28150018  1  0  -0.12554  0  3.749066  0  0  -0.142276  0  3.991191  0  0  -0.144903  0  4.009987  0  0  -0.100613  -0.140636  0  3.978871  0
C  C77  1  0.16491543  0.73584311  0.71850182  1  0  -0.125604  0  3.748953  0  0  -0.142317  0  3.991124  0  0  -0.144942  0  4.00992  0  0  -0.100626  -0.140674  0  3.9788  0
C  C78  1  0.71781633  0.26290695  0.25044653  1  0  -0.065865  0  3.780123  0  0  -0.077576  0  4.030121  0  0  -0.078597  0  4.049803  0  0  -0.094443  -0.076848  0  4.016919  0
C  C79  1  0.28217950  0.73709425  0.74955755  1  0  -0.065716  0  3.780029  0  0  -0.077416  0  4.029999  0  0  -0.078438  0  4.049684  0  0  -0.094347  -0.076691  0  4.01681  0
C  C80  1  0.03815798  0.16067274  0.51255043  1  0  -0.146294  0  3.692531  0  0  -0.179197  0  3.937526  0  0  -0.178289  0  3.948524  0  0  -0.147361  -0.179814  0  3.930198  0
C  C81  1  0.96184210  0.83932670  0.48744675  1  0  -0.146304  0  3.69254  0  0  -0.179304  0  3.937642  0  0  -0.1784  0  3.948652  0  0  -0.147366  -0.179917  0  3.930294  0
C  C82  1  0.03190210  0.03045519  0.47474601  1  0  -0.072655  0  3.739638  0  0  -0.087226  0  3.994188  0  0  -0.090008  0  4.017096  0  0  -0.102905  -0.085304  0  3.978596  0
C  C83  1  0.96809543  0.96954512  0.52525136  1  0  -0.072563  0  3.739552  0  0  -0.087105  0  3.994151  0  0  -0.089882  0  4.01706  0  0  -0.10289  -0.085179  0  3.978555  0
C  C84  1  0.30725850  0.23088284  0.39677666  1  0  -0.11107  0  3.755877  0  0  -0.130578  0  3.999688  0  0  -0.132272  0  4.019986  0  0  -0.092117  -0.129403  0  3.98612  0
C  C85  1  0.69274429  0.76911924  0.60322309  1  0  -0.111133  0  3.75599  0  0  -0.130628  0  3.999802  0  0  -0.132323  0  4.020102  0  0  -0.092121  -0.129455  0  3.986241  0
C  C86  1  0.30988464  0.29620951  0.51464906  1  0  0.03023  0  3.763144  0  0  0.056772  0  4.003477  0  0  0.056097  0  4.027595  0  0  -0.015692  0.056947  0  3.987452  0
C  C87  1  0.69011548  0.70379081  0.48535003  1  0  0.030287  0  3.763034  0  0  0.056832  0  4.003376  0  0  0.056158  0  4.027494  0  0  -0.015628  0.057006  0  3.987335  0
C  C88  1  0.34756040  0.24567512  0.59564629  1  0  -0.110916  0  3.756136  0  0  -0.128728  0  3.99729  0  0  -0.130761  0  4.018325  0  0  -0.097997  -0.12734  0  3.98334  0
C  C89  1  0.65244131  0.75432170  0.40435250  1  0  -0.110884  0  3.75608  0  0  -0.128699  0  3.997264  0  0  -0.13073  0  4.018299  0  0  -0.098007  -0.127311  0  3.983306  0
C  C90  1  0.37776287  0.12866208  0.55917727  1  0  -0.076681  0  3.779506  0  0  -0.085886  0  4.023909  0  0  -0.08877  0  4.04586  0  0  -0.097739  -0.083917  0  4.00905  0
C  C91  1  0.62223808  0.87133736  0.44082155  1  0  -0.076649  0  3.779583  0  0  -0.085822  0  4.023965  0  0  -0.088709  0  4.045918  0  0  -0.097696  -0.083853  0  4.009099  0
C  C92  1  0.37287800  0.06273364  0.44201149  1  0  -0.07519  0  3.76288  0  0  -0.088176  0  4.005743  0  0  -0.089519  0  4.027651  0  0  -0.094543  -0.087193  0  3.990885  0
C  C93  1  0.62712121  0.93726579  0.55798322  1  0  -0.075295  0  3.763007  0  0  -0.088274  0  4.005854  0  0  -0.08962  0  4.027763  0  0  -0.094589  -0.087288  0  3.991011  0
C  C94  1  0.33885729  0.11441006  0.36077026  1  0  -0.060993  0  3.750687  0  0  -0.069141  0  3.99231  0  0  -0.071433  0  4.014001  0  0  -0.089242  -0.067539  0  3.977556  0
C  C95  1  0.66114539  0.88558939  0.63922862  1  0  -0.060957  0  3.750905  0  0  -0.069097  0  3.99249  0  0  -0.071389  0  4.014187  0  0  -0.089213  -0.067516  0  3.977732  0
C  C96  1  0.33538821  0.51689705  0.49018263  1  0  -0.142535  0  3.698249  0  0  -0.175045  0  3.938706  0  0  -0.173973  0  3.949804  0  0  -0.152737  -0.175725  0  3.931225  0
C  C97  1  0.66460845  0.48310328  0.50982038  1  0  -0.14263  0  3.698205  0  0  -0.17511  0  3.938638  0  0  -0.174039  0  3.949743  0  0  -0.152764  -0.175774  0  3.931103  0
C  C98  1  0.45816685  0.52955448  0.53179428  1  0  -0.069259  0  3.757142  0  0  -0.083335  0  4.009968  0  0  -0.087088  0  4.03507  0  0  -0.111724  -0.080752  0  3.992889  0
C  C99  1  0.54183252  0.47044846  0.46820564  1  0  -0.069033  0  3.757035  0  0  -0.0831  0  4.009835  0  0  -0.086848  0  4.034936  0  0  -0.111617  -0.080513  0  3.992754  0
C  C100  1  0.18870970  0.27093129  0.94245882  1  0  0.028408  0  3.77971  0  0  0.051819  0  4.027834  0  0  0.052052  0  4.05059  0  0  -0.017701  0.051392  0  4.012631  0
C  C101  1  0.81129212  0.72906817  0.05754327  1  0  0.028453  0  3.779639  0  0  0.051926  0  4.027658  0  0  0.05216  0  4.050413  0  0  -0.017632  0.051499  0  4.012444  0
C  C102  1  0.17921596  0.15551608  0.86473307  1  0  -0.123246  0  3.76042  0  0  -0.140582  0  4.004111  0  0  -0.143069  0  4.024687  0  0  -0.099291  -0.138836  0  3.990257  0
C  C103  1  0.82078416  0.84448424  0.13526763  1  0  -0.123434  0  3.760503  0  0  -0.140752  0  4.00418  0  0  -0.143242  0  4.024755  0  0  -0.099369  -0.139007  0  3.990323  0
C  C104  1  0.15113316  0.06338134  0.90419251  1  0  -0.064303  0  3.766331  0  0  -0.073152  0  4.009629  0  0  -0.074852  0  4.031193  0  0  -0.094361  -0.071978  0  3.994998  0
C  C105  1  0.84886783  0.93661899  0.09580903  1  0  -0.064267  0  3.766349  0  0  -0.073116  0  4.009635  0  0  -0.074817  0  4.031198  0  0  -0.094359  -0.071946  0  3.995006  0
C  C106  1  0.13042653  0.08598862  0.02034820  1  0  -0.084191  0  3.775823  0  0  -0.097344  0  4.019171  0  0  -0.098654  0  4.039344  0  0  -0.099599  -0.096413  0  4.005452  0
C  C107  1  0.86957616  0.91401083  0.97965392  1  0  -0.08421  0  3.775869  0  0  -0.097366  0  4.019223  0  0  -0.098673  0  4.039394  0  0  -0.099627  -0.096437  0  4.005507  0
C  C108  1  0.13767276  0.20117357  0.09681040  1  0  -0.070526  0  3.778725  0  0  -0.078351  0  4.020733  0  0  -0.080236  0  4.041122  0  0  -0.097297  -0.07707  0  4.007015  0
C  C109  1  0.86232906  0.79882588  0.90319007  1  0  -0.070541  0  3.77868  0  0  -0.078368  0  4.020693  0  0  -0.080254  0  4.041083  0  0  -0.097302  -0.077089  0  4.006975  0
C  C110  1  0.16749660  0.29361740  0.05871202  1  0  -0.111846  0  3.761935  0  0  -0.131832  0  4.004381  0  0  -0.133612  0  4.02507  0  0  -0.099337  -0.130644  0  3.990698  0
C  C111  1  0.83250608  0.70638206  0.94128849  1  0  -0.111868  0  3.761783  0  0  -0.131889  0  4.004246  0  0  -0.133667  0  4.024929  0  0  -0.099379  -0.130703  0  3.990558  0
C  C112  1  0.16542717  0.51201033  0.97964115  1  0  -0.128884  0  3.668143  0  0  -0.16272  0  3.914694  0  0  -0.161607  0  3.925938  0  0  -0.141862  -0.163446  0  3.907105  0
C  C113  1  0.83457296  0.48799000  0.02036198  1  0  -0.128938  0  3.668276  0  0  -0.162827  0  3.914834  0  0  -0.161718  0  3.926082  0  0  -0.141878  -0.163562  0  3.907253  0
C  C114  1  0.03724883  0.49806712  0.95933944  1  0  -0.074133  0  3.741199  0  0  -0.08851  0  3.995601  0  0  -0.092731  0  4.020805  0  0  -0.109581  -0.08556  0  3.978376  0
C  C115  1  0.96275129  0.50193320  0.04066126  1  0  -0.074184  0  3.741126  0  0  -0.088533  0  3.995538  0  0  -0.092758  0  4.020742  0  0  -0.109569  -0.08558  0  3.978312  0
C  C116  1  0.45834540  0.15492152  0.00178978  1  0  -0.143678  0  3.688267  0  0  -0.175863  0  3.928516  0  0  -0.174917  0  3.940022  0  0  -0.148052  -0.176506  0  3.920841  0
C  C117  1  0.54165375  0.84507617  0.99820840  1  0  -0.143815  0  3.688333  0  0  -0.176063  0  3.928728  0  0  -0.175118  0  3.940235  0  0  -0.14811  -0.176718  0  3.921064  0
C  C118  1  0.46548663  0.02568532  0.97160934  1  0  -0.074745  0  3.74028  0  0  -0.089462  0  3.996759  0  0  -0.092543  0  4.020468  0  0  -0.104575  -0.087331  0  3.980609  0
C  C119  1  0.53451081  0.97431323  0.02838665  1  0  -0.07474  0  3.740276  0  0  -0.08941  0  3.996773  0  0  -0.092482  0  4.02047  0  0  -0.104567  -0.087272  0  3.980624  0
C  C120  1  0.62792771  0.20129170  0.85800174  1  0  0.037266  0  3.776124  0  0  0.059046  0  4.028024  0  0  0.06021  0  4.050401  0  0  -0.014468  0.057967  0  4.013139  0
C  C121  1  0.37207241  0.79870863  0.14199896  1  0  0.037234  0  3.776136  0  0  0.059015  0  4.028037  0  0  0.060173  0  4.050417  0  0  -0.014475  0.057932  0  4.013145  0
C  C122  1  0.66155393  0.22858515  0.76151572  1  0  -0.122406  0  3.770518  0  0  -0.137843  0  4.010674  0  0  -0.140149  0  4.030414  0  0  -0.102082  -0.136366  0  3.997604  0
C  C123  1  0.33844442  0.77141429  0.23848221  1  0  -0.122235  0  3.770446  0  0  -0.137664  0  4.010573  0  0  -0.139963  0  4.030308  0  0  -0.10201  -0.136187  0  3.997501  0
C  C124  1  0.77837255  0.23363028  0.73934066  1  0  -0.067286  0  3.788118  0  0  -0.079746  0  4.036366  0  0  -0.080827  0  4.055945  0  0  -0.098866  -0.079013  0  4.023274  0
C  C125  1  0.22162674  0.76637092  0.26065787  1  0  -0.067405  0  3.788243  0  0  -0.079834  0  4.03648  0  0  -0.080912  0  4.056055  0  0  -0.098878  -0.079101  0  4.023385  0
C  C126  1  0.86304831  0.21164413  0.81241746  1  0  -0.082573  0  3.773573  0  0  -0.09845  0  4.026156  0  0  -0.099763  0  4.046228  0  0  -0.100593  -0.097602  0  4.012658  0
C  C127  1  0.13695018  0.78835881  0.18758243  1  0  -0.08255  0  3.773666  0  0  -0.098406  0  4.026224  0  0  -0.099728  0  4.046298  0  0  -0.100591  -0.097564  0  4.012727  0
C  C128  1  0.82935636  0.18383204  0.90785910  1  0  -0.062255  0  3.779501  0  0  -0.072467  0  4.023934  0  0  -0.073742  0  4.044944  0  0  -0.092036  -0.071559  0  4.009666  0
C  C129  1  0.17064283  0.81616652  0.09213856  1  0  -0.0622  0  3.779517  0  0  -0.072427  0  4.023964  0  0  -0.073698  0  4.044975  0  0  -0.092022  -0.07152  0  4.009697  0
C  C130  1  0.71228390  0.17776410  0.93089087  1  0  -0.132817  0  3.764577  0  0  -0.152088  0  4.009032  0  0  -0.155104  0  4.030753  0  0  -0.102158  -0.150028  0  3.994469  0
C  C131  1  0.28771619  0.82223535  0.06910712  1  0  -0.132848  0  3.764592  0  0  -0.152172  0  4.009041  0  0  -0.155183  0  4.030762  0  0  -0.102172  -0.150113  0  3.994477  0
S  S132  1  0.02172104  0.21996202  0.39574185  1  0  0.051006  0  2.816141  0  0  0.064666  0  3.217039  0  0  0.063516  0  3.208765  0  0  -0.002978  0.065337  0  3.222527  0
S  S133  1  0.97827919  0.78004093  0.60425810  1  0  0.051055  0  2.816074  0  0  0.064768  0  3.217039  0  0  0.063615  0  3.208774  0  0  -0.002936  0.065439  0  3.22248  0
S  S134  1  0.25326637  0.43809267  0.56772279  1  0  0.048075  0  2.797016  0  0  0.059874  0  3.20426  0  0  0.059993  0  3.195482  0  0  -0.019376  0.059382  0  3.21036  0
S  S135  1  0.74673285  0.56190677  0.43227517  1  0  0.048008  0  2.796964  0  0  0.059785  0  3.204206  0  0  0.059896  0  3.195438  0  0  -0.019411  0.059292  0  3.21025  0
S  S136  1  0.23623832  0.38225079  0.88947223  1  0  0.034476  0  2.772707  0  0  0.047679  0  3.176  0  0  0.04728  0  3.165602  0  0  -0.011093  0.047676  0  3.183064  0
S  S137  1  0.76376169  0.61774691  0.11053004  1  0  0.034493  0  2.77269  0  0  0.047674  0  3.175984  0  0  0.04728  0  3.165583  0  0  -0.011105  0.047674  0  3.183018  0
S  S138  1  0.47764480  0.20578248  0.88006656  1  0  0.044037  0  2.787942  0  0  0.059578  0  3.189712  0  0  0.058365  0  3.18135  0  0  -0.004392  0.060252  0  3.195299  0
S  S139  1  0.52235431  0.79421433  0.11993053  1  0  0.044061  0  2.787933  0  0  0.059628  0  3.189711  0  0  0.058411  0  3.181348  0  0  -0.004348  0.060302  0  3.195273  0
I  I140  1  0.06621860  0.52234972  0.33741942  1  0  -0.388682  0  1.557053  0  0  -0.343743  0  1.965496  0  0  -0.358882  0  1.933886  0  0  -0.182219  -0.332916  0  1.986221  0
I  I141  1  0.93377727  0.47765235  0.66258252  1  0  -0.388686  0  1.556995  0  0  -0.343759  0  1.965451  0  0  -0.358901  0  1.933843  0  0  -0.182228  -0.332933  0  1.986175  0
I  I142  1  0.53720701  0.52101747  0.83165520  1  0  -0.39594  0  1.474399  0  0  -0.346134  0  1.876056  0  0  -0.36383  0  1.845416  0  0  -0.206639  -0.33332  0  1.895943  0
I  I143  1  0.46279228  0.47898373  0.16834495  1  0  -0.395934  0  1.474365  0  0  -0.346129  0  1.876017  0  0  -0.363825  0  1.845377  0  0  -0.20664  -0.333314  0  1.895899  0
