# generated using pymatgen
data_ZnH16C11S(NO)4
_symmetry_space_group_name_H-M   'P 1'
_cell_length_a   8.50846850
_cell_length_b   9.97626410
_cell_length_c   9.85927207
_cell_angle_alpha   79.36635778
_cell_angle_beta   68.64854608
_cell_angle_gamma   61.57693641
_symmetry_Int_Tables_number   1
_chemical_formula_structural   ZnH16C11S(NO)4
_chemical_formula_sum   'Zn2 H32 C22 S2 N8 O8'
_cell_volume   685.42152017
_cell_formula_units_Z   2
loop_
 _symmetry_equiv_pos_site_id
 _symmetry_equiv_pos_as_xyz
  1  'x, y, z'
loop_
 _atom_site_type_symbol
 _atom_site_label
 _atom_site_symmetry_multiplicity
 _atom_site_fract_x
 _atom_site_fract_y
 _atom_site_fract_z
 _atom_site_occupancy
 _atom_site_hle17_bader_spin_density
 _atom_site_hle17_ddec_charge
 _atom_site_hle17_ddec_spin_density
 _atom_site_hle17_ddec_sum_bond_order
 _atom_site_hle17_magmom
 _atom_site_hse06_10hf_bader_spin_density
 _atom_site_hse06_10hf_ddec_charge
 _atom_site_hse06_10hf_ddec_spin_density
 _atom_site_hse06_10hf_ddec_sum_bond_order
 _atom_site_hse06_10hf_magmom
 _atom_site_hse06_bader_spin_density
 _atom_site_hse06_ddec_charge
 _atom_site_hse06_ddec_spin_density
 _atom_site_hse06_ddec_sum_bond_order
 _atom_site_hse06_magmom
 _atom_site_pbe_bader_spin_density
 _atom_site_pbe_cm5_charge
 _atom_site_pbe_ddec_charge
 _atom_site_pbe_ddec_spin_density
 _atom_site_pbe_ddec_sum_bond_order
 _atom_site_pbe_magmom
Zn  Zn0  1  0.99879234  0.82005829  0.12889092  1  0  1.044495  0  1.841633  0  0  0.857852  0  2.32166  0  0  0.901144  0  2.267659  0  0  0.736609  0.827647  0  2.358731  0
Zn  Zn1  1  0.00121025  0.17994012  0.87111395  1  0  1.044555  0  1.841695  0  0  0.857901  0  2.32174  0  0  0.901194  0  2.267742  0  0  0.736655  0.827699  0  2.358819  0
H  H2  1  0.40528385  0.16669747  0.25015735  1  0  0.102511  0  0.929719  0  0  0.116538  0  0.991519  0  0  0.117794  0  0.990777  0  0  0.101721  0.115448  0  0.992302  0
H  H3  1  0.59472005  0.83330305  0.74983754  1  0  0.102493  0  0.929784  0  0  0.116562  0  0.991531  0  0  0.117818  0  0.990789  0  0  0.10173  0.115472  0  0.992317  0
H  H4  1  0.60387560  0.16975496  0.26303978  1  0  0.099645  0  0.930111  0  0  0.112199  0  0.996771  0  0  0.113392  0  0.996145  0  0  0.100738  0.111302  0  0.99723  0
H  H5  1  0.39612269  0.83023688  0.73696474  1  0  0.099669  0  0.930137  0  0  0.112202  0  0.996832  0  0  0.113395  0  0.996207  0  0  0.100741  0.111305  0  0.997292  0
H  H6  1  0.09857463  0.33335727  0.20597287  1  0  0.134986  0  0.951384  0  0  0.153528  0  1.011824  0  0  0.155295  0  1.011377  0  0  0.100779  0.152209  0  1.012225  0
H  H7  1  0.90143127  0.66664429  0.79402016  1  0  0.135021  0  0.951421  0  0  0.153536  0  1.011876  0  0  0.155305  0  1.011426  0  0  0.100783  0.152219  0  1.012276  0
H  H8  1  0.39676799  0.70385570  0.10891597  1  0  0.307847  0  0.867035  0  0  0.292512  0  0.921609  0  0  0.299357  0  0.916741  0  0  0.33955  0.287696  0  0.925274  0
H  H9  1  0.60324146  0.29613909  0.89108637  1  0  0.307911  0  0.867015  0  0  0.292499  0  0.921681  0  0  0.299345  0  0.916817  0  0  0.339536  0.28768  0  0.925346  0
H  H10  1  0.97380788  0.52596863  0.15652408  1  0  0.115848  0  0.94815  0  0  0.136075  0  1.010141  0  0  0.138075  0  1.009023  0  0  0.096809  0.134602  0  1.011046  0
H  H11  1  0.02619571  0.47403748  0.84346879  1  0  0.115857  0  0.948235  0  0  0.13609  0  1.010201  0  0  0.138093  0  1.009082  0  0  0.096806  0.134617  0  1.011105  0
H  H12  1  0.76468326  0.32142086  0.20200509  1  0  0.143934  0  0.96394  0  0  0.16198  0  1.024817  0  0  0.164174  0  1.023991  0  0  0.102129  0.160337  0  1.025467  0
H  H13  1  0.23531258  0.67857330  0.79799876  1  0  0.143896  0  0.96404  0  0  0.161986  0  1.024848  0  0  0.164183  0  1.024017  0  0  0.102124  0.160342  0  1.025499  0
H  H14  1  0.73802516  0.50011419  0.11430547  1  0  0.121096  0  0.940881  0  0  0.142028  0  0.999177  0  0  0.143832  0  0.998727  0  0  0.097792  0.140659  0  0.999674  0
H  H15  1  0.26197888  0.49987633  0.88569948  1  0  0.121139  0  0.940865  0  0  0.142091  0  0.999138  0  0  0.143894  0  0.998687  0  0  0.097826  0.140716  0  0.999642  0
H  H16  1  0.65934435  0.48624239  0.30710912  1  0  0.111324  0  0.954428  0  0  0.132508  0  1.016078  0  0  0.133995  0  1.016072  0  0  0.09418  0.131381  0  1.016107  0
H  H17  1  0.34066940  0.51374888  0.69289152  1  0  0.11133  0  0.954429  0  0  0.132547  0  1.01606  0  0  0.134035  0  1.016053  0  0  0.094215  0.131422  0  1.016085  0
H  H18  1  0.95239564  0.47492935  0.34227045  1  0  0.115495  0  0.94288  0  0  0.135384  0  1.004298  0  0  0.137097  0  1.004322  0  0  0.095434  0.134248  0  1.004142  0
H  H19  1  0.04760068  0.52507370  0.65772741  1  0  0.115503  0  0.942939  0  0  0.1354  0  1.004343  0  0  0.137115  0  1.004366  0  0  0.095443  0.134264  0  1.004187  0
H  H20  1  0.40032773  0.13985937  0.78962718  1  0  0.320506  0  0.857482  0  0  0.302598  0  0.915948  0  0  0.30974  0  0.910227  0  0  0.338627  0.297473  0  0.920283  0
H  H21  1  0.59967997  0.86013882  0.21037202  1  0  0.320513  0  0.857571  0  0  0.302778  0  0.915821  0  0  0.309923  0  0.910087  0  0  0.338697  0.297656  0  0.920158  0
H  H22  1  0.95177067  0.29402256  0.51584906  1  0  0.110563  0  0.946316  0  0  0.130836  0  1.007942  0  0  0.132539  0  1.007867  0  0  0.091433  0.129685  0  1.007815  0
H  H23  1  0.04821490  0.70599430  0.48415057  1  0  0.110643  0  0.946203  0  0  0.130912  0  1.007838  0  0  0.132616  0  1.007761  0  0  0.091465  0.129763  0  1.007712  0
H  H24  1  0.74774146  0.16728440  0.43608927  1  0  0.152552  0  0.961996  0  0  0.174989  0  1.013483  0  0  0.176734  0  1.013639  0  0  0.104918  0.173671  0  1.013475  0
H  H25  1  0.25225613  0.83270850  0.56390512  1  0  0.152551  0  0.962064  0  0  0.175025  0  1.013481  0  0  0.176776  0  1.013627  0  0  0.104906  0.173709  0  1.013471  0
H  H26  1  0.02016142  0.10130193  0.57663864  1  0  0.128707  0  0.966179  0  0  0.146896  0  1.029625  0  0  0.149081  0  1.028617  0  0  0.097015  0.145198  0  1.030634  0
H  H27  1  0.97981262  0.89871755  0.42335812  1  0  0.1287  0  0.966276  0  0  0.146974  0  1.029581  0  0  0.149158  0  1.028576  0  0  0.097042  0.145278  0  1.030587  0
H  H28  1  0.12431769  0.14405254  0.39322591  1  0  0.131597  0  0.971506  0  0  0.148576  0  1.03488  0  0  0.15045  0  1.034697  0  0  0.097286  0.147176  0  1.035113  0
H  H29  1  0.87566365  0.85596789  0.60678148  1  0  0.131594  0  0.971554  0  0  0.148625  0  1.034868  0  0  0.150498  0  1.034682  0  0  0.097318  0.147225  0  1.035102  0
H  H30  1  0.60811337  0.33479745  0.54138017  1  0  0.106752  0  0.954645  0  0  0.125455  0  1.020051  0  0  0.127094  0  1.019698  0  0  0.089969  0.124449  0  1.019923  0
H  H31  1  0.39188524  0.66520103  0.45861583  1  0  0.106691  0  0.954697  0  0  0.125424  0  1.020071  0  0  0.127064  0  1.019717  0  0  0.089961  0.124418  0  1.019943  0
H  H32  1  0.70071985  0.15461356  0.62850115  1  0  0.128807  0  0.970493  0  0  0.144409  0  1.036924  0  0  0.146602  0  1.036167  0  0  0.097103  0.142727  0  1.0377  0
H  H33  1  0.29927853  0.84538047  0.37149886  1  0  0.128806  0  0.970476  0  0  0.144373  0  1.036958  0  0  0.146555  0  1.036225  0  0  0.097088  0.142692  0  1.037734  0
C  C34  1  0.21319135  0.48181389  0.21260331  1  0  0.220893  0  3.760494  0  0  0.212206  0  4.028752  0  0  0.222736  0  4.047407  0  0  0.098184  0.205564  0  4.015578  0
C  C35  1  0.78681322  0.51818555  0.78739868  1  0  0.220804  0  3.76025  0  0  0.212175  0  4.02847  0  0  0.222705  0  4.047121  0  0  0.098233  0.205533  0  4.015299  0
C  C36  1  0.48310724  0.47664783  0.20313680  1  0  0.231618  0  3.71844  0  0  0.213289  0  3.997354  0  0  0.224113  0  4.015039  0  0  0.104215  0.2062  0  3.985059  0
C  C37  1  0.51689555  0.52335499  0.79686105  1  0  0.231665  0  3.71846  0  0  0.213286  0  3.99744  0  0  0.224113  0  4.015127  0  0  0.104216  0.206195  0  3.985136  0
C  C38  1  0.38385401  0.38881581  0.24382779  1  0  -0.132827  0  3.70333  0  0  -0.123379  0  3.961287  0  0  -0.133114  0  3.985597  0  0  -0.0332  -0.116995  0  3.944522  0
C  C39  1  0.61613808  0.61119080  0.75617683  1  0  -0.132798  0  3.703408  0  0  -0.123361  0  3.961376  0  0  -0.133095  0  3.985682  0  0  -0.033289  -0.11698  0  3.944613  0
C  C40  1  0.44877257  0.22723375  0.30095202  1  0  -0.11671  0  3.733894  0  0  -0.158875  0  3.975415  0  0  -0.157122  0  3.988908  0  0  -0.150987  -0.159839  0  3.966503  0
C  C41  1  0.55122297  0.77276601  0.69905182  1  0  -0.116627  0  3.733824  0  0  -0.15887  0  3.975485  0  0  -0.157116  0  3.988974  0  0  -0.150927  -0.15983  0  3.966572  0
C  C42  1  0.37971496  0.20689076  0.46392666  1  0  -0.140017  0  3.70795  0  0  -0.131228  0  3.967909  0  0  -0.141558  0  3.992858  0  0  -0.033999  -0.124695  0  3.951049  0
C  C43  1  0.62029629  0.79311288  0.53607031  1  0  -0.140113  0  3.707757  0  0  -0.131302  0  3.967708  0  0  -0.141632  0  3.992656  0  0  -0.034041  -0.12477  0  3.950849  0
C  C44  1  0.67089721  0.44417495  0.20663739  1  0  -0.361591  0  3.713307  0  0  -0.439879  0  3.955126  0  0  -0.443371  0  3.962204  0  0  -0.236665  -0.437188  0  3.950401  0
C  C45  1  0.32911041  0.55582104  0.79336735  1  0  -0.361612  0  3.713403  0  0  -0.439971  0  3.955223  0  0  -0.443459  0  3.962292  0  0  -0.236701  -0.437277  0  3.950497  0
C  C46  1  0.05147902  0.45184386  0.23054080  1  0  -0.350661  0  3.709002  0  0  -0.427421  0  3.948202  0  0  -0.430905  0  3.955287  0  0  -0.234973  -0.424897  0  3.943279  0
C  C47  1  0.94852849  0.54816214  0.76945590  1  0  -0.350717  0  3.709085  0  0  -0.427471  0  3.948256  0  0  -0.430964  0  3.955347  0  0  -0.235  -0.424949  0  3.943334  0
C  C48  1  0.22162868  0.18149814  0.54865125  1  0  0.231276  0  3.744195  0  0  0.221782  0  4.012946  0  0  0.232614  0  4.032016  0  0  0.101338  0.214865  0  3.999701  0
C  C49  1  0.77836389  0.81850511  0.45135591  1  0  0.231257  0  3.744531  0  0  0.221774  0  4.013252  0  0  0.232603  0  4.03233  0  0  0.101255  0.214857  0  4.000008  0
C  C50  1  0.46922465  0.19736333  0.56235596  1  0  0.237883  0  3.719454  0  0  0.220334  0  3.993667  0  0  0.231422  0  4.011371  0  0  0.1071  0.213094  0  3.981479  0
C  C51  1  0.53077918  0.80263715  0.43763288  1  0  0.237918  0  3.719159  0  0  0.220327  0  3.993475  0  0  0.231416  0  4.011177  0  0  0.107149  0.213091  0  3.981289  0
C  C52  1  0.07207857  0.18006882  0.50596483  1  0  -0.362748  0  3.702038  0  0  -0.438897  0  3.939655  0  0  -0.442998  0  3.947006  0  0  -0.242578  -0.435897  0  3.934739  0
C  C53  1  0.92789859  0.81994727  0.49404072  1  0  -0.362879  0  3.702104  0  0  -0.439101  0  3.939698  0  0  -0.443199  0  3.947042  0  0  -0.242633  -0.436103  0  3.934783  0
C  C54  1  0.64095836  0.21394821  0.54085421  1  0  -0.370711  0  3.702469  0  0  -0.444489  0  3.93577  0  0  -0.448695  0  3.943158  0  0  -0.239749  -0.441331  0  3.930628  0
C  C55  1  0.35903496  0.78604822  0.45914290  1  0  -0.370661  0  3.702385  0  0  -0.444449  0  3.935696  0  0  -0.448654  0  3.943077  0  0  -0.239755  -0.441291  0  3.930555  0
S  S56  1  0.83936546  0.96238086  0.88486851  1  0  1.530709  0  5.867062  0  0  1.417425  0  6.396413  0  0  1.472073  0  6.3621  0  0  0.547404  1.379484  0  6.418996  0
S  S57  1  0.16063980  0.03760957  0.11512997  1  0  1.530681  0  5.866987  0  0  1.417368  0  6.396353  0  0  1.472016  0  6.362049  0  0  0.547324  1.379427  0  6.418937  0
N  N58  1  0.20944876  0.61668101  0.15687339  1  0  -0.327733  0  3.234435  0  0  -0.271254  0  3.537514  0  0  -0.288342  0  3.552263  0  0  -0.269781  -0.259753  0  3.527443  0
N  N59  1  0.79055841  0.38331834  0.84312981  1  0  -0.327653  0  3.234453  0  0  -0.271196  0  3.537495  0  0  -0.288281  0  3.552246  0  0  -0.269813  -0.259704  0  3.527427  0
N  N60  1  0.37265222  0.61174325  0.15290614  1  0  -0.202685  0  3.488652  0  0  -0.154969  0  3.732698  0  0  -0.167412  0  3.751678  0  0  -0.286794  -0.147111  0  3.720386  0
N  N61  1  0.62735292  0.38825505  0.84709589  1  0  -0.202844  0  3.488608  0  0  -0.155045  0  3.732694  0  0  -0.167501  0  3.751681  0  0  -0.2868  -0.147173  0  3.720371  0
N  N62  1  0.21701087  0.15662882  0.68918737  1  0  -0.329667  0  3.214095  0  0  -0.2725  0  3.520652  0  0  -0.290359  0  3.534926  0  0  -0.270689  -0.260431  0  3.510801  0
N  N63  1  0.78297712  0.84337348  0.31082146  1  0  -0.329696  0  3.214167  0  0  -0.272515  0  3.520753  0  0  -0.290383  0  3.535038  0  0  -0.270676  -0.260439  0  3.510897  0
N  N64  1  0.36666532  0.16848227  0.69538106  1  0  -0.205365  0  3.454867  0  0  -0.154196  0  3.696041  0  0  -0.166439  0  3.71432  0  0  -0.284085  -0.146179  0  3.68417  0
N  N65  1  0.63333700  0.83151382  0.30461218  1  0  -0.205262  0  3.455207  0  0  -0.154282  0  3.696352  0  0  -0.166518  0  3.714627  0  0  -0.284105  -0.146277  0  3.684488  0
O  O66  1  0.86047270  0.83347112  0.99777702  1  0  -0.741502  0  1.986797  0  0  -0.666923  0  2.269634  0  0  -0.689992  0  2.246628  0  0  -0.373217  -0.650775  0  2.28505  0
O  O67  1  0.13953277  0.16652160  0.00222804  1  0  -0.741602  0  1.987053  0  0  -0.666933  0  2.26982  0  0  -0.690001  0  2.24681  0  0  -0.373189  -0.650787  0  2.285241  0
O  O68  1  0.66922092  0.00658239  0.84809249  1  0  -0.693955  0  1.908849  0  0  -0.650227  0  2.152009  0  0  -0.670021  0  2.134975  0  0  -0.356701  -0.636131  0  2.163067  0
O  O69  1  0.33078860  0.99340236  0.15191385  1  0  -0.69395  0  1.908533  0  0  -0.650234  0  2.151716  0  0  -0.670034  0  2.134691  0  0  -0.356719  -0.636138  0  2.162774  0
O  O70  1  0.81583269  0.09599317  0.95950481  1  0  -0.768079  0  2.023567  0  0  -0.691959  0  2.313503  0  0  -0.714879  0  2.289198  0  0  -0.374804  -0.675586  0  2.329558  0
O  O71  1  0.18417593  0.90400045  0.04048688  1  0  -0.768063  0  2.02345  0  0  -0.69191  0  2.313379  0  0  -0.714832  0  2.289071  0  0  -0.374766  -0.675536  0  2.32943  0
O  O72  1  0.01279236  0.91676279  0.75922253  1  0  -0.724812  0  1.977045  0  0  -0.673215  0  2.227437  0  0  -0.694178  0  2.2117  0  0  -0.352132  -0.658324  0  2.237789  0
O  O73  1  0.98721922  0.08322519  0.24077642  1  0  -0.724701  0  1.977083  0  0  -0.673202  0  2.227619  0  0  -0.694123  0  2.211797  0  0  -0.352078  -0.65831  0  2.237967  0
