# generated using pymatgen
data_ZnH20C18S4(NO)2
_symmetry_space_group_name_H-M   'P 1'
_cell_length_a   6.50359725
_cell_length_b   10.97551575
_cell_length_c   15.33761767
_cell_angle_alpha   79.71133297
_cell_angle_beta   77.74751181
_cell_angle_gamma   72.75864247
_symmetry_Int_Tables_number   1
_chemical_formula_structural   ZnH20C18S4(NO)2
_chemical_formula_sum   'Zn2 H40 C36 S8 N4 O4'
_cell_volume   1013.90924749
_cell_formula_units_Z   2
loop_
 _symmetry_equiv_pos_site_id
 _symmetry_equiv_pos_as_xyz
  1  'x, y, z'
loop_
 _atom_site_type_symbol
 _atom_site_label
 _atom_site_symmetry_multiplicity
 _atom_site_fract_x
 _atom_site_fract_y
 _atom_site_fract_z
 _atom_site_occupancy
 _atom_site_hle17_bader_spin_density
 _atom_site_hle17_ddec_charge
 _atom_site_hle17_ddec_spin_density
 _atom_site_hle17_ddec_sum_bond_order
 _atom_site_hle17_magmom
 _atom_site_hse06_10hf_bader_spin_density
 _atom_site_hse06_10hf_ddec_charge
 _atom_site_hse06_10hf_ddec_spin_density
 _atom_site_hse06_10hf_ddec_sum_bond_order
 _atom_site_hse06_10hf_magmom
 _atom_site_hse06_bader_spin_density
 _atom_site_hse06_ddec_charge
 _atom_site_hse06_ddec_spin_density
 _atom_site_hse06_ddec_sum_bond_order
 _atom_site_hse06_magmom
 _atom_site_pbe_bader_spin_density
 _atom_site_pbe_cm5_charge
 _atom_site_pbe_ddec_charge
 _atom_site_pbe_ddec_spin_density
 _atom_site_pbe_ddec_sum_bond_order
 _atom_site_pbe_magmom
Zn  Zn0  1  0.97578056  0.24994538  0.74991273  1  0  0.703782  0  2.137109  0  0  0.518262  0  2.622767  0  0  0.558161  0  2.582071  0  0  0.542273  0.491564  0  2.649581  0
Zn  Zn1  1  0.02421453  0.75005292  0.25008468  1  0  0.703828  0  2.137128  0  0  0.518327  0  2.622737  0  0  0.558213  0  2.582027  0  0  0.542291  0.491642  0  2.649553  0
H  H2  1  0.46213528  0.53331077  0.59854825  1  0  0.056335  0  0.963656  0  0  0.067137  0  1.034794  0  0  0.067894  0  1.033933  0  0  0.090454  0.066572  0  1.035415  0
H  H3  1  0.59432482  0.96657386  0.90119311  1  0  0.055122  0  0.964487  0  0  0.066034  0  1.035755  0  0  0.066829  0  1.034896  0  0  0.090239  0.065473  0  1.036412  0
H  H4  1  0.53785291  0.46669992  0.40145878  1  0  0.056334  0  0.963834  0  0  0.067172  0  1.034916  0  0  0.06793  0  1.034057  0  0  0.09047  0.066607  0  1.035538  0
H  H5  1  0.40567205  0.03342531  0.09881305  1  0  0.055186  0  0.964433  0  0  0.06608  0  1.035716  0  0  0.066874  0  1.034862  0  0  0.090259  0.065513  0  1.03637  0
H  H6  1  0.63798898  0.62711522  0.53385423  1  0  0.043162  0  0.987382  0  0  0.052084  0  1.063879  0  0  0.052493  0  1.063645  0  0  0.086622  0.051832  0  1.064003  0
H  H7  1  0.79885235  0.87299742  0.96614913  1  0  0.043438  0  0.987043  0  0  0.052185  0  1.063732  0  0  0.05261  0  1.063527  0  0  0.086786  0.051826  0  1.063952  0
H  H8  1  0.36200383  0.37289162  0.46615340  1  0  0.043147  0  0.987283  0  0  0.052077  0  1.063811  0  0  0.052488  0  1.063575  0  0  0.086612  0.051828  0  1.063932  0
H  H9  1  0.20115293  0.12700275  0.03385281  1  0  0.043444  0  0.987139  0  0  0.05219  0  1.063809  0  0  0.052617  0  1.063602  0  0  0.086795  0.051825  0  1.064025  0
H  H10  1  0.31697358  0.76592209  0.62498698  1  0  0.101723  0  0.967971  0  0  0.124409  0  1.029662  0  0  0.124692  0  1.031491  0  0  0.084707  0.124266  0  1.02824  0
H  H11  1  0.70896053  0.73376282  0.87494086  1  0  0.102505  0  0.967187  0  0  0.125018  0  1.029172  0  0  0.125359  0  1.030939  0  0  0.084889  0.124953  0  1.027632  0
H  H12  1  0.68302250  0.23408958  0.37501793  1  0  0.101772  0  0.967914  0  0  0.124491  0  1.029571  0  0  0.124774  0  1.031399  0  0  0.084762  0.124343  0  1.028155  0
H  H13  1  0.29103735  0.26623929  0.12505956  1  0  0.102473  0  0.967223  0  0  0.124982  0  1.029208  0  0  0.125322  0  1.030979  0  0  0.084883  0.12492  0  1.02766  0
H  H14  1  0.55817175  0.75483156  0.66710411  1  0  0.099976  0  0.961027  0  0  0.119159  0  1.025675  0  0  0.120129  0  1.026404  0  0  0.081881  0.118398  0  1.025283  0
H  H15  1  0.98115453  0.74510164  0.83295494  1  0  0.100256  0  0.96237  0  0  0.119802  0  1.026479  0  0  0.120784  0  1.027217  0  0  0.082044  0.119051  0  1.026009  0
H  H16  1  0.44181990  0.24518013  0.33289893  1  0  0.099957  0  0.960939  0  0  0.119137  0  1.025614  0  0  0.120108  0  1.026341  0  0  0.081843  0.118374  0  1.025222  0
H  H17  1  0.01884227  0.25490142  0.16704605  1  0  0.100341  0  0.962357  0  0  0.119873  0  1.026465  0  0  0.120856  0  1.027202  0  0  0.082069  0.119124  0  1.025995  0
H  H18  1  0.37363498  0.66285576  0.72510229  1  0  0.104029  0  0.957493  0  0  0.124426  0  1.019493  0  0  0.125594  0  1.020276  0  0  0.083726  0.123651  0  1.01885  0
H  H19  1  0.76271122  0.83686778  0.77485548  1  0  0.103087  0  0.958137  0  0  0.123982  0  1.019728  0  0  0.125148  0  1.020507  0  0  0.083119  0.12305  0  1.019286  0
H  H20  1  0.62636056  0.33715879  0.27490317  1  0  0.104036  0  0.957491  0  0  0.124423  0  1.019513  0  0  0.125587  0  1.020303  0  0  0.083712  0.123648  0  1.018868  0
H  H21  1  0.23728362  0.16313526  0.22514747  1  0  0.103071  0  0.958146  0  0  0.123938  0  1.019769  0  0  0.125109  0  1.020543  0  0  0.083116  0.123006  0  1.019326  0
H  H22  1  0.78623939  0.49936073  0.82358851  1  0  0.077072  0  0.95416  0  0  0.084582  0  1.020421  0  0  0.086687  0  1.019242  0  0  0.11051  0.082859  0  1.021612  0
H  H23  1  0.10907250  0.00057423  0.67636828  1  0  0.076222  0  0.956545  0  0  0.084123  0  1.02238  0  0  0.086269  0  1.021142  0  0  0.110117  0.08241  0  1.023527  0
H  H24  1  0.21377038  0.50063081  0.17641204  1  0  0.077044  0  0.954178  0  0  0.084563  0  1.020427  0  0  0.086665  0  1.019258  0  0  0.110501  0.082843  0  1.021621  0
H  H25  1  0.89091782  0.99941826  0.32363390  1  0  0.07627  0  0.956343  0  0  0.084138  0  1.022212  0  0  0.086283  0  1.020974  0  0  0.110127  0.082424  0  1.023361  0
H  H26  1  0.43182221  0.61752979  0.90947417  1  0  0.102756  0  0.987922  0  0  0.111402  0  1.054592  0  0  0.115048  0  1.053238  0  0  0.097258  0.109216  0  1.054833  0
H  H27  1  0.95876916  0.88231162  0.59060984  1  0  0.104431  0  0.987481  0  0  0.1125  0  1.054222  0  0  0.116082  0  1.052998  0  0  0.097609  0.11005  0  1.055102  0
H  H28  1  0.56819298  0.38246269  0.09052832  1  0  0.102743  0  0.988012  0  0  0.111365  0  1.054693  0  0  0.115005  0  1.053358  0  0  0.097232  0.10918  0  1.054931  0
H  H29  1  0.04123057  0.11768283  0.40938817  1  0  0.104482  0  0.987469  0  0  0.112527  0  1.054212  0  0  0.11611  0  1.052985  0  0  0.097634  0.110082  0  1.055083  0
H  H30  1  0.20612126  0.27869429  0.92777174  1  0  0.100886  0  0.983381  0  0  0.109038  0  1.050474  0  0  0.112434  0  1.049047  0  0  0.101117  0.106861  0  1.051041  0
H  H31  1  0.41224283  0.22115419  0.57236000  1  0  0.10199  0  0.983835  0  0  0.110017  0  1.050565  0  0  0.11342  0  1.049136  0  0  0.101251  0.107572  0  1.051963  0
H  H32  1  0.79387826  0.72130398  0.07222755  1  0  0.100851  0  0.983348  0  0  0.109024  0  1.050435  0  0  0.112429  0  1.048998  0  0  0.101126  0.106846  0  1.051004  0
H  H33  1  0.58776081  0.77884509  0.42763464  1  0  0.101979  0  0.983775  0  0  0.109987  0  1.050549  0  0  0.113396  0  1.049115  0  0  0.101255  0.107543  0  1.051947  0
H  H34  1  0.56564051  0.17600036  0.84507548  1  0  0.083158  0  0.973097  0  0  0.088197  0  1.04396  0  0  0.090986  0  1.041423  0  0  0.110694  0.086035  0  1.045885  0
H  H35  1  0.58648591  0.32384605  0.65488865  1  0  0.083519  0  0.973706  0  0  0.088642  0  1.044244  0  0  0.091591  0  1.041522  0  0  0.110954  0.0863  0  1.046574  0
H  H36  1  0.43435877  0.82399505  0.15492245  1  0  0.082997  0  0.97322  0  0  0.088101  0  1.044027  0  0  0.090888  0  1.041492  0  0  0.110666  0.08594  0  1.045952  0
H  H37  1  0.41351718  0.67615131  0.34510600  1  0  0.083483  0  0.973724  0  0  0.088653  0  1.044234  0  0  0.091606  0  1.041503  0  0  0.110978  0.086311  0  1.046564  0
H  H38  1  0.07187337  0.62572129  0.98570441  1  0  0.089102  0  0.9852  0  0  0.097432  0  1.053985  0  0  0.100579  0  1.052696  0  0  0.096175  0.094974  0  1.055258  0
H  H39  1  0.68346087  0.87424230  0.51416688  1  0  0.088521  0  0.985689  0  0  0.096656  0  1.05468  0  0  0.099791  0  1.0533  0  0  0.096068  0.094288  0  1.055796  0
H  H40  1  0.92813221  0.37427314  0.01429562  1  0  0.089185  0  0.985093  0  0  0.097428  0  1.053967  0  0  0.100583  0  1.05266  0  0  0.096199  0.094958  0  1.055273  0
H  H41  1  0.31654013  0.12575506  0.48582829  1  0  0.088536  0  0.985771  0  0  0.096688  0  1.054717  0  0  0.099814  0  1.053369  0  0  0.096058  0.094311  0  1.055863  0
C  C42  1  0.94602868  0.52657320  0.62544434  1  0  0.337395  0  3.818726  0  0  0.312367  0  4.132071  0  0  0.341941  0  4.13366  0  0  0.108258  0.292564  0  4.130116  0
C  C43  1  0.09843641  0.97337727  0.87437977  1  0  0.336597  0  3.817966  0  0  0.312421  0  4.130722  0  0  0.341815  0  4.132388  0  0  0.108137  0.292648  0  4.128951  0
C  C44  1  0.05396442  0.47343079  0.37455983  1  0  0.337428  0  3.818812  0  0  0.312405  0  4.132161  0  0  0.341981  0  4.133745  0  0  0.108202  0.292601  0  4.130207  0
C  C45  1  0.90156569  0.02662393  0.12561536  1  0  0.336365  0  3.818106  0  0  0.312192  0  4.130889  0  0  0.341585  0  4.132559  0  0  0.107996  0.292419  0  4.129117  0
C  C46  1  0.56871517  0.59251695  0.60207053  1  0  0.133071  0  3.598864  0  0  0.074521  0  3.868313  0  0  0.084021  0  3.872774  0  0  -0.079763  0.068099  0  3.865075  0
C  C47  1  0.76365764  0.90740063  0.89786820  1  0  0.136042  0  3.596464  0  0  0.077837  0  3.8663  0  0  0.087117  0  3.870951  0  0  -0.079103  0.071426  0  3.863063  0
C  C48  1  0.43127445  0.40749374  0.39793664  1  0  0.133309  0  3.598837  0  0  0.074709  0  3.86832  0  0  0.084214  0  3.872777  0  0  -0.079646  0.068289  0  3.865075  0
C  C49  1  0.23633960  0.09260147  0.10213287  1  0  0.135888  0  3.596495  0  0  0.07773  0  3.866287  0  0  0.087006  0  3.870946  0  0  -0.07913  0.071347  0  3.863012  0
C  C50  1  0.44843000  0.70032660  0.65861969  1  0  -0.322486  0  3.712033  0  0  -0.397581  0  3.952041  0  0  -0.400974  0  3.961903  0  0  -0.254794  -0.394895  0  3.944863  0
C  C51  1  0.80829390  0.79947269  0.84137189  1  0  -0.323586  0  3.713693  0  0  -0.39916  0  3.952934  0  0  -0.402584  0  3.962877  0  0  -0.254489  -0.396456  0  3.945762  0
C  C52  1  0.55156400  0.29968506  0.34138573  1  0  -0.322672  0  3.71185  0  0  -0.397788  0  3.951896  0  0  -0.401179  0  3.961755  0  0  -0.254917  -0.395097  0  3.944723  0
C  C53  1  0.19170203  0.20052940  0.15863048  1  0  -0.323577  0  3.713734  0  0  -0.399108  0  3.952954  0  0  -0.402538  0  3.962901  0  0  -0.254488  -0.396411  0  3.945769  0
C  C54  1  0.65310521  0.45429319  0.84972350  1  0  0.1352  0  3.692088  0  0  0.102335  0  3.940322  0  0  0.110547  0  3.957431  0  0  0.044658  0.096516  0  3.929636  0
C  C55  1  0.95707222  0.04563561  0.65021838  1  0  0.13542  0  3.695373  0  0  0.102302  0  3.943585  0  0  0.110604  0  3.960576  0  0  0.045732  0.096958  0  3.931845  0
C  C56  1  0.34690555  0.54569931  0.15027712  1  0  0.135052  0  3.692373  0  0  0.102196  0  3.940573  0  0  0.110407  0  3.957678  0  0  0.044559  0.09637  0  3.929898  0
C  C57  1  0.04292719  0.95435979  0.34978100  1  0  0.135408  0  3.69529  0  0  0.102319  0  3.943444  0  0  0.110622  0  3.96043  0  0  0.045672  0.097  0  3.931721  0
C  C58  1  0.45645965  0.51885070  0.89725710  1  0  -0.161204  0  3.692268  0  0  -0.176215  0  3.93457  0  0  -0.184836  0  3.955042  0  0  -0.081142  -0.17073  0  3.920777  0
C  C59  1  0.87251254  0.98101637  0.60274965  1  0  -0.162527  0  3.691753  0  0  -0.176587  0  3.934523  0  0  -0.185134  0  3.954853  0  0  -0.08105  -0.170943  0  3.920651  0
C  C60  1  0.54355103  0.48114081  0.10274569  1  0  -0.161115  0  3.692358  0  0  -0.176107  0  3.934679  0  0  -0.184733  0  3.955152  0  0  -0.081067  -0.170621  0  3.920887  0
C  C61  1  0.12748726  0.01897905  0.39724618  1  0  -0.162573  0  3.691816  0  0  -0.176614  0  3.934562  0  0  -0.185161  0  3.954891  0  0  -0.081065  -0.170969  0  3.920682  0
C  C62  1  0.28762367  0.45781986  0.92876760  1  0  0.140217  0  3.785965  0  0  0.154842  0  4.013373  0  0  0.161101  0  4.035252  0  0  0.011013  0.150776  0  3.998803  0
C  C63  1  0.67407457  0.04201918  0.57126457  1  0  0.140332  0  3.786306  0  0  0.153591  0  4.015481  0  0  0.159863  0  4.037254  0  0  0.010085  0.149582  0  4.000764  0
C  C64  1  0.71238312  0.54217650  0.07123176  1  0  0.14032  0  3.785867  0  0  0.154913  0  4.013308  0  0  0.161173  0  4.035186  0  0  0.011059  0.150847  0  3.998737  0
C  C65  1  0.32593026  0.95797723  0.42872886  1  0  0.140368  0  3.785964  0  0  0.153631  0  4.015117  0  0  0.159909  0  4.036883  0  0  0.010149  0.149622  0  4.000404  0
C  C66  1  0.32923344  0.33193763  0.90841892  1  0  -0.152201  0  3.68397  0  0  -0.165536  0  3.922938  0  0  -0.174348  0  3.944645  0  0  -0.080199  -0.160462  0  3.908902  0
C  C67  1  0.56935209  0.16788103  0.59163321  1  0  -0.152074  0  3.68458  0  0  -0.164552  0  3.923155  0  0  -0.173294  0  3.944771  0  0  -0.079843  -0.159816  0  3.909781  0
C  C68  1  0.67076993  0.66805680  0.09158018  1  0  -0.152225  0  3.683922  0  0  -0.165567  0  3.922938  0  0  -0.174387  0  3.944638  0  0  -0.080212  -0.160494  0  3.908904  0
C  C69  1  0.43065100  0.83211633  0.40836145  1  0  -0.152089  0  3.684333  0  0  -0.164575  0  3.922926  0  0  -0.173326  0  3.944539  0  0  -0.079944  -0.159837  0  3.909548  0
C  C70  1  0.53051808  0.27345617  0.86114589  1  0  0.135133  0  3.680573  0  0  0.101254  0  3.930963  0  0  0.109023  0  3.948049  0  0  0.042809  0.095961  0  3.920413  0
C  C71  1  0.66496328  0.22641401  0.63880634  1  0  0.132268  0  3.683898  0  0  0.098449  0  3.934052  0  0  0.106234  0  3.950964  0  0  0.041495  0.09352  0  3.923476  0
C  C72  1  0.46948571  0.72654020  0.13885174  1  0  0.135334  0  3.680535  0  0  0.101394  0  3.930923  0  0  0.109163  0  3.948009  0  0  0.042857  0.0961  0  3.920374  0
C  C73  1  0.33503608  0.77358238  0.36118941  1  0  0.132334  0  3.683714  0  0  0.09845  0  3.93382  0  0  0.106234  0  3.950733  0  0  0.041491  0.093544  0  3.923263  0
C  C74  1  0.08355902  0.52575120  0.98018189  1  0  -0.094936  0  3.696948  0  0  -0.112522  0  3.941533  0  0  -0.116032  0  3.96204  0  0  -0.076439  -0.11023  0  3.928022  0
C  C75  1  0.58949743  0.97417824  0.51980262  1  0  -0.094702  0  3.698169  0  0  -0.11191  0  3.943553  0  0  -0.115186  0  3.963836  0  0  -0.076369  -0.109275  0  3.929227  0
C  C76  1  0.91644685  0.47424517  0.01981523  1  0  -0.095038  0  3.696825  0  0  -0.112534  0  3.941457  0  0  -0.116042  0  3.961967  0  0  -0.076477  -0.110254  0  3.927962  0
C  C77  1  0.41050435  0.02581910  0.48019334  1  0  -0.09492  0  3.698149  0  0  -0.112122  0  3.943516  0  0  -0.115406  0  3.963789  0  0  -0.076416  -0.109492  0  3.929186  0
S  S78  1  0.13320394  0.41602318  0.68530766  1  0  -0.404689  0  2.17808  0  0  -0.366237  0  2.55505  0  0  -0.384945  0  2.542424  0  0  -0.179045  -0.353347  0  2.562774  0
S  S79  1  0.23490625  0.08386581  0.81439993  1  0  -0.403387  0  2.177784  0  0  -0.365041  0  2.554442  0  0  -0.383677  0  2.54188  0  0  -0.178452  -0.352222  0  2.562203  0
S  S80  1  0.86679340  0.58397700  0.31469278  1  0  -0.404647  0  2.178156  0  0  -0.366205  0  2.555147  0  0  -0.384906  0  2.542512  0  0  -0.178993  -0.353306  0  2.562856  0
S  S81  1  0.76509395  0.91613445  0.18559290  1  0  -0.403326  0  2.177802  0  0  -0.364994  0  2.554481  0  0  -0.383621  0  2.541911  0  0  -0.178455  -0.352169  0  2.562236  0
S  S82  1  0.01032705  0.64737360  0.55339972  1  0  -0.372323  0  1.943974  0  0  -0.357434  0  2.249389  0  0  -0.372729  0  2.247699  0  0  -0.171323  -0.346301  0  2.25014  0
S  S83  1  0.21135953  0.85267884  0.94650617  1  0  -0.372847  0  1.943569  0  0  -0.358115  0  2.248677  0  0  -0.373223  0  2.247032  0  0  -0.171781  -0.34687  0  2.249243  0
S  S84  1  0.98967380  0.35262659  0.44660034  1  0  -0.372312  0  1.943953  0  0  -0.357426  0  2.249379  0  0  -0.372715  0  2.247676  0  0  -0.171305  -0.346292  0  2.250131  0
S  S85  1  0.78864881  0.14732237  0.05348744  1  0  -0.37279  0  1.943589  0  0  -0.358035  0  2.248674  0  0  -0.373128  0  2.247004  0  0  -0.171722  -0.346793  0  2.249253  0
N  N86  1  0.69130917  0.33287869  0.83187628  1  0  -0.299204  0  3.297906  0  0  -0.210558  0  3.569725  0  0  -0.229217  0  3.584609  0  0  -0.333656  -0.198772  0  3.560615  0
N  N87  1  0.85597803  0.16705429  0.66802932  1  0  -0.297549  0  3.300363  0  0  -0.209588  0  3.572922  0  0  -0.228224  0  3.587774  0  0  -0.333666  -0.197602  0  3.56283  0
N  N88  1  0.30869386  0.66711479  0.16812210  1  0  -0.299129  0  3.297981  0  0  -0.210496  0  3.569841  0  0  -0.229146  0  3.584716  0  0  -0.333595  -0.198709  0  3.560737  0
N  N89  1  0.14401982  0.83294112  0.33196848  1  0  -0.297603  0  3.300473  0  0  -0.20958  0  3.57296  0  0  -0.228217  0  3.587814  0  0  -0.333591  -0.197672  0  3.562959  0
O  O90  1  0.74772956  0.50368984  0.64383819  1  0  -0.284162  0  2.371784  0  0  -0.195981  0  2.605966  0  0  -0.219365  0  2.610288  0  0  -0.164493  -0.179669  0  2.602696  0
O  O91  1  0.89557538  0.99623973  0.85607141  1  0  -0.284832  0  2.369435  0  0  -0.197949  0  2.604731  0  0  -0.221044  0  2.608861  0  0  -0.165083  -0.181605  0  2.601333  0
O  O92  1  0.25226248  0.49631701  0.35616864  1  0  -0.284307  0  2.371817  0  0  -0.196141  0  2.60604  0  0  -0.219532  0  2.610358  0  0  -0.164504  -0.17983  0  2.602769  0
O  O93  1  0.10442030  0.00376238  0.14392808  1  0  -0.284679  0  2.369361  0  0  -0.197853  0  2.604692  0  0  -0.22095  0  2.608829  0  0  -0.165039  -0.181515  0  2.601282  0
