# generated using pymatgen
data_Zn4H8C40Br4Cl8O13
_symmetry_space_group_name_H-M   'P 1'
_cell_length_a   23.98689832
_cell_length_b   23.98842730
_cell_length_c   23.98670465
_cell_angle_alpha   66.58634765
_cell_angle_beta   72.46924086
_cell_angle_gamma   107.54053626
_symmetry_Int_Tables_number   1
_chemical_formula_structural   Zn4H8C40Br4Cl8O13
_chemical_formula_sum   'Zn8 H16 C80 Br8 Cl16 O26'
_cell_volume   10587.15715575
_cell_formula_units_Z   2
loop_
 _symmetry_equiv_pos_site_id
 _symmetry_equiv_pos_as_xyz
  1  'x, y, z'
loop_
 _atom_site_type_symbol
 _atom_site_label
 _atom_site_symmetry_multiplicity
 _atom_site_fract_x
 _atom_site_fract_y
 _atom_site_fract_z
 _atom_site_occupancy
 _atom_site_pbe_bader_charge
 _atom_site_pbe_bader_spin_density
 _atom_site_pbe_cm5_charge
 _atom_site_pbe_ddec_charge
 _atom_site_pbe_ddec_spin_density
 _atom_site_pbe_ddec_sum_bond_order
 _atom_site_pbe_magmom
Zn  Zn0  1  0.05693509  0.95770422  0.48537172  1  1.323626  0  0.679241  0.984396  0  2.361824  0
Zn  Zn1  1  0.05693373  0.09923121  0.45770695  1  1.323048  0  0.679242  0.98443  0  2.361794  0
Zn  Zn2  1  0.94305999  0.98536865  0.45769608  1  1.323609  0  0.679336  0.984581  0  2.361331  0
Zn  Zn3  1  0.94307814  0.95770107  0.59923412  1  1.323449  0  0.679158  0.984354  0  2.362064  0
Zn  Zn4  1  0.94306639  0.54229733  0.01462958  1  1.323678  0  0.679235  0.984375  0  2.361891  0
Zn  Zn5  1  0.05694163  0.51463461  0.04230240  1  1.323933  0  0.679366  0.984639  0  2.361262  0
Zn  Zn6  1  0.94306593  0.40076943  0.04229819  1  1.323258  0  0.679236  0.98438  0  2.36199  0
Zn  Zn7  1  0.05692214  0.54229630  0.90076666  1  1.323389  0  0.67921  0.984497  0  2.361956  0
H  H8  1  0.92382520  0.71472010  0.17525338  1  0.082679  0  0.112017  0.131846  0  0.986887  0
H  H9  1  0.07616108  0.67524054  0.21476597  1  0.082071  0  0.11193  0.131724  0  0.987044  0
H  H10  1  0.92383135  0.82474884  0.28524538  1  0.082716  0  0.111964  0.131844  0  0.986805  0
H  H11  1  0.07611713  0.78520461  0.32482123  1  0.08297  0  0.112154  0.132024  0  0.986823  0
H  H12  1  0.07617905  0.40089565  0.70911475  1  0.093929  0  0.111932  0.131554  0  0.987148  0
H  H13  1  0.92383990  0.20907802  0.90092964  1  0.093237  0  0.11197  0.131766  0  0.986966  0
H  H14  1  0.07611963  0.29091161  0.59908192  1  0.093682  0  0.112099  0.131921  0  0.98706  0
H  H15  1  0.92383285  0.09908053  0.79091178  1  0.093495  0  0.111958  0.131776  0  0.986936  0
H  H16  1  0.61001149  0.40091391  0.17521872  1  0.082246  0  0.112054  0.131882  0  0.986895  0
H  H17  1  0.61000567  0.20908198  0.21476603  1  0.081196  0  0.111959  0.131777  0  0.987132  0
H  H18  1  0.38999645  0.29091959  0.28522299  1  0.081377  0  0.112052  0.131792  0  0.987095  0
H  H19  1  0.38998693  0.09909957  0.32470833  1  0.082562  0  0.11192  0.131556  0  0.987097  0
H  H20  1  0.39000234  0.67520114  0.90091233  1  0.08215  0  0.112119  0.131864  0  0.986971  0
H  H21  1  0.38997962  0.71475200  0.70907638  1  0.080968  0  0.111943  0.131745  0  0.986866  0
H  H22  1  0.61002057  0.78523698  0.79092608  1  0.081107  0  0.111985  0.131808  0  0.986971  0
H  H23  1  0.61000029  0.82472187  0.59910220  1  0.082409  0  0.111946  0.131614  0  0.987099  0
C  C24  1  0.18111535  0.09056678  0.40944136  1  1.586135  0  0.222108  0.622128  0  4.15922  0
C  C25  1  0.99999470  0.13682429  0.36317309  1  1.616397  0  0.22926  0.628514  0  4.124042  0
C  C26  1  0.99998864  0.90944272  0.40944535  1  1.608262  0  0.222166  0.622152  0  4.159146  0
C  C27  1  0.81888851  0.90943714  0.59056931  1  1.586428  0  0.222175  0.622254  0  4.15906  0
C  C28  1  0.00000700  0.86317178  0.63682634  1  1.616257  0  0.229129  0.628439  0  4.124126  0
C  C29  1  0.99999534  0.09055461  0.59056277  1  1.637939  0  0.22211  0.621966  0  4.159457  0
C  C30  1  0.00000204  0.59054491  0.09056806  1  1.607813  0  0.222127  0.622237  0  4.159195  0
C  C31  1  0.00000942  0.36317874  0.13682517  1  1.616356  0  0.229193  0.628471  0  4.124055  0
C  C32  1  0.81888510  0.40943673  0.09054697  1  1.58665  0  0.22226  0.622257  0  4.158892  0
C  C33  1  0.99999124  0.40942976  0.90945490  1  1.638258  0  0.222105  0.62223  0  4.159247  0
C  C34  1  0.99999721  0.63682952  0.86317377  1  1.615797  0  0.229234  0.628546  0  4.123916  0
C  C35  1  0.18111328  0.59055189  0.90943390  1  1.586256  0  0.222274  0.62241  0  4.159013  0
C  C36  1  0.00000225  0.80506120  0.69493756  1  0.057754  0  -0.015403  -0.098205  0  3.843881  0
C  C37  1  0.00000118  0.69493948  0.80506252  1  0.057793  0  -0.015422  -0.098109  0  3.843597  0
C  C38  1  0.95716995  0.77689988  0.76592819  1  -0.029756  0  -0.014746  0.048979  0  3.872645  0
C  C39  1  0.04283271  0.72310039  0.73407197  1  -0.029201  0  -0.014823  0.048848  0  3.872747  0
C  C40  1  0.95716931  0.72309824  0.81973152  1  -0.033592  0  -0.014751  0.048921  0  3.872596  0
C  C41  1  0.04283335  0.77690202  0.68026864  1  -0.03372  0  -0.014758  0.048966  0  3.872652  0
C  C42  1  0.99999956  0.19493756  0.30506160  1  0.057938  0  -0.015371  -0.098034  0  3.843549  0
C  C43  1  0.00000344  0.30506487  0.19493681  1  0.057958  0  -0.015361  -0.098085  0  3.843476  0
C  C44  1  0.95716691  0.18027155  0.27689384  1  -0.034299  0  -0.014826  0.048963  0  3.87271  0
C  C45  1  0.04283541  0.31973073  0.22310484  1  -0.03356  0  -0.014766  0.049072  0  3.872539  0
C  C46  1  0.95716814  0.23407532  0.22309156  1  -0.029454  0  -0.014814  0.04873  0  3.87288  0
C  C47  1  0.04283418  0.26592695  0.27690712  1  -0.02954  0  -0.014807  0.04879  0  3.872833  0
C  C48  1  0.99999726  0.62805227  0.12808026  1  0.062892  0  -0.018787  -0.15929  0  3.834379  0
C  C49  1  0.95729931  0.65804635  0.13600874  1  -0.006833  0  0.029959  0.1651  0  3.99295  0
C  C50  1  0.95734174  0.69278497  0.17070909  1  0.129337  0  -0.089227  -0.207495  0  3.927285  0
C  C51  1  0.99999275  0.69954719  0.19957427  1  0.076686  0  0.008346  0.184336  0  4.126517  0
C  C52  1  0.04264557  0.67069082  0.19282170  1  0.130024  0  -0.089146  -0.207227  0  3.927412  0
C  C53  1  0.04269118  0.63598898  0.15808479  1  -0.008513  0  0.029925  0.164912  0  3.993101  0
C  C54  1  0.99998767  0.73478019  0.23481462  1  -0.060324  0  -0.030361  -0.086288  0  4.074804  0
C  C55  1  0.99998299  0.76518307  0.26522209  1  -0.274473  0  -0.030199  -0.085828  0  4.074877  0
C  C56  1  0.99997918  0.80041839  0.30045906  1  0.077089  0  0.008352  0.184262  0  4.126814  0
C  C57  1  0.95733748  0.82928866  0.30719933  1  0.128959  0  -0.089144  -0.207347  0  3.927168  0
C  C58  1  0.95729080  0.86398890  0.34193802  1  -0.007155  0  0.030035  0.165155  0  3.99289  0
C  C59  1  0.99997758  0.87191466  0.37195248  1  0.06264  0  -0.018994  -0.159556  0  3.834565  0
C  C60  1  0.04265581  0.84189375  0.36404799  1  -0.008391  0  0.030027  0.165224  0  3.993451  0
C  C61  1  0.04261393  0.80715828  0.32934540  1  0.129194  0  -0.089496  -0.207852  0  3.927691  0
C  C62  1  0.00000614  0.37191541  0.87195075  1  0.03629  0  -0.018752  -0.159198  0  3.83449  0
C  C63  1  0.04270915  0.40667570  0.79926089  1  0.005858  0  0.029859  0.164705  0  3.99369  0
C  C64  1  0.04266012  0.37193151  0.76456599  1  0.111402  0  -0.089054  -0.206743  0  3.927329  0
C  C65  1  0.00000221  0.30042553  0.80045354  1  0.078832  0  0.008358  0.184148  0  4.126966  0
C  C66  1  0.95735643  0.26453238  0.87196317  1  0.101383  0  -0.089316  -0.207429  0  3.927695  0
C  C67  1  0.95731541  0.29922325  0.90671013  1  0.004264  0  0.030048  0.165065  0  3.993019  0
C  C68  1  0.99999425  0.26519122  0.76521565  1  -0.062537  0  -0.030388  -0.086368  0  4.07495  0
C  C69  1  0.99998942  0.23479180  0.73480468  1  -0.275045  0  -0.03018  -0.085653  0  4.074671  0
C  C70  1  0.99998039  0.19955815  0.69956593  1  0.089775  0  0.008336  0.184093  0  4.126917  0
C  C71  1  0.04261527  0.23545543  0.62805211  1  0.101433  0  -0.089389  -0.207716  0  3.927811  0
C  C72  1  0.04265489  0.20076524  0.59330447  1  0.003542  0  0.030025  0.165274  0  3.993113  0
C  C73  1  0.99997762  0.12806788  0.62806852  1  0.037191  0  -0.018911  -0.159524  0  3.834843  0
C  C74  1  0.95729006  0.09330386  0.70076229  1  0.005328  0  0.029966  0.16503  0  3.993195  0
C  C75  1  0.95733837  0.12804887  0.73545708  1  0.101093  0  -0.089193  -0.20727  0  3.9273  0
C  C76  1  0.74386562  0.37192513  0.12806324  1  0.076005  0  -0.018856  -0.159412  0  3.834487  0
C  C77  1  0.70593402  0.40668821  0.13598420  1  -0.008993  0  0.029903  0.165073  0  3.993312  0
C  C78  1  0.63649568  0.37194375  0.17068383  1  0.137636  0  -0.089205  -0.207483  0  3.927444  0
C  C79  1  0.60087643  0.30043227  0.19955393  1  0.109549  0  0.00827  0.18426  0  4.126804  0
C  C80  1  0.63649377  0.26453756  0.19281480  1  4.7e-05  0  -0.089309  -0.20757  0  3.927775  0
C  C81  1  0.70593258  0.29922968  0.15808032  1  0.117868  0  0.030019  0.1651  0  3.993033  0
C  C82  1  0.53040423  0.26520052  0.23478200  1  -0.352224  0  -0.030311  -0.086047  0  4.074964  0
C  C83  1  0.46959462  0.23480299  0.26518097  1  -0.030263  0  -0.030219  -0.085954  0  4.074914  0
C  C84  1  0.39912091  0.19956921  0.30041197  1  0.112048  0  0.008384  0.183996  0  4.126907  0
C  C85  1  0.36350715  0.23546541  0.30716444  1  -5e-06  0  -0.089419  -0.207463  0  3.927811  0
C  C86  1  0.29406941  0.20077488  0.34189796  1  0.117825  0  0.030061  0.165158  0  3.992908  0
C  C87  1  0.25613377  0.12808150  0.37190583  1  0.075973  0  -0.01882  -0.159196  0  3.834355  0
C  C88  1  0.29405987  0.09331916  0.36396331  1  -0.008564  0  0.029931  0.164752  0  3.993555  0
C  C89  1  0.36349937  0.12806322  0.32926515  1  0.134833  0  -0.089138  -0.20684  0  3.927397  0
C  C90  1  0.25613391  0.62805272  0.87192239  1  0.076679  0  -0.018975  -0.159596  0  3.834728  0
C  C91  1  0.29407359  0.63596610  0.90668748  1  -0.00875  0  0.029949  0.165075  0  3.993305  0
C  C92  1  0.36351173  0.67066844  0.87194082  1  0.137572  0  -0.08925  -0.207404  0  3.927583  0
C  C93  1  0.39912334  0.69954531  0.80042798  1  0.109331  0  0.008276  0.1842  0  4.126644  0
C  C94  1  0.36349829  0.69280171  0.76453252  1  0.000706  0  -0.089314  -0.207556  0  3.927281  0
C  C95  1  0.29405941  0.65806448  0.79922612  1  0.117411  0  0.030014  0.165157  0  3.992896  0
C  C96  1  0.46959739  0.73478152  0.76519592  1  -0.352156  0  -0.030372  -0.085977  0  4.074875  0
C  C97  1  0.53040572  0.76518241  0.73480725  1  -0.030375  0  -0.030214  -0.086128  0  4.075116  0
C  C98  1  0.60087930  0.80041917  0.69957637  1  0.109765  0  0.008411  0.184319  0  4.126785  0
C  C99  1  0.63650098  0.80717703  0.73547094  1  0.000519  0  -0.089401  -0.207717  0  3.927763  0
C  C100  1  0.70594078  0.84191414  0.70077753  1  0.117184  0  0.030032  0.165156  0  3.993001  0
C  C101  1  0.74386855  0.87191573  0.62808419  1  0.076179  0  -0.018863  -0.159402  0  3.834406  0
C  C102  1  0.70593116  0.86397614  0.59332254  1  -0.008446  0  0.029927  0.164867  0  3.993497  0
C  C103  1  0.63649298  0.82927479  0.62806716  1  0.137453  0  -0.089068  -0.206879  0  3.927384  0
Br  Br104  1  0.89691269  0.80884398  0.79423558  1  0.02814  0  0.036985  -0.022166  0  1.639277  0
Br  Br105  1  0.10308711  0.69115395  0.70576428  1  0.028691  0  0.037004  -0.022133  0  1.639356  0
Br  Br106  1  0.89691276  0.69115026  0.91193270  1  0.03076  0  0.037018  -0.022157  0  1.639309  0
Br  Br107  1  0.10309097  0.80885160  0.58806734  1  0.030368  0  0.036993  -0.022212  0  1.639356  0
Br  Br108  1  0.89691019  0.08807193  0.30883039  1  0.026136  0  0.036988  -0.02223  0  1.639369  0
Br  Br109  1  0.10309257  0.41193078  0.19116715  1  0.02631  0  0.036994  -0.022238  0  1.639332  0
Br  Br110  1  0.89690767  0.20576941  0.19113794  1  0.033  0  0.03703  -0.022083  0  1.639364  0
Br  Br111  1  0.10309354  0.29423226  0.30886215  1  0.032677  0  0.037041  -0.022117  0  1.639339  0
Cl  Cl112  1  0.90117181  0.65544527  0.10439458  1  -0.169555  0  -0.005044  -0.063653  0  1.523801  0
Cl  Cl113  1  0.09882113  0.60438700  0.15549231  1  -0.169289  0  -0.005022  -0.063622  0  1.523719  0
Cl  Cl114  1  0.90117451  0.89560715  0.34451409  1  -0.169054  0  -0.005098  -0.06375  0  1.523801  0
Cl  Cl115  1  0.09875143  0.84445721  0.39570252  1  -0.168486  0  -0.00497  -0.063561  0  1.523792  0
Cl  Cl116  1  0.09885369  0.49440263  0.74573855  1  -0.158022  0  -0.004961  -0.06357  0  1.52401  0
Cl  Cl117  1  0.90119758  0.24569486  0.99444419  1  -0.158288  0  -0.005074  -0.063628  0  1.523689  0
Cl  Cl118  1  0.09875085  0.25429819  0.50556520  1  -0.158124  0  -0.004966  -0.063539  0  1.523581  0
Cl  Cl119  1  0.90117086  0.00557117  0.75428969  1  -0.15815  0  -0.005037  -0.06362  0  1.523883  0
Cl  Cl120  1  0.74014241  0.49442349  0.10436110  1  -0.170491  0  -0.005003  -0.063607  0  1.523742  0
Cl  Cl121  1  0.74013610  0.24569685  0.15550958  1  -0.169421  0  -0.005034  -0.063581  0  1.523661  0
Cl  Cl122  1  0.25986559  0.25430428  0.34448474  1  -0.169782  0  -0.005048  -0.063619  0  1.523688  0
Cl  Cl123  1  0.25985448  0.00559367  0.39554119  1  -0.171396  0  -0.004997  -0.063596  0  1.524034  0
Cl  Cl124  1  0.25987553  0.60432818  0.99442741  1  -0.17043  0  -0.004978  -0.063546  0  1.523561  0
Cl  Cl125  1  0.25984551  0.65548588  0.74569439  1  -0.169529  0  -0.004994  -0.063567  0  1.523724  0
Cl  Cl126  1  0.74015486  0.84450950  0.75430631  1  -0.169718  0  -0.005031  -0.063582  0  1.523756  0
Cl  Cl127  1  0.74012826  0.89557370  0.50559099  1  -0.170981  0  -0.00503  -0.06362  0  1.523859  0
O  O128  1  0.99999955  0.00000021  0.50000076  1  -1.234361  0  -0.572907  -1.035298  0  2.533088  0
O  O129  1  0.15180880  0.02570006  0.43443277  1  -1.161196  0  -0.314152  -0.545062  0  2.428763  0
O  O130  1  0.03951340  0.15384986  0.38567287  1  -1.178159  0  -0.313656  -0.540136  0  2.483548  0
O  O131  1  0.96009294  0.93441206  0.41377762  1  -1.161144  0  -0.314249  -0.545171  0  2.428757  0
O  O132  1  0.15180814  0.12612627  0.41378049  1  -1.162007  0  -0.314272  -0.545185  0  2.428663  0
O  O133  1  0.03989938  0.91379684  0.43440404  1  -1.16171  0  -0.314108  -0.544993  0  2.428638  0
O  O134  1  0.96048108  0.07482482  0.38565659  1  -1.177046  0  -0.313371  -0.539863  0  2.484436  0
O  O135  1  0.84818869  0.93442192  0.52570530  1  -1.161186  0  -0.314153  -0.545095  0  2.428867  0
O  O136  1  0.96049648  0.88567022  0.65385314  1  -1.177959  0  -0.313499  -0.540044  0  2.483828  0
O  O137  1  0.84820154  0.91376677  0.62613470  1  -1.162567  0  -0.314275  -0.545164  0  2.428514  0
O  O138  1  0.03951247  0.88565659  0.57482379  1  -1.177191  0  -0.313401  -0.539805  0  2.484351  0
O  O139  1  0.03989796  0.12611001  0.52570114  1  -1.174281  0  -0.314123  -0.544957  0  2.428704  0
O  O140  1  0.96010848  0.02568516  0.62612356  1  -1.174985  0  -0.314293  -0.545129  0  2.428713  0
O  O141  1  0.00000058  0.49999998  0.99999979  1  -1.234501  0  -0.572934  -1.035369  0  2.533177  0
O  O142  1  0.96010677  0.58621250  0.06558775  1  -1.161257  0  -0.314157  -0.545158  0  2.428585  0
O  O143  1  0.03951958  0.42517372  0.11434115  1  -1.177359  0  -0.313363  -0.539861  0  2.484654  0
O  O144  1  0.84819303  0.37387641  0.08620796  1  -1.162168  0  -0.314365  -0.54525  0  2.428389  0
O  O145  1  0.03989498  0.56557592  0.08623648  1  -1.161196  0  -0.314165  -0.545104  0  2.428888  0
O  O146  1  0.84819210  0.47429819  0.06557627  1  -1.161215  0  -0.314186  -0.545022  0  2.428848  0
O  O147  1  0.96048634  0.34614879  0.11432677  1  -1.178127  0  -0.313633  -0.540108  0  2.483371  0
O  O148  1  0.96009777  0.37387074  0.97432178  1  -1.175378  0  -0.314202  -0.545126  0  2.428828  0
O  O149  1  0.03951453  0.61433735  0.84614744  1  -1.177722  0  -0.31357  -0.540127  0  2.483743  0
O  O150  1  0.03986842  0.47429852  0.87389304  1  -1.174314  0  -0.31423  -0.545221  0  2.428666  0
O  O151  1  0.96048451  0.61433800  0.92517700  1  -1.177043  0  -0.31343  -0.539879  0  2.48429  0
O  O152  1  0.15181395  0.56559439  0.97429017  1  -1.161005  0  -0.314152  -0.545153  0  2.428958  0
O  O153  1  0.15179848  0.58621582  0.87386909  1  -1.162688  0  -0.314374  -0.54531  0  2.428386  0
