# generated using pymatgen
data_ZnH2C20N4Cl3O10
_symmetry_space_group_name_H-M   'P 1'
_cell_length_a   14.30464602
_cell_length_b   14.72987168
_cell_length_c   15.05262239
_cell_angle_alpha   89.97524580
_cell_angle_beta   88.69925315
_cell_angle_gamma   89.95602696
_symmetry_Int_Tables_number   1
_chemical_formula_structural   ZnH2C20N4Cl3O10
_chemical_formula_sum   'Zn2 H4 C40 N8 Cl6 O20'
_cell_volume   3170.85333421
_cell_formula_units_Z   2
loop_
 _symmetry_equiv_pos_site_id
 _symmetry_equiv_pos_as_xyz
  1  'x, y, z'
loop_
 _atom_site_type_symbol
 _atom_site_label
 _atom_site_symmetry_multiplicity
 _atom_site_fract_x
 _atom_site_fract_y
 _atom_site_fract_z
 _atom_site_occupancy
 _atom_site_pbe_bader_charge
 _atom_site_pbe_bader_spin_density
 _atom_site_pbe_cm5_charge
 _atom_site_pbe_ddec_charge
 _atom_site_pbe_ddec_spin_density
 _atom_site_pbe_ddec_sum_bond_order
 _atom_site_pbe_magmom
Zn  Zn0  1  0.50033613  0.40111201  0.50001122  1  1.324244  0  0.68186  0.882965  0  2.320876  0
Zn  Zn1  1  0.49981969  0.59651103  0.50016743  1  1.317451  0  0.679482  0.893894  0  2.219112  0
H  H2  1  0.36314465  0.49832779  0.23483997  1  0.097815  0  0.116395  0.126614  0  0.968516  0
H  H3  1  0.63656080  0.49451328  0.76539911  1  0.088967  0  0.11646  0.126465  0  0.968609  0
H  H4  1  0.26850934  0.46997928  0.10152605  1  0.123315  0  0.124993  0.139872  0  0.966248  0
H  H5  1  0.73057437  0.46464626  0.89891175  1  0.122964  0  0.125065  0.140237  0  0.966084  0
C  C6  1  0.48348876  0.51152785  0.66827857  1  1.628137  0  0.224476  0.621961  0  4.158734  0
C  C7  1  0.51643939  0.51207512  0.33195358  1  1.584934  0  0.223791  0.621261  0  4.158266  0
C  C8  1  0.67731848  0.48599073  0.51827325  1  1.695209  0  0.22096  0.656788  0  4.24135  0
C  C9  1  0.32290438  0.48523695  0.48187047  1  1.687875  0  0.220244  0.656327  0  4.244357  0
C  C10  1  0.77791267  0.48602213  0.51730455  1  0.280934  0  -0.007323  -0.122548  0  3.832012  0
C  C11  1  0.22230023  0.48512076  0.48252055  1  0.277145  0  -0.007099  -0.121899  0  3.831636  0
C  C12  1  0.86358996  0.48703832  0.51121330  1  -0.379756  0  -0.013252  0.021033  0  4.26049  0
C  C13  1  0.13661813  0.48643727  0.48847455  1  -0.375933  0  -0.013559  0.020133  0  4.260702  0
C  C14  1  0.95706464  0.48750547  0.50363000  1  -0.12598  0  -0.002797  -0.005328  0  4.201348  0
C  C15  1  0.04313564  0.48731774  0.49595809  1  0.080878  0  -0.002374  -0.004054  0  4.201149  0
C  C16  1  0.59597934  0.49435591  0.18111766  1  0.069213  0  0.02844  0.088682  0  3.985121  0
C  C17  1  0.40369938  0.49539146  0.81912674  1  0.065535  0  0.027563  0.087013  0  3.986275  0
C  C18  1  0.51341364  0.50183965  0.23266507  1  0.066977  0  -0.009615  -0.060422  0  3.975126  0
C  C19  1  0.48637378  0.50117867  0.76757906  1  0.028782  0  -0.009688  -0.058988  0  3.974891  0
C  C20  1  0.42673443  0.49459969  0.19357896  1  0.010119  0  -0.071699  -0.12289  0  3.916938  0
C  C21  1  0.57289298  0.49223864  0.80665736  1  -0.049673  0  -0.071957  -0.124098  0  3.916095  0
C  C22  1  0.42021555  0.48420921  0.10140809  1  -0.00186  0  -0.004195  0.082763  0  4.059872  0
C  C23  1  0.57921742  0.48201053  0.89888137  1  0.055303  0  -0.003974  0.084891  0  4.057051  0
C  C24  1  0.50342687  0.47868366  0.04747232  1  0.049776  0  0.011684  0.021756  0  3.894774  0
C  C25  1  0.49592379  0.47852923  0.95286365  1  -0.063229  0  0.011633  0.020996  0  3.894486  0
C  C26  1  0.59310533  0.47780321  0.08861843  1  0.09028  0  -0.001282  -0.026949  0  3.980569  0
C  C27  1  0.40621538  0.47931329  0.91174818  1  0.145898  0  -0.001224  -0.026094  0  3.980504  0
C  C28  1  0.33193693  0.47563216  0.06036253  1  0.054069  0  -0.067274  -0.156898  0  3.936763  0
C  C29  1  0.66726114  0.47179930  0.94003046  1  0.071835  0  -0.067  -0.158296  0  3.936142  0
C  C30  1  0.32596445  0.46922838  0.97026307  1  0.139555  0  0.077172  0.040036  0  3.94225  0
C  C31  1  0.67312753  0.46575697  0.03018242  1  0.150232  0  0.076573  0.040226  0  3.941326  0
C  C32  1  0.54882231  0.19797643  0.43852065  1  0.827709  0  0.229062  0.209784  0  3.867062  0
C  C33  1  0.44973833  0.81306182  0.55980477  1  0.790947  0  0.226219  0.206264  0  3.879969  0
C  C34  1  0.45142102  0.19799504  0.56138753  1  0.826113  0  0.229056  0.21016  0  3.866559  0
C  C35  1  0.54999822  0.81297842  0.43985316  1  0.793752  0  0.226328  0.206223  0  3.878468  0
C  C36  1  0.44171891  0.10262415  0.56230715  1  0.059103  0  0.010757  -0.042264  0  3.955745  0
C  C37  1  0.56009407  0.90836942  0.43944820  1  0.120232  0  0.01039  -0.041638  0  3.961319  0
C  C38  1  0.55830602  0.10255892  0.43739907  1  0.063961  0  0.010957  -0.041677  0  3.955149  0
C  C39  1  0.43967903  0.90845933  0.56015632  1  0.129218  0  0.010503  -0.041797  0  3.960677  0
C  C40  1  0.49997368  0.05401000  0.49982768  1  0.071548  0  0.022831  0.058366  0  3.890676  0
C  C41  1  0.49990732  0.95724202  0.49979651  1  -0.022112  0  0.021048  0.05716  0  3.896392  0
C  C42  1  0.37666842  0.05251763  0.61808005  1  0.189584  0  0.022048  0.051228  0  4.024194  0
C  C43  1  0.62604508  0.95830090  0.38482486  1  0.0974  0  0.02051  0.051237  0  4.028872  0
C  C44  1  0.62322266  0.05236117  0.38150962  1  0.199615  0  0.021561  0.049969  0  4.025421  0
C  C45  1  0.37371046  0.95847716  0.61471261  1  0.097686  0  0.020583  0.051452  0  4.026061  0
N  N46  1  0.50019984  0.24445691  0.50000960  1  -1.208748  0  -0.271369  -0.264301  0  3.402021  0
N  N47  1  0.49986668  0.76622337  0.49985340  1  -1.185159  0  -0.264919  -0.265513  0  3.352581  0
N  N48  1  0.23434972  0.43893765  0.93813985  1  0.410899  0  0.048291  0.505877  0  4.262845  0
N  N49  1  0.76407371  0.43361492  0.06241807  1  0.367184  0  0.048245  0.50538  0  4.263097  0
N  N50  1  0.59030879  0.25532046  0.36626624  1  0.439494  0  0.0502  0.450945  0  4.301032  0
N  N51  1  0.40720703  0.75728836  0.63250257  1  0.429256  0  0.050346  0.45679  0  4.304585  0
N  N52  1  0.41006980  0.25523646  0.63379050  1  0.446269  0  0.050651  0.451255  0  4.301915  0
N  N53  1  0.59237097  0.75716985  0.36710370  1  0.430286  0  0.050069  0.458068  0  4.304614  0
Cl  Cl54  1  0.69953585  0.51332081  0.23389866  1  -0.150658  0  0.030599  -0.011422  0  1.578214  0
Cl  Cl55  1  0.30054802  0.51574250  0.76603090  1  -0.149796  0  0.031078  -0.010981  0  1.578823  0
Cl  Cl56  1  0.29686168  0.10650736  0.68518175  1  -0.102885  0  0.0675  0.029692  0  1.644323  0
Cl  Cl57  1  0.71343783  0.90399890  0.32710341  1  -0.10034  0  0.060984  0.020626  0  1.639937  0
Cl  Cl58  1  0.70298980  0.10625973  0.31434294  1  -0.103553  0  0.067806  0.030563  0  1.643922  0
Cl  Cl59  1  0.28616183  0.90431801  0.67228730  1  -0.101389  0  0.060704  0.020247  0  1.639047  0
O  O60  1  0.46702908  0.43902743  0.62623852  1  -1.163594  0  -0.310938  -0.554438  0  2.422325  0
O  O61  1  0.49854333  0.58958586  0.36532111  1  -1.141389  0  -0.308351  -0.527966  0  2.32449  0
O  O62  1  0.53361386  0.43962154  0.37391772  1  -1.163345  0  -0.310864  -0.554539  0  2.422447  0
O  O63  1  0.50071719  0.58922915  0.63505196  1  -1.144092  0  -0.308829  -0.528858  0  2.324723  0
O  O64  1  0.63694364  0.41006676  0.53354994  1  -1.131434  0  -0.315881  -0.537098  0  2.273679  0
O  O65  1  0.36112590  0.56129909  0.49777527  1  -1.127179  0  -0.304431  -0.534042  0  2.324391  0
O  O66  1  0.36368631  0.40953356  0.46631885  1  -1.132824  0  -0.315395  -0.537225  0  2.274775  0
O  O67  1  0.63872285  0.56204132  0.50275211  1  -1.130119  0  -0.304582  -0.534163  0  2.322509  0
O  O68  1  0.16375626  0.48059308  0.96410681  1  -0.44496  0  -0.140802  -0.331173  0  1.864567  0
O  O69  1  0.23532526  0.36977883  0.89122613  1  -0.446764  0  -0.144933  -0.339408  0  1.896652  0
O  O70  1  0.83559436  0.47321595  0.03573498  1  -0.436386  0  -0.141  -0.331389  0  1.867148  0
O  O71  1  0.76157846  0.36504649  0.11019438  1  -0.426967  0  -0.144974  -0.33916  0  1.895863  0
O  O72  1  0.66277509  0.29615673  0.38170703  1  -0.374898  0  -0.076842  -0.243565  0  1.989531  0
O  O73  1  0.54474644  0.25595093  0.29763074  1  -0.389766  0  -0.095387  -0.26648  0  1.895799  0
O  O74  1  0.34130798  0.70811699  0.61370446  1  -0.379052  0  -0.086306  -0.261129  0  2.001752  0
O  O75  1  0.44441362  0.76655769  0.70507030  1  -0.396719  0  -0.102883  -0.276656  0  1.904404  0
O  O76  1  0.33765040  0.29633365  0.61851764  1  -0.372571  0  -0.077052  -0.243752  0  1.991435  0
O  O77  1  0.45567089  0.25548854  0.70240559  1  -0.3966  0  -0.09591  -0.266976  0  1.895509  0
O  O78  1  0.65832889  0.70788959  0.38570047  1  -0.378037  0  -0.085999  -0.261781  0  2.002002  0
O  O79  1  0.55491394  0.76650563  0.29464747  1  -0.399935  0  -0.103157  -0.277344  0  1.904637  0
