# generated using pymatgen
data_BaH6(C2O3)2
_symmetry_space_group_name_H-M   'P 1'
_cell_length_a   7.16239727
_cell_length_b   9.95460944
_cell_length_c   10.04741385
_cell_angle_alpha   89.99997272
_cell_angle_beta   90.00055312
_cell_angle_gamma   90.00008758
_symmetry_Int_Tables_number   1
_chemical_formula_structural   BaH6(C2O3)2
_chemical_formula_sum   'Ba4 H24 C16 O24'
_cell_volume   716.36922816
_cell_formula_units_Z   4
loop_
 _symmetry_equiv_pos_site_id
 _symmetry_equiv_pos_as_xyz
  1  'x, y, z'
loop_
 _atom_site_type_symbol
 _atom_site_label
 _atom_site_symmetry_multiplicity
 _atom_site_fract_x
 _atom_site_fract_y
 _atom_site_fract_z
 _atom_site_occupancy
 _atom_site_pbe_bader_spin_density
 _atom_site_pbe_cm5_charge
 _atom_site_pbe_ddec_charge
 _atom_site_pbe_ddec_spin_density
 _atom_site_pbe_ddec_sum_bond_order
 _atom_site_pbe_magmom
Ba  Ba0  1  0.24929032  0.11787013  0.11073578  1  0  0.966835  1.475041  0  1.590852  0
Ba  Ba1  1  0.75071188  0.88213131  0.61073263  1  0  0.9668  1.475056  0  1.590764  0
Ba  Ba2  1  0.74928940  0.38212888  0.11073344  1  0  0.966833  1.475094  0  1.590777  0
Ba  Ba3  1  0.25071420  0.61786753  0.61073696  1  0  0.966793  1.474966  0  1.590898  0
H  H4  1  0.62510045  0.82391709  0.23227761  1  0  0.118204  0.099098  0  1.002136  0
H  H5  1  0.37489924  0.17608630  0.73228619  1  0  0.118195  0.099095  0  1.002234  0
H  H6  1  0.12508893  0.67608380  0.23227495  1  0  0.118237  0.099177  0  1.002101  0
H  H7  1  0.87490378  0.32391257  0.73227889  1  0  0.118207  0.099084  0  1.002083  0
H  H8  1  0.45696523  0.69249547  0.22815960  1  0  0.120659  0.10491  0  1.003782  0
H  H9  1  0.54303719  0.30750793  0.72816129  1  0  0.120664  0.104932  0  1.003645  0
H  H10  1  0.95695577  0.80750176  0.22816425  1  0  0.120663  0.104949  0  1.003698  0
H  H11  1  0.04304386  0.19249460  0.72816459  1  0  0.120628  0.104864  0  1.003793  0
H  H12  1  0.45806369  0.69197996  0.99487431  1  0  0.120653  0.104759  0  1.003152  0
H  H13  1  0.54191725  0.30802030  0.49488235  1  0  0.120701  0.104822  0  1.003232  0
H  H14  1  0.95806540  0.80802597  0.99488096  1  0  0.120712  0.104855  0  1.003133  0
H  H15  1  0.04193648  0.19197329  0.49488167  1  0  0.120735  0.104886  0  1.003082  0
H  H16  1  0.62619746  0.82352916  0.99095046  1  0  0.118023  0.099095  0  1.002376  0
H  H17  1  0.37378343  0.17646709  0.49093950  1  0  0.118003  0.099153  0  1.002211  0
H  H18  1  0.12619711  0.67646837  0.99095078  1  0  0.118015  0.099103  0  1.002343  0
H  H19  1  0.87380752  0.32352586  0.49094813  1  0  0.117987  0.099033  0  1.002483  0
H  H20  1  0.30473111  0.46400731  0.03392507  1  0  0.304954  0.3812  0  0.956045  0
H  H21  1  0.69526447  0.53599215  0.53392569  1  0  0.30495  0.381206  0  0.95604  0
H  H22  1  0.80473502  0.03599381  0.03392489  1  0  0.304957  0.381207  0  0.956043  0
H  H23  1  0.19526613  0.96400667  0.53393085  1  0  0.30496  0.381228  0  0.956011  0
H  H24  1  0.30775494  0.46451558  0.19494363  1  0  0.303427  0.381042  0  0.95778  0
H  H25  1  0.69225122  0.53548783  0.69494324  1  0  0.303401  0.381023  0  0.957817  0
H  H26  1  0.80775327  0.03548546  0.19494245  1  0  0.303449  0.381085  0  0.957714  0
H  H27  1  0.19224590  0.96451694  0.69494541  1  0  0.303393  0.380997  0  0.957847  0
C  C28  1  0.38685008  0.86107962  0.35321239  1  0  0.224164  0.618591  0  4.218185  0
C  C29  1  0.61316243  0.13891769  0.85321365  1  0  0.224185  0.618691  0  4.218109  0
C  C30  1  0.88684445  0.63891346  0.35321415  1  0  0.224192  0.618798  0  4.218193  0
C  C31  1  0.11316388  0.36108686  0.85321388  1  0  0.224193  0.618609  0  4.218179  0
C  C32  1  0.47405181  0.80252792  0.22838356  1  0  -0.062149  -0.142997  0  3.91307  0
C  C33  1  0.52593945  0.19746241  0.72838818  1  0  -0.062135  -0.143039  0  3.913045  0
C  C34  1  0.97405189  0.69746230  0.22838629  1  0  -0.062179  -0.143182  0  3.913185  0
C  C35  1  0.02595473  0.30252603  0.72838745  1  0  -0.062027  -0.14281  0  3.912839  0
C  C36  1  0.47515166  0.80204858  0.99432694  1  0  -0.061615  -0.142265  0  3.913399  0
C  C37  1  0.52483905  0.19795570  0.49432197  1  0  -0.061588  -0.142317  0  3.913433  0
C  C38  1  0.97515313  0.69795536  0.99432866  1  0  -0.061652  -0.142413  0  3.913467  0
C  C39  1  0.02485154  0.30204490  0.49432622  1  0  -0.061628  -0.142399  0  3.913485  0
C  C40  1  0.38893392  0.85978463  0.86875402  1  0  0.224994  0.618643  0  4.215639  0
C  C41  1  0.61104530  0.14022875  0.36874569  1  0  0.225003  0.618667  0  4.215362  0
C  C42  1  0.88893248  0.64022530  0.86875179  1  0  0.224906  0.618573  0  4.215676  0
C  C43  1  0.11106349  0.35976999  0.36874891  1  0  0.224936  0.618606  0  4.215364  0
O  O44  1  0.27391588  0.95842542  0.34609871  1  0  -0.328529  -0.581189  0  2.152229  0
O  O45  1  0.72609793  0.04158596  0.84609581  1  0  -0.328467  -0.581152  0  2.152306  0
O  O46  1  0.77390725  0.54156855  0.34609852  1  0  -0.328591  -0.58135  0  2.15209  0
O  O47  1  0.22609819  0.45841772  0.84609898  1  0  -0.328484  -0.58114  0  2.15236  0
O  O48  1  0.43946583  0.80496491  0.46128218  1  0  -0.420422  -0.692579  0  2.270047  0
O  O49  1  0.56052583  0.19503235  0.96128504  1  0  -0.420506  -0.692681  0  2.269781  0
O  O50  1  0.93946729  0.69502516  0.46128192  1  0  -0.42039  -0.692587  0  2.270097  0
O  O51  1  0.06052296  0.30497210  0.96128531  1  0  -0.420526  -0.692685  0  2.269873  0
O  O52  1  0.39471450  0.85982096  0.11104761  1  0  -0.269335  -0.240002  0  2.648323  0
O  O53  1  0.60527375  0.14018148  0.61104683  1  0  -0.269346  -0.24003  0  2.648188  0
O  O54  1  0.89470748  0.64018027  0.11104638  1  0  -0.26934  -0.239944  0  2.648291  0
O  O55  1  0.10529613  0.35981414  0.61105104  1  0  -0.269405  -0.240016  0  2.64829  0
O  O56  1  0.44248363  0.80312751  0.76131164  1  0  -0.419649  -0.689511  0  2.270308  0
O  O57  1  0.55751646  0.19688291  0.26131685  1  0  -0.419558  -0.689402  0  2.270716  0
O  O58  1  0.94249208  0.69688454  0.76131436  1  0  -0.419592  -0.689453  0  2.270365  0
O  O59  1  0.05751777  0.30311885  0.26132010  1  0  -0.419536  -0.689386  0  2.27063  0
O  O60  1  0.27561446  0.95711033  0.87493530  1  0  -0.325854  -0.580586  0  2.157672  0
O  O61  1  0.72440114  0.04289802  0.37492779  1  0  -0.325992  -0.580767  0  2.156836  0
O  O62  1  0.77560863  0.54290148  0.87492018  1  0  -0.325815  -0.580565  0  2.157608  0
O  O63  1  0.22441535  0.45710084  0.37492698  1  0  -0.325898  -0.58067  0  2.156938  0
O  O64  1  0.38481379  0.47339193  0.11347815  1  0  -0.614371  -0.813267  0  2.020961  0
O  O65  1  0.61518846  0.52660147  0.61347525  1  0  -0.61433  -0.813228  0  2.020994  0
O  O66  1  0.88481350  0.02660923  0.11347897  1  0  -0.614383  -0.813297  0  2.020966  0
O  O67  1  0.11518735  0.97340225  0.61347642  1  0  -0.614318  -0.813228  0  2.021024  0
