# generated using pymatgen
data_Ag2H12C13SN3O7
_symmetry_space_group_name_H-M   'P 1'
_cell_length_a   7.58828337
_cell_length_b   10.07393122
_cell_length_c   10.99212928
_cell_angle_alpha   78.29420861
_cell_angle_beta   71.40552085
_cell_angle_gamma   84.61523159
_symmetry_Int_Tables_number   1
_chemical_formula_structural   Ag2H12C13SN3O7
_chemical_formula_sum   'Ag4 H24 C26 S2 N6 O14'
_cell_volume   779.46885959
_cell_formula_units_Z   2
loop_
 _symmetry_equiv_pos_site_id
 _symmetry_equiv_pos_as_xyz
  1  'x, y, z'
loop_
 _atom_site_type_symbol
 _atom_site_label
 _atom_site_symmetry_multiplicity
 _atom_site_fract_x
 _atom_site_fract_y
 _atom_site_fract_z
 _atom_site_occupancy
 _atom_site_hle17_bader_spin_density
 _atom_site_hle17_ddec_charge
 _atom_site_hle17_ddec_spin_density
 _atom_site_hle17_ddec_sum_bond_order
 _atom_site_hle17_magmom
 _atom_site_hse06_10hf_bader_spin_density
 _atom_site_hse06_10hf_ddec_charge
 _atom_site_hse06_10hf_ddec_spin_density
 _atom_site_hse06_10hf_ddec_sum_bond_order
 _atom_site_hse06_10hf_magmom
 _atom_site_hse06_bader_spin_density
 _atom_site_hse06_ddec_charge
 _atom_site_hse06_ddec_spin_density
 _atom_site_hse06_ddec_sum_bond_order
 _atom_site_hse06_magmom
 _atom_site_pbe_bader_spin_density
 _atom_site_pbe_cm5_charge
 _atom_site_pbe_ddec_charge
 _atom_site_pbe_ddec_spin_density
 _atom_site_pbe_ddec_sum_bond_order
 _atom_site_pbe_magmom
Ag  Ag0  1  0.29900841  0.18399237  0.70516518  1  0  0.596418  0  1.34677  0  0  0.46321  0  1.769668  0  0  0.490433  0  1.725643  0  0  0.476482  0.443883  0  1.799721  0
Ag  Ag1  1  0.70098485  0.81600943  0.29483852  1  0  0.596368  0  1.346836  0  0  0.463145  0  1.769771  0  0  0.490373  0  1.725737  0  0  0.47646  0.443818  0  1.799815  0
Ag  Ag2  1  0.31888979  0.44061397  0.25513162  1  0  0.572068  0  1.333078  0  0  0.433982  0  1.7435  0  0  0.458965  0  1.703157  0  0  0.489224  0.418565  0  1.770212  0
Ag  Ag3  1  0.68111578  0.55939107  0.74486805  1  0  0.572099  0  1.33304  0  0  0.43405  0  1.743488  0  0  0.459034  0  1.703137  0  0  0.489227  0.418635  0  1.770201  0
H  H4  1  0.71280599  0.15280403  0.77834363  1  0  0.102602  0  0.961847  0  0  0.113179  0  1.0255  0  0  0.116556  0  1.024328  0  0  0.102039  0.110707  0  1.026522  0
H  H5  1  0.28718669  0.84718865  0.22165730  1  0  0.102624  0  0.961814  0  0  0.113165  0  1.025512  0  0  0.116553  0  1.024328  0  0  0.102037  0.110691  0  1.026533  0
H  H6  1  0.93630869  0.05228105  0.89634739  1  0  0.107145  0  0.978625  0  0  0.112039  0  1.049028  0  0  0.115995  0  1.044863  0  0  0.102702  0.109086  0  1.052162  0
H  H7  1  0.06368951  0.94771376  0.10364838  1  0  0.107129  0  0.978605  0  0  0.111995  0  1.049049  0  0  0.115949  0  1.044886  0  0  0.102658  0.109042  0  1.052182  0
H  H8  1  0.08641067  0.73849353  0.66215694  1  0  0.108605  0  0.949049  0  0  0.1182  0  1.014228  0  0  0.121655  0  1.01089  0  0  0.107058  0.115738  0  1.016396  0
H  H9  1  0.91359167  0.26150133  0.33783887  1  0  0.108646  0  0.949059  0  0  0.118246  0  1.014225  0  0  0.121703  0  1.010886  0  0  0.107074  0.11578  0  1.016391  0
H  H10  1  0.42470687  0.09406480  0.94287338  1  0  0.106312  0  0.943691  0  0  0.115652  0  1.004634  0  0  0.117601  0  1.003912  0  0  0.125637  0.11427  0  1.004966  0
H  H11  1  0.57528886  0.90594007  0.05713198  1  0  0.10626  0  0.943865  0  0  0.115677  0  1.004677  0  0  0.117626  0  1.003957  0  0  0.12561  0.114291  0  1.005017  0
H  H12  1  0.43804908  0.18444370  0.13594909  1  0  0.097541  0  0.984252  0  0  0.102243  0  1.051533  0  0  0.104596  0  1.050474  0  0  0.119422  0.100337  0  1.052859  0
H  H13  1  0.56194946  0.81556020  0.86405678  1  0  0.097514  0  0.984375  0  0  0.102278  0  1.051575  0  0  0.104632  0  1.050515  0  0  0.119438  0.100372  0  1.052903  0
H  H14  1  0.20256096  0.55305738  0.99965280  1  0  0.105491  0  0.974263  0  0  0.112434  0  1.035864  0  0  0.115019  0  1.034754  0  0  0.121755  0.110374  0  1.036926  0
H  H15  1  0.79743185  0.44694845  0.00035481  1  0  0.105502  0  0.974077  0  0  0.112357  0  1.035805  0  0  0.114944  0  1.034693  0  0  0.121725  0.110293  0  1.036871  0
H  H16  1  0.20018480  0.46407835  0.80359519  1  0  0.103055  0  0.933954  0  0  0.114061  0  0.992096  0  0  0.11582  0  0.991258  0  0  0.124315  0.112433  0  0.993333  0
H  H17  1  0.79979727  0.53592225  0.19641559  1  0  0.103058  0  0.933935  0  0  0.11401  0  0.992143  0  0  0.115769  0  0.991306  0  0  0.1243  0.11238  0  0.993381  0
H  H18  1  0.57764169  0.29249234  0.41053807  1  0  0.117865  0  0.956913  0  0  0.124124  0  1.019417  0  0  0.127579  0  1.01645  0  0  0.125489  0.121894  0  1.021284  0
H  H19  1  0.42236150  0.70750759  0.58946211  1  0  0.117891  0  0.957022  0  0  0.124132  0  1.019505  0  0  0.127584  0  1.016541  0  0  0.125489  0.121901  0  1.021371  0
H  H20  1  0.71891832  0.33791121  0.57529229  1  0  0.110811  0  0.949259  0  0  0.117329  0  1.01355  0  0  0.120421  0  1.011186  0  0  0.124832  0.115242  0  1.015238  0
H  H21  1  0.28107915  0.66208963  0.42471163  1  0  0.110775  0  0.949377  0  0  0.117321  0  1.013634  0  0  0.120411  0  1.011271  0  0  0.124854  0.115233  0  1.015321  0
H  H22  1  0.65892149  0.00389710  0.52538576  1  0  0.389299  0  0.892183  0  0  0.363558  0  0.958637  0  0  0.375793  0  0.946208  0  0  0.303634  0.355048  0  0.96715  0
H  H23  1  0.34108206  0.99609980  0.47461034  1  0  0.38933  0  0.892242  0  0  0.363576  0  0.958703  0  0  0.375815  0  0.946271  0  0  0.303613  0.355065  0  0.967218  0
H  H24  1  0.07980696  0.68387091  0.17614963  1  0  0.418383  0  0.881571  0  0  0.389717  0  0.94388  0  0  0.398924  0  0.930119  0  0  0.28562  0.383062  0  0.953899  0
H  H25  1  0.92019931  0.31612603  0.82384773  1  0  0.418401  0  0.881535  0  0  0.389716  0  0.943875  0  0  0.398925  0  0.930111  0  0  0.285636  0.383062  0  0.953893  0
H  H26  1  0.01704552  0.66109561  0.33279203  1  0  0.41002  0  0.900992  0  0  0.377356  0  0.970338  0  0  0.388688  0  0.953372  0  0  0.27332  0.369269  0  0.982413  0
H  H27  1  0.98295509  0.33890328  0.66720523  1  0  0.410052  0  0.900966  0  0  0.37738  0  0.970328  0  0  0.388714  0  0.953359  0  0  0.273346  0.369294  0  0.982401  0
C  C28  1  0.87696068  0.88400889  0.62222714  1  0  -0.227542  0  3.75982  0  0  -0.206234  0  4.006778  0  0  -0.221113  0  4.029077  0  0  -0.041728  -0.196904  0  3.992107  0
C  C29  1  0.12303078  0.11597969  0.37777842  1  0  -0.227469  0  3.759794  0  0  -0.206145  0  4.006702  0  0  -0.221023  0  4.028994  0  0  -0.041708  -0.196814  0  3.992038  0
C  C30  1  0.77167517  0.00312841  0.65498956  1  0  0.353475  0  3.771775  0  0  0.336065  0  4.030007  0  0  0.352667  0  4.043881  0  0  0.093291  0.324921  0  4.020533  0
C  C31  1  0.22832824  0.99687053  0.34500621  1  0  0.353354  0  3.771861  0  0  0.335942  0  4.030058  0  0  0.352548  0  4.043927  0  0  0.093277  0.324787  0  4.020603  0
C  C32  1  0.79392949  0.06119018  0.75487003  1  0  -0.18696  0  3.715044  0  0  -0.202136  0  3.967201  0  0  -0.211249  0  3.986737  0  0  -0.106116  -0.196212  0  3.954231  0
C  C33  1  0.20605767  0.93880139  0.24513315  1  0  -0.186918  0  3.715025  0  0  -0.202062  0  3.967166  0  0  -0.211187  0  3.986695  0  0  -0.106092  -0.19613  0  3.954191  0
C  C34  1  0.92068267  0.00531594  0.81949648  1  0  -0.046394  0  3.777667  0  0  -0.073335  0  4.035307  0  0  -0.067213  0  4.050937  0  0  -0.088438  -0.077215  0  4.024668  0
C  C35  1  0.07931684  0.99467887  0.18050175  1  0  -0.046385  0  3.777922  0  0  -0.07332  0  4.035554  0  0  -0.067201  0  4.051202  0  0  -0.088423  -0.077196  0  4.024909  0
C  C36  1  0.02785830  0.88916859  0.78557716  1  0  -0.157444  0  3.770305  0  0  -0.133636  0  4.023613  0  0  -0.144445  0  4.045625  0  0  -0.039771  -0.12676  0  4.00899  0
C  C37  1  0.97214004  0.11082214  0.21442387  1  0  -0.157416  0  3.7703  0  0  -0.133563  0  4.023537  0  0  -0.144379  0  4.045568  0  0  -0.039747  -0.126698  0  4.00893  0
C  C38  1  0.00495673  0.82891659  0.68881690  1  0  -0.036546  0  3.745861  0  0  -0.077686  0  4.005024  0  0  -0.069995  0  4.020995  0  0  -0.083653  -0.082333  0  3.993982  0
C  C39  1  0.99504666  0.17108132  0.31118178  1  0  -0.036576  0  3.74576  0  0  -0.077751  0  4.004943  0  0  -0.070054  0  4.02091  0  0  -0.08365  -0.082394  0  3.993912  0
C  C40  1  0.85852757  0.82043735  0.51548328  1  0  0.635817  0  3.930688  0  0  0.579446  0  4.228219  0  0  0.6146  0  4.2225  0  0  0.196592  0.555833  0  4.23138  0
C  C41  1  0.14148412  0.17956376  0.48450766  1  0  0.635927  0  3.93055  0  0  0.579546  0  4.228065  0  0  0.614702  0  4.222343  0  0  0.196627  0.555935  0  4.23123  0
C  C42  1  0.38019050  0.19788026  0.95441327  1  0  0.084075  0  3.641517  0  0  0.056215  0  3.886929  0  0  0.0585  0  3.905893  0  0  0.056128  0.055088  0  3.873852  0
C  C43  1  0.61979540  0.80212548  0.04559487  1  0  0.083997  0  3.641605  0  0  0.056178  0  3.886957  0  0  0.058462  0  3.905921  0  0  0.056093  0.055051  0  3.873871  0
C  C44  1  0.38339794  0.24735859  0.06267549  1  0  0.080081  0  3.670402  0  0  0.050752  0  3.916204  0  0  0.05295  0  3.935591  0  0  0.052171  0.048028  0  3.904423  0
C  C45  1  0.61660186  0.75264941  0.93732484  1  0  0.080269  0  3.670387  0  0  0.050916  0  3.916162  0  0  0.053116  0  3.935546  0  0  0.052239  0.048194  0  3.90437  0
C  C46  1  0.25507863  0.45077516  0.98710118  1  0  0.076702  0  3.644705  0  0  0.047632  0  3.892657  0  0  0.050543  0  3.909148  0  0  0.052896  0.045845  0  3.881866  0
C  C47  1  0.74491690  0.54923071  0.01290768  1  0  0.076867  0  3.644499  0  0  0.047851  0  3.892537  0  0  0.05074  0  3.909061  0  0  0.052932  0.046063  0  3.881757  0
C  C48  1  0.25488470  0.40184280  0.87739226  1  0  0.084635  0  3.668132  0  0  0.052329  0  3.92409  0  0  0.055763  0  3.94074  0  0  0.054194  0.049658  0  3.913306  0
C  C49  1  0.74509988  0.59816190  0.12261635  1  0  0.084664  0  3.668317  0  0  0.052436  0  3.924297  0  0  0.055876  0  3.940941  0  0  0.05426  0.049763  0  3.913504  0
C  C50  1  0.54149452  0.38444445  0.45180776  1  0  0.067215  0  3.66184  0  0  0.036686  0  3.917072  0  0  0.040061  0  3.931269  0  0  0.050154  0.034209  0  3.907658  0
C  C51  1  0.45850683  0.61555949  0.54819661  1  0  0.067216  0  3.661823  0  0  0.03674  0  3.917058  0  0  0.040117  0  3.931253  0  0  0.050158  0.034261  0  3.907644  0
C  C52  1  0.61900666  0.40994448  0.54350518  1  0  0.067204  0  3.662046  0  0  0.038169  0  3.914502  0  0  0.041543  0  3.928804  0  0  0.052716  0.035527  0  3.904587  0
C  C53  1  0.38098915  0.59006041  0.45649744  1  0  0.067229  0  3.662104  0  0  0.038146  0  3.914546  0  0  0.041524  0  3.928838  0  0  0.052678  0.035506  0  3.90463  0
S  S54  1  0.19696315  0.82628773  0.86572653  1  0  1.303217  0  5.653992  0  0  1.212058  0  6.16408  0  0  1.260254  0  6.14077  0  0  0.498196  1.179139  0  6.178711  0
S  S55  1  0.80305277  0.17371345  0.13426170  1  0  1.303308  0  5.654862  0  0  1.212074  0  6.165026  0  0  1.260278  0  6.141714  0  0  0.498137  1.179157  0  6.179659  0
N  N56  1  0.31697457  0.27513093  0.86106216  1  0  -0.25944  0  3.354416  0  0  -0.178275  0  3.638134  0  0  -0.192845  0  3.653593  0  0  -0.330687  -0.168181  0  3.627205  0
N  N57  1  0.68302237  0.72487599  0.13894349  1  0  -0.259461  0  3.354618  0  0  -0.178379  0  3.638407  0  0  -0.192948  0  3.653863  0  0  -0.330682  -0.168279  0  3.627465  0
N  N58  1  0.31987238  0.37362716  0.07969101  1  0  -0.251124  0  3.32515  0  0  -0.167323  0  3.600809  0  0  -0.181988  0  3.617694  0  0  -0.327957  -0.157565  0  3.589534  0
N  N59  1  0.68011920  0.62637663  0.92031723  1  0  -0.251324  0  3.325052  0  0  -0.167603  0  3.600855  0  0  -0.182262  0  3.617735  0  0  -0.328041  -0.157848  0  3.58958  0
N  N60  1  0.42301102  0.47480340  0.40771431  1  0  -0.241355  0  3.319431  0  0  -0.160248  0  3.596688  0  0  -0.173073  0  3.611355  0  0  -0.327315  -0.150932  0  3.585824  0
N  N61  1  0.57699041  0.52519953  0.59229024  1  0  -0.241416  0  3.319371  0  0  -0.160341  0  3.596624  0  0  -0.173166  0  3.611289  0  0  -0.327352  -0.151023  0  3.585762  0
O  O62  1  0.31450521  0.72672251  0.79240702  1  0  -0.690595  0  1.991489  0  0  -0.645367  0  2.261782  0  0  -0.666603  0  2.246727  0  0  -0.349697  -0.630527  0  2.271429  0
O  O63  1  0.68552100  0.27329408  0.20756811  1  0  -0.690598  0  1.991736  0  0  -0.645348  0  2.262013  0  0  -0.666594  0  2.246969  0  0  -0.349663  -0.630503  0  2.271644  0
O  O64  1  0.09319909  0.76450341  0.00112094  1  0  -0.696418  0  1.977347  0  0  -0.636832  0  2.221804  0  0  -0.659985  0  2.209846  0  0  -0.351564  -0.620478  0  2.22975  0
O  O65  1  0.90683074  0.23547869  0.99886699  1  0  -0.696585  0  1.977761  0  0  -0.636906  0  2.22217  0  0  -0.660063  0  2.21021  0  0  -0.351568  -0.620528  0  2.230058  0
O  O66  1  0.29776396  0.94605506  0.86200550  1  0  -0.687359  0  1.992075  0  0  -0.631263  0  2.260646  0  0  -0.653737  0  2.245226  0  0  -0.35486  -0.615356  0  2.27047  0
O  O67  1  0.70222904  0.05395285  0.13799169  1  0  -0.68742  0  1.992341  0  0  -0.631272  0  2.260874  0  0  -0.653749  0  2.245457  0  0  -0.354849  -0.615356  0  2.270667  0
O  O68  1  0.65278836  0.06461554  0.59101889  1  0  -0.519647  0  2.133114  0  0  -0.465158  0  2.366607  0  0  -0.486433  0  2.355316  0  0  -0.344139  -0.450174  0  2.373802  0
O  O69  1  0.34721378  0.93538134  0.40897842  1  0  -0.519683  0  2.133246  0  0  -0.465164  0  2.366713  0  0  -0.486442  0  2.355417  0  0  -0.344145  -0.450177  0  2.373916  0
O  O70  1  0.95722691  0.71873117  0.48272198  1  0  -0.619555  0  1.98949  0  0  -0.56023  0  2.219883  0  0  -0.58578  0  2.210419  0  0  -0.310032  -0.542531  0  2.225677  0
O  O71  1  0.04277396  0.28126263  0.51727888  1  0  -0.619638  0  1.989293  0  0  -0.56031  0  2.219689  0  0  -0.585858  0  2.210223  0  0  -0.310102  -0.542609  0  2.225482  0
O  O72  1  0.73402251  0.87924482  0.46114909  1  0  -0.628189  0  2.158513  0  0  -0.535879  0  2.414911  0  0  -0.568535  0  2.405143  0  0  -0.329567  -0.513685  0  2.421003  0
O  O73  1  0.26597669  0.12075302  0.53885138  1  0  -0.628233  0  2.158573  0  0  -0.535926  0  2.414991  0  0  -0.56859  0  2.405227  0  0  -0.329523  -0.513731  0  2.421085  0
O  O74  1  0.06185011  0.61485534  0.25603356  1  0  -0.849387  0  1.85654  0  0  -0.792783  0  2.052515  0  0  -0.811881  0  2.016747  0  0  -0.602311  -0.779263  0  2.077606  0
O  O75  1  0.93815056  0.38514254  0.74396387  1  0  -0.849437  0  1.856473  0  0  -0.792837  0  2.052475  0  0  -0.811935  0  2.0167  0  0  -0.602356  -0.77932  0  2.077563  0
