# generated using pymatgen
data_NaMo2H22C14(NO5)3
_symmetry_space_group_name_H-M   'P 1'
_cell_length_a   7.32367766
_cell_length_b   7.72498493
_cell_length_c   11.07999058
_cell_angle_alpha   71.44445369
_cell_angle_beta   75.44729361
_cell_angle_gamma   82.87405619
_symmetry_Int_Tables_number   1
_chemical_formula_structural   NaMo2H22C14(NO5)3
_chemical_formula_sum   'Na1 Mo2 H22 C14 N3 O15'
_cell_volume   574.53684332
_cell_formula_units_Z   1
loop_
 _symmetry_equiv_pos_site_id
 _symmetry_equiv_pos_as_xyz
  1  'x, y, z'
loop_
 _atom_site_type_symbol
 _atom_site_label
 _atom_site_symmetry_multiplicity
 _atom_site_fract_x
 _atom_site_fract_y
 _atom_site_fract_z
 _atom_site_occupancy
 _atom_site_hle17_bader_spin_density
 _atom_site_hle17_ddec_charge
 _atom_site_hle17_ddec_spin_density
 _atom_site_hle17_ddec_sum_bond_order
 _atom_site_hle17_magmom
 _atom_site_hse06_10hf_bader_spin_density
 _atom_site_hse06_10hf_ddec_charge
 _atom_site_hse06_10hf_ddec_spin_density
 _atom_site_hse06_10hf_ddec_sum_bond_order
 _atom_site_hse06_10hf_magmom
 _atom_site_hse06_bader_spin_density
 _atom_site_hse06_ddec_charge
 _atom_site_hse06_ddec_spin_density
 _atom_site_hse06_ddec_sum_bond_order
 _atom_site_hse06_magmom
 _atom_site_pbe_bader_spin_density
 _atom_site_pbe_cm5_charge
 _atom_site_pbe_ddec_charge
 _atom_site_pbe_ddec_spin_density
 _atom_site_pbe_ddec_sum_bond_order
 _atom_site_pbe_magmom
Na  Na0  1  0.02704003  0.98175072  0.12713297  1  0  0.898859  0  0.404783  0  0  0.857259  0  0.558928  0  0  0.868964  0  0.534661  0  0  0.720566  0.848531  0  0.576461  0
Mo  Mo1  1  0.90561116  0.60354728  0.62414235  1  0  1.694837  0  4.029074  0  0  1.654142  0  4.590895  0  0  1.738906  0  4.56719  0  0  1.333795  1.597427  0  4.605988  0
Mo  Mo2  1  0.82456885  0.54579563  0.43058999  1  0  1.591924  0  4.051345  0  0  1.55091  0  4.594653  0  0  1.628371  0  4.582942  0  0  1.325829  1.498065  0  4.602753  0
H  H3  1  0.77012769  0.41262916  0.96833573  1  0  0.12133  0  0.933251  0  0  0.135843  0  0.992217  0  0  0.1383  0  0.990596  0  0  0.123753  0.13408  0  0.993361  0
H  H4  1  0.75683248  0.18299628  0.97040754  1  0  0.118282  0  0.965881  0  0  0.129574  0  1.030129  0  0  0.133359  0  1.027131  0  0  0.117193  0.126915  0  1.032316  0
H  H5  1  0.44727457  0.43300754  0.94114520  1  0  0.107059  0  0.898459  0  0  0.122119  0  0.952005  0  0  0.125328  0  0.949405  0  0  0.114066  0.119798  0  0.953985  0
H  H6  1  0.43559561  0.53195216  0.77508329  1  0  0.128793  0  0.919255  0  0  0.143935  0  0.971969  0  0  0.147338  0  0.969207  0  0  0.12327  0.1415  0  0.974043  0
H  H7  1  0.57067882  0.13206378  0.86475270  1  0  0.091047  0  0.910882  0  0  0.104335  0  0.973687  0  0  0.106175  0  0.972122  0  0  0.112826  0.102956  0  0.974844  0
H  H8  1  0.78086237  0.15159951  0.74318832  1  0  0.093999  0  0.914236  0  0  0.112325  0  0.967571  0  0  0.113993  0  0.966135  0  0  0.116391  0.111038  0  0.968726  0
H  H9  1  0.44697649  0.12887440  0.70423611  1  0  0.079842  0  0.908877  0  0  0.096672  0  0.969275  0  0  0.097812  0  0.968336  0  0  0.111423  0.095661  0  0.97018  0
H  H10  1  0.41334920  0.36369573  0.68512051  1  0  0.089087  0  0.956519  0  0  0.102052  0  1.022282  0  0  0.103975  0  1.020484  0  0  0.112279  0.100565  0  1.023758  0
H  H11  1  0.64105533  0.01774376  0.52440710  1  0  0.118538  0  0.910347  0  0  0.132589  0  0.96785  0  0  0.13518  0  0.966514  0  0  0.116157  0.130673  0  0.969024  0
H  H12  1  0.82645347  0.08363609  0.57472685  1  0  0.133091  0  0.91014  0  0  0.147419  0  0.964752  0  0  0.150583  0  0.96216  0  0  0.126405  0.1452  0  0.966628  0
H  H13  1  0.33753349  0.25165012  0.51909110  1  0  0.103113  0  0.896464  0  0  0.12223  0  0.949712  0  0  0.124475  0  0.947945  0  0  0.116759  0.120546  0  0.951118  0
H  H14  1  0.51168100  0.28505455  0.37322033  1  0  0.076217  0  0.950994  0  0  0.092973  0  1.012315  0  0  0.093892  0  1.011755  0  0  0.109316  0.092221  0  1.01284  0
H  H15  1  0.28131293  0.55571286  0.37399473  1  0  0.096065  0  0.92161  0  0  0.110764  0  0.983642  0  0  0.112311  0  0.982973  0  0  0.116362  0.109698  0  0.984108  0
H  H16  1  0.35117066  0.57784626  0.50992366  1  0  0.095917  0  0.936666  0  0  0.109756  0  1.000534  0  0  0.111458  0  0.999147  0  0  0.116332  0.10846  0  1.001715  0
H  H17  1  0.64329522  0.91681455  0.30356368  1  0  0.12988  0  0.957718  0  0  0.134978  0  1.027525  0  0  0.138153  0  1.025671  0  0  0.125019  0.132743  0  1.028837  0
H  H18  1  0.46630604  0.83198171  0.44433683  1  0  0.140454  0  0.915168  0  0  0.154005  0  0.969184  0  0  0.157459  0  0.966118  0  0  0.127406  0.151499  0  0.971504  0
H  H19  1  0.64397088  0.47884087  0.21366683  1  0  0.108986  0  0.943106  0  0  0.11877  0  1.005313  0  0  0.121203  0  1.003614  0  0  0.116425  0.117084  0  1.006491  0
H  H20  1  0.46955335  0.65441944  0.16535462  1  0  0.130581  0  0.924964  0  0  0.140996  0  0.984179  0  0  0.144519  0  0.981388  0  0  0.122838  0.138413  0  0.986383  0
H  H21  1  0.97731849  0.73695683  0.96817166  1  0  0.428565  0  0.861365  0  0  0.396773  0  0.934714  0  0  0.409461  0  0.916847  0  0  0.305883  0.387897  0  0.946323  0
H  H22  1  0.20566586  0.16379344  0.26574856  1  0  0.412112  0  0.806132  0  0  0.384439  0  0.879932  0  0  0.396068  0  0.866167  0  0  0.338314  0.376032  0  0.889942  0
H  H23  1  0.27008007  0.81198976  0.90535341  1  0  0.42487  0  0.88192  0  0  0.393443  0  0.945637  0  0  0.404105  0  0.930146  0  0  0.291294  0.385939  0  0.95653  0
H  H24  1  0.12687350  0.98545151  0.88784953  1  0  0.410141  0  0.892881  0  0  0.380579  0  0.955051  0  0  0.389632  0  0.941688  0  0  0.294312  0.374212  0  0.964443  0
C  C25  1  0.01323543  0.31985807  0.85771464  1  0  0.712674  0  3.81005  0  0  0.667039  0  4.114549  0  0  0.70212  0  4.1037  0  0  0.222476  0.643231  0  4.121285  0
C  C26  1  0.80025145  0.31967509  0.90752485  1  0  -0.220757  0  3.654408  0  0  -0.279067  0  3.911312  0  0  -0.281828  0  3.918136  0  0  -0.077985  -0.277166  0  3.906587  0
C  C27  1  0.59451545  0.68416933  0.83884666  1  0  0.688164  0  3.824245  0  0  0.638952  0  4.135959  0  0  0.673756  0  4.126649  0  0  0.218039  0.615426  0  4.141569  0
C  C28  1  0.53001551  0.50159121  0.84281576  1  0  -0.186074  0  3.644716  0  0  -0.239918  0  3.897808  0  0  -0.241287  0  3.90317  0  0  -0.072388  -0.239071  0  3.894166  0
C  C29  1  0.64698680  0.22484664  0.77257915  1  0  -0.02364  0  3.573107  0  0  -0.080838  0  3.838037  0  0  -0.077373  0  3.847788  0  0  -0.066335  -0.083105  0  3.831319  0
C  C30  1  0.52298308  0.25572555  0.67526813  1  0  -0.023013  0  3.582869  0  0  -0.082537  0  3.849452  0  0  -0.078803  0  3.85989  0  0  -0.068444  -0.084832  0  3.842129  0
C  C31  1  0.72942997  0.13183014  0.50836706  1  0  -0.189177  0  3.630146  0  0  -0.244021  0  3.881348  0  0  -0.245919  0  3.888426  0  0  -0.072642  -0.242783  0  3.876614  0
C  C32  1  0.85055665  0.18556132  0.37044755  1  0  0.686356  0  3.85794  0  0  0.644178  0  4.161003  0  0  0.678376  0  4.150797  0  0  0.214919  0.620912  0  4.167299  0
C  C33  1  0.46097744  0.33195559  0.45996442  1  0  -0.039343  0  3.622425  0  0  -0.100468  0  3.891437  0  0  -0.097398  0  3.901902  0  0  -0.073854  -0.102428  0  3.884238  0
C  C34  1  0.39995481  0.53228391  0.42255277  1  0  -0.049211  0  3.611806  0  0  -0.109184  0  3.875669  0  0  -0.106509  0  3.887386  0  0  -0.075352  -0.110888  0  3.867529  0
C  C35  1  0.51463235  0.83947477  0.34088875  1  0  -0.201935  0  3.612361  0  0  -0.254514  0  3.85425  0  0  -0.257104  0  3.861437  0  0  -0.070982  -0.252648  0  3.84929  0
C  C36  1  0.36661684  0.94813779  0.27049032  1  0  0.725678  0  3.705973  0  0  0.677673  0  4.009812  0  0  0.710072  0  4.000129  0  0  0.250759  0.655413  0  4.016156  0
C  C37  1  0.59879736  0.62202322  0.20341888  1  0  -0.192391  0  3.6009  0  0  -0.249397  0  3.85377  0  0  -0.251779  0  3.861036  0  0  -0.07332  -0.247848  0  3.848976  0
C  C38  1  0.75021120  0.73931141  0.10235319  1  0  0.719542  0  3.770212  0  0  0.668753  0  4.080216  0  0  0.702934  0  4.069381  0  0  0.235195  0.64567  0  4.086823  0
N  N39  1  0.69613281  0.38790838  0.80126206  1  0  -0.192969  0  3.254287  0  0  -0.12181  0  3.504673  0  0  -0.138578  0  3.529289  0  0  -0.346243  -0.11037  0  3.487731  0
N  N40  1  0.61473695  0.29384516  0.53327455  1  0  -0.213988  0  3.213162  0  0  -0.142238  0  3.46869  0  0  -0.159994  0  3.493378  0  0  -0.345886  -0.130017  0  3.451527  0
N  N41  1  0.55955211  0.64806432  0.33608927  1  0  -0.1577  0  3.197947  0  0  -0.080942  0  3.442644  0  0  -0.097773  0  3.467858  0  0  -0.33206  -0.069137  0  3.425002  0
O  O42  1  0.67687176  0.66174816  0.55734041  1  0  -0.802193  0  1.756006  0  0  -0.793705  0  2.054899  0  0  -0.830233  0  2.05713  0  0  -0.571407  -0.7686  0  2.052781  0
O  O43  1  0.97838989  0.40168045  0.54868656  1  0  -0.783319  0  1.697171  0  0  -0.775605  0  1.982084  0  0  -0.811615  0  1.983823  0  0  -0.570319  -0.75095  0  1.980349  0
O  O44  1  0.95327811  0.70008291  0.29940231  1  0  -0.655556  0  1.628412  0  0  -0.652537  0  1.913267  0  0  -0.679813  0  1.909369  0  0  -0.554232  -0.634803  0  1.916209  0
O  O45  1  0.06050227  0.77344708  0.55080947  1  0  -0.605657  0  1.477446  0  0  -0.601613  0  1.728072  0  0  -0.628368  0  1.722239  0  0  -0.511483  -0.584302  0  1.732046  0
O  O46  1  0.07744836  0.44697178  0.75216228  1  0  -0.588564  0  2.058578  0  0  -0.544705  0  2.31177  0  0  -0.574296  0  2.304104  0  0  -0.327288  -0.524412  0  2.316359  0
O  O47  1  0.11725714  0.20542439  0.92225951  1  0  -0.663782  0  1.904737  0  0  -0.617241  0  2.126911  0  0  -0.638399  0  2.112777  0  0  -0.371373  -0.602489  0  2.136079  0
O  O48  1  0.75723621  0.73348528  0.76391367  1  0  -0.595417  0  2.066268  0  0  -0.556614  0  2.326276  0  0  -0.586744  0  2.320126  0  0  -0.332789  -0.535889  0  2.329677  0
O  O49  1  0.49220108  0.77807494  0.90563559  1  0  -0.594848  0  1.949769  0  0  -0.543904  0  2.166313  0  0  -0.566924  0  2.155469  0  0  -0.302069  -0.527942  0  2.173201  0
O  O50  1  0.89387865  0.07672923  0.30462040  1  0  -0.642763  0  1.958058  0  0  -0.604604  0  2.200167  0  0  -0.625322  0  2.186963  0  0  -0.382224  -0.589894  0  2.208625  0
O  O51  1  0.90845521  0.35081518  0.32723838  1  0  -0.615624  0  2.089333  0  0  -0.573486  0  2.343025  0  0  -0.601627  0  2.334496  0  0  -0.344185  -0.553978  0  2.348199  0
O  O52  1  0.75614047  0.90446385  0.08762504  1  0  -0.628183  0  1.974393  0  0  -0.585494  0  2.208018  0  0  -0.607486  0  2.197432  0  0  -0.363752  -0.570349  0  2.214815  0
O  O53  1  0.87108418  0.64932733  0.03122957  1  0  -0.550338  0  2.065351  0  0  -0.49586  0  2.275435  0  0  -0.519243  0  2.257748  0  0  -0.317478  -0.479723  0  2.28647  0
O  O54  1  0.31663383  0.10578967  0.30122176  1  0  -0.535096  0  2.024139  0  0  -0.482868  0  2.228554  0  0  -0.503947  0  2.212405  0  0  -0.322611  -0.468047  0  2.239422  0
O  O55  1  0.30019992  0.90494019  0.19394111  1  0  -0.575355  0  1.976169  0  0  -0.535984  0  2.203102  0  0  -0.555376  0  2.191235  0  0  -0.345343  -0.522597  0  2.211137  0
O  O56  1  0.13837659  0.85474361  0.89406234  1  0  -0.829109  0  1.833183  0  0  -0.77632  0  1.978919  0  0  -0.794541  0  1.947411  0  0  -0.58356  -0.763535  0  2.000601  0
