# generated using pymatgen
data_CuMoH4C5NO4
_symmetry_space_group_name_H-M   'P 1'
_cell_length_a   5.47434217
_cell_length_b   6.80303663
_cell_length_c   10.74780294
_cell_angle_alpha   73.58407005
_cell_angle_beta   78.83099680
_cell_angle_gamma   70.03761788
_symmetry_Int_Tables_number   1
_chemical_formula_structural   CuMoH4C5NO4
_chemical_formula_sum   'Cu2 Mo2 H8 C10 N2 O8'
_cell_volume   358.78104247
_cell_formula_units_Z   2
loop_
 _symmetry_equiv_pos_site_id
 _symmetry_equiv_pos_as_xyz
  1  'x, y, z'
loop_
 _atom_site_type_symbol
 _atom_site_label
 _atom_site_symmetry_multiplicity
 _atom_site_fract_x
 _atom_site_fract_y
 _atom_site_fract_z
 _atom_site_occupancy
 _atom_site_hle17_ddec_charge
 _atom_site_hle17_ddec_spin_density
 _atom_site_hle17_ddec_sum_bond_order
 _atom_site_hle17_magmom
 _atom_site_hse06_10hf_ddec_charge
 _atom_site_hse06_10hf_ddec_spin_density
 _atom_site_hse06_10hf_ddec_sum_bond_order
 _atom_site_hse06_10hf_magmom
 _atom_site_hse06_ddec_charge
 _atom_site_hse06_ddec_spin_density
 _atom_site_hse06_ddec_sum_bond_order
 _atom_site_hse06_magmom
 _atom_site_pbe_cm5_charge
 _atom_site_pbe_ddec_charge
 _atom_site_pbe_ddec_spin_density
 _atom_site_pbe_ddec_sum_bond_order
 _atom_site_pbe_magmom
Cu  Cu0  1  0.58975641  0.29831296  0.10498989  1  1.050192  0.66373  1.851767  0.488  1.075422  0.776806  2.244863  0.631  1.16204  0.866018  2.172726  0.727  0.724829  1.013616  0.673956  2.304246  0.538
Cu  Cu1  1  0.41024768  0.70169259  0.89501176  1  1.050193  -0.663738  1.851789  -0.488  1.07545  -0.776809  2.244861  -0.631  1.162043  -0.866019  2.172748  -0.727  0.724794  1.013613  -0.673971  2.30421  -0.538
Mo  Mo2  1  0.74602673  0.76212224  0.09164874  1  2.163329  0.004427  4.16045  0.006  2.166113  0.013168  4.748448  0.018  2.278963  0.010417  4.705611  0.015  1.482347  2.08668  0.013569  4.776756  0.018
Mo  Mo3  1  0.25397853  0.23788011  0.90835057  1  2.163344  -0.004427  4.160163  -0.006  2.166155  -0.013173  4.748119  -0.018  2.279  -0.010412  4.705286  -0.015  1.482401  2.086726  -0.013573  4.776425  -0.018
H  H4  1  0.01279698  0.06795547  0.26806034  1  0.106517  0.001421  0.941057  0.002  0.115363  0.001105  1.00252  0.002  0.117065  0.000786  1.000413  0.001  0.124775  0.113655  0.001223  1.004512  0.002
H  H5  1  0.98721216  0.93205652  0.73193780  1  0.106496  -0.001422  0.941095  -0.002  0.11535  -0.001104  1.002533  -0.002  0.117054  -0.000786  1.000425  -0.001  0.124792  0.113643  -0.001223  1.004524  -0.002
H  H6  1  0.23983629  0.43254985  0.32014552  1  0.106191  0.00105  0.969258  0.002  0.112274  0.000781  1.036726  0.002  0.1154  0.000524  1.032244  0.001  0.116848  0.109718  0.000917  1.040069  0.002
H  H7  1  0.76015720  0.56745414  0.67984722  1  0.10627  -0.00105  0.96929  -0.002  0.112307  -0.00078  1.036787  -0.002  0.115434  -0.000523  1.032305  -0.001  0.116857  0.109759  -0.000915  1.040119  -0.002
H  H8  1  0.25173416  0.35552815  0.56483211  1  0.119833  0.000491  0.958777  0.001  0.131777  0.000452  1.012371  0.001  0.134614  0.000309  1.011939  0.0  0.108227  0.129579  0.000546  1.01303  0.001
H  H9  1  0.74825672  0.64446778  0.43516511  1  0.119812  -0.000492  0.958824  -0.001  0.131797  -0.000451  1.012379  -0.001  0.134631  -0.000308  1.011948  0.0  0.108221  0.129598  -0.000546  1.013023  -0.001
H  H10  1  0.65485064  0.12065759  0.66008397  1  0.106496  0.000292  0.96132  0.001  0.116689  -8.5e-05  1.023753  0.0  0.119398  -9.4e-05  1.021435  0.0  0.110244  0.114564  -3.6e-05  1.025617  0.0
H  H11  1  0.34514136  0.87933031  0.33991177  1  0.106451  -0.000296  0.961267  -0.001  0.116648  8.6e-05  1.0237  0.0  0.119361  9.4e-05  1.021382  0.0  0.110219  0.114518  3.6e-05  1.025568  0.0
C  C12  1  0.85196705  0.12398125  0.33978937  1  0.099278  -0.01039  3.615021  -0.011  0.065758  -0.001624  3.8666  -0.003  0.073519  -0.002759  3.885812  -0.004  0.059764  0.060672  -0.000571  3.854021  -0.001
C  C13  1  0.14803390  0.87602271  0.66020915  1  0.099284  0.010383  3.615127  0.011  0.065767  0.001626  3.866714  0.003  0.073522  0.002772  3.885925  0.004  0.059756  0.060677  0.000572  3.854135  0.001
C  C14  1  0.41520695  0.33167143  0.36777707  1  0.111548  -0.008975  3.66235  -0.009  0.081126  -0.000906  3.92233  -0.001  0.089432  -0.002234  3.940085  -0.003  0.046456  0.075868  3.8e-05  3.910425  0.0
C  C15  1  0.58479689  0.66831967  0.63222252  1  0.111438  0.008976  3.66229  0.009  0.081072  0.000907  3.922264  0.001  0.089375  0.002236  3.940015  0.003  0.046473  0.075815  -3.7e-05  3.910354  0.0
C  C16  1  0.87589816  0.07127998  0.47390409  1  0.004737  0.010474  3.767979  0.012  0.023409  0.003432  3.997231  0.004  0.018427  0.00328  4.023928  0.004  0.001435  0.026547  0.003233  3.97965  0.004
C  C17  1  0.12410069  0.92870950  0.52609628  1  0.004806  -0.010468  3.768065  -0.012  0.023528  -0.003434  3.997267  -0.004  0.018552  -0.003292  4.023966  -0.004  0.001488  0.026666  -0.003233  3.979682  -0.004
C  C18  1  0.42321068  0.28851339  0.50154508  1  -0.105638  0.012088  3.74458  0.013  -0.116266  0.004377  3.992646  0.005  -0.123761  0.003951  4.016051  0.005  -0.080705  -0.111532  0.004262  3.977619  0.005
C  C19  1  0.57678572  0.71147770  0.49845618  1  -0.105605  -0.012085  3.744695  -0.013  -0.116281  -0.004377  3.992726  -0.005  -0.123772  -0.003958  4.016134  -0.005  -0.08071  -0.111543  -0.00426  3.977698  -0.005
C  C20  1  0.65308025  0.15756816  0.55478577  1  -0.046785  -0.011433  3.674927  -0.011  -0.073966  -0.003267  3.92208  -0.003  -0.071478  -0.003487  3.941248  -0.004  -0.062261  -0.0758  -0.002826  3.909902  -0.003
C  C21  1  0.34691488  0.84242131  0.44521775  1  -0.04678  0.01144  3.674988  0.011  -0.073975  0.003269  3.922151  0.003  -0.071471  0.003496  3.941278  0.004  -0.062258  -0.075802  0.002827  3.909957  0.003
N  N22  1  0.62752942  0.24815381  0.29011948  1  -0.294377  0.077566  3.385576  0.099  -0.251747  0.054162  3.68827  0.074  -0.283536  0.045145  3.710392  0.065  -0.352405  -0.231423  0.055336  3.674538  0.073
N  N23  1  0.37246781  0.75185013  0.70988313  1  -0.294346  -0.077562  3.385404  -0.099  -0.25175  -0.054162  3.688116  -0.074  -0.283529  -0.045149  3.710236  -0.065  -0.352426  -0.231422  -0.055332  3.674353  -0.073
O  O24  1  0.54614319  0.01958796  0.12400484  1  -0.917563  0.057885  1.754289  0.077  -0.921004  0.038018  2.089266  0.054  -0.971576  0.030272  2.071571  0.044  -0.588673  -0.884061  0.040457  2.101054  0.055
O  O25  1  0.45386081  0.98041276  0.87599860  1  -0.917619  -0.057883  1.754363  -0.077  -0.921071  -0.038015  2.089357  -0.054  -0.971635  -0.03027  2.071655  -0.044  -0.588712  -0.884114  -0.040452  2.101107  -0.055
O  O26  1  0.53537428  0.61086901  0.06952680  1  -0.922828  0.001973  1.852915  0.003  -0.93995  0.003148  2.223929  0.004  -1.002897  0.002155  2.204164  0.003  -0.587841  -0.893578  0.004485  2.23657  0.006
O  O27  1  0.46462370  0.38914297  0.93047524  1  -0.922836  -0.001975  1.852794  -0.003  -0.939969  -0.003149  2.223819  -0.004  -1.002922  -0.002155  2.204061  -0.003  -0.587836  -0.893592  -0.004483  2.236456  -0.006
O  O28  1  0.98641259  0.78628563  0.96001694  1  -0.831538  0.011511  1.611588  0.013  -0.846362  0.006297  1.932968  0.008  -0.886484  0.004555  1.91615  0.006  -0.561509  -0.817869  0.007617  1.944563  0.01
O  O29  1  0.01358598  0.21372475  0.03998347  1  -0.831567  -0.011511  1.61154  -0.013  -0.846378  -0.006296  1.932912  -0.008  -0.886503  -0.004561  1.916097  -0.006  -0.561524  -0.8179  -0.007616  1.944536  -0.01
O  O30  1  0.90199501  0.61336159  0.22938495  1  -0.749395  0.002415  1.443264  0.004  -0.738658  0.001423  1.696326  0.003  -0.769152  0.000719  1.683446  0.002  -0.54153  -0.716654  0.001607  1.704705  0.003
O  O31  1  0.09801346  0.38664718  0.77061383  1  -0.749338  -0.002416  1.44308  -0.004  -0.738627  -0.001422  1.696144  -0.003  -0.769112  -0.000722  1.683261  -0.002  -0.541535  -0.716624  -0.001604  1.704521  -0.003
