# generated using pymatgen
data_PrH14C12N3O10
_symmetry_space_group_name_H-M   'P 1'
_cell_length_a   8.39942754
_cell_length_b   9.41318392
_cell_length_c   10.80782868
_cell_angle_alpha   106.35871592
_cell_angle_beta   99.17799751
_cell_angle_gamma   93.65201071
_symmetry_Int_Tables_number   1
_chemical_formula_structural   PrH14C12N3O10
_chemical_formula_sum   'Pr2 H28 C24 N6 O20'
_cell_volume   804.09471840
_cell_formula_units_Z   2
loop_
 _symmetry_equiv_pos_site_id
 _symmetry_equiv_pos_as_xyz
  1  'x, y, z'
loop_
 _atom_site_type_symbol
 _atom_site_label
 _atom_site_symmetry_multiplicity
 _atom_site_fract_x
 _atom_site_fract_y
 _atom_site_fract_z
 _atom_site_occupancy
 _atom_site_hle17_bader_spin_density
 _atom_site_hle17_ddec_charge
 _atom_site_hle17_ddec_spin_density
 _atom_site_hle17_ddec_sum_bond_order
 _atom_site_hle17_magmom
 _atom_site_hse06_10hf_bader_spin_density
 _atom_site_hse06_10hf_ddec_charge
 _atom_site_hse06_10hf_ddec_spin_density
 _atom_site_hse06_10hf_ddec_sum_bond_order
 _atom_site_hse06_10hf_magmom
 _atom_site_hse06_bader_spin_density
 _atom_site_hse06_ddec_charge
 _atom_site_hse06_ddec_spin_density
 _atom_site_hse06_ddec_sum_bond_order
 _atom_site_hse06_magmom
 _atom_site_pbe_bader_spin_density
 _atom_site_pbe_cm5_charge
 _atom_site_pbe_ddec_charge
 _atom_site_pbe_ddec_spin_density
 _atom_site_pbe_ddec_sum_bond_order
 _atom_site_pbe_magmom
Pr  Pr0  1  0.75256998  0.98812325  0.50651063  1  0  2.333646  0  1.662174  0  0  2.182213  0  2.118553  0  0  2.264288  0  1.99587  0  0  1.50873  2.151075  0  2.152636  0
Pr  Pr1  1  0.24743101  0.01187511  0.49349080  1  0  2.33364  0  1.662204  0  0  2.182215  0  2.118569  0  0  2.264276  0  1.995904  0  0  1.508749  2.151076  0  2.152655  0
H  H2  1  0.95390089  0.27397095  0.83658911  1  0  0.128329  0  0.946328  0  0  0.135829  0  1.014303  0  0  0.138941  0  1.011567  0  0  0.128282  0.133508  0  1.016439  0
H  H3  1  0.04609910  0.72602854  0.16340969  1  0  0.128327  0  0.946349  0  0  0.135815  0  1.014324  0  0  0.138927  0  1.011591  0  0  0.128278  0.133492  0  1.016453  0
H  H4  1  0.00056444  0.11692300  0.88973789  1  0  0.117085  0  0.902141  0  0  0.132723  0  0.956691  0  0  0.134966  0  0.954734  0  0  0.126795  0.131176  0  0.957958  0
H  H5  1  0.99943308  0.88307646  0.11026241  1  0  0.117088  0  0.902168  0  0  0.132724  0  0.956712  0  0  0.134968  0  0.954757  0  0  0.126802  0.131173  0  0.957976  0
H  H6  1  0.35023664  0.17224757  0.01777226  1  0  0.139805  0  0.890856  0  0  0.151697  0  0.94735  0  0  0.1547  0  0.944984  0  0  0.128709  0.149364  0  0.94933  0
H  H7  1  0.64975990  0.82775410  0.98223030  1  0  0.139826  0  0.890807  0  0  0.151709  0  0.947315  0  0  0.154715  0  0.944946  0  0  0.128696  0.149374  0  0.949299  0
H  H8  1  0.17596130  0.16168522  0.08720049  1  0  0.107109  0  0.915353  0  0  0.12113  0  0.975321  0  0  0.123338  0  0.973396  0  0  0.123471  0.119506  0  0.976687  0
H  H9  1  0.82403755  0.83831536  0.91280120  1  0  0.107128  0  0.915348  0  0  0.121162  0  0.975301  0  0  0.123372  0  0.973378  0  0  0.123483  0.119538  0  0.976667  0
H  H10  1  0.43216886  0.57891527  0.04809982  1  0  0.099767  0  0.914755  0  0  0.114728  0  0.971613  0  0  0.116406  0  0.970389  0  0  0.117591  0.113435  0  0.972716  0
H  H11  1  0.56783325  0.42108199  0.95189964  1  0  0.099834  0  0.914683  0  0  0.114735  0  0.971591  0  0  0.116416  0  0.970367  0  0  0.117593  0.113443  0  0.972693  0
H  H12  1  0.27386378  0.65576089  0.12368201  1  0  0.116167  0  0.925655  0  0  0.131239  0  0.981485  0  0  0.133812  0  0.979345  0  0  0.128591  0.129792  0  0.982171  0
H  H13  1  0.72614011  0.34424084  0.87631696  1  0  0.116153  0  0.925677  0  0  0.131231  0  0.981474  0  0  0.133807  0  0.979329  0  0  0.12861  0.129784  0  0.982162  0
H  H14  1  0.58750137  0.63377946  0.29867053  1  0  0.122593  0  0.954157  0  0  0.131421  0  1.021644  0  0  0.133738  0  1.020501  0  0  0.124097  0.129569  0  1.022886  0
H  H15  1  0.41249996  0.36622115  0.70132873  1  0  0.122571  0  0.954099  0  0  0.131394  0  1.021596  0  0  0.133712  0  1.02045  0  0  0.124077  0.129543  0  1.022838  0
H  H16  1  0.48781479  0.53980312  0.39224385  1  0  0.129606  0  0.918131  0  0  0.140519  0  0.97888  0  0  0.144272  0  0.975215  0  0  0.132002  0.137921  0  0.981395  0
H  H17  1  0.51218772  0.46019749  0.60775650  1  0  0.129604  0  0.918136  0  0  0.140531  0  0.978867  0  0  0.144283  0  0.975203  0  0  0.132019  0.137933  0  0.981382  0
H  H18  1  0.86895520  0.54000593  0.31124794  1  0  0.131044  0  0.938783  0  0  0.140279  0  1.000171  0  0  0.14338  0  0.998169  0  0  0.125915  0.137939  0  1.001825  0
H  H19  1  0.13104374  0.45999467  0.68875006  1  0  0.130988  0  0.938767  0  0  0.14023  0  1.000132  0  0  0.143331  0  0.99813  0  0  0.125899  0.137901  0  1.00179  0
H  H20  1  0.74152710  0.46077763  0.39656098  1  0  0.116412  0  0.904225  0  0  0.129937  0  0.961268  0  0  0.132086  0  0.960029  0  0  0.12577  0.128331  0  0.962267  0
H  H21  1  0.25847047  0.53922185  0.60343748  1  0  0.116398  0  0.904254  0  0  0.129923  0  0.961278  0  0  0.132072  0  0.960038  0  0  0.125759  0.128325  0  0.962287  0
H  H22  1  0.10402004  0.70003933  0.81750495  1  0  0.117041  0  0.95179  0  0  0.126149  0  1.017628  0  0  0.1291  0  1.014762  0  0  0.112732  0.124104  0  1.019621  0
H  H23  1  0.89597765  0.29996125  0.18249472  1  0  0.117059  0  0.951754  0  0  0.126171  0  1.01759  0  0  0.129122  0  1.014725  0  0  0.112736  0.124124  0  1.019583  0
H  H24  1  0.98890505  0.81916713  0.74343394  1  0  0.107888  0  0.938029  0  0  0.120036  0  1.00262  0  0  0.12239  0  1.001263  0  0  0.122645  0.118068  0  1.004116  0
H  H25  1  0.01109251  0.18083234  0.25656544  1  0  0.107895  0  0.938027  0  0  0.120045  0  1.002612  0  0  0.122397  0  1.001259  0  0  0.122642  0.118077  0  1.004108  0
H  H26  1  0.59048537  0.01656950  0.75599413  1  0  0.443009  0  0.809591  0  0  0.42158  0  0.871329  0  0  0.431164  0  0.857278  0  0  0.32772  0.414845  0  0.880343  0
H  H27  1  0.40951102  0.98342998  0.24400324  1  0  0.442987  0  0.809629  0  0  0.421555  0  0.871366  0  0  0.431141  0  0.857314  0  0  0.327704  0.414821  0  0.880381  0
H  H28  1  0.65429150  0.86188004  0.71815257  1  0  0.429018  0  0.88318  0  0  0.396312  0  0.95011  0  0  0.407822  0  0.933665  0  0  0.294205  0.388592  0  0.961262  0
H  H29  1  0.34570752  0.13812166  0.28184757  1  0  0.429009  0  0.883179  0  0  0.396282  0  0.95014  0  0  0.40779  0  0.933698  0  0  0.29421  0.388561  0  0.961293  0
C  C30  1  0.12359087  0.15276712  0.73949706  1  0  0.725735  0  3.828737  0  0  0.68029  0  4.126394  0  0  0.712557  0  4.122342  0  0  0.220737  0.657812  0  4.131998  0
C  C31  1  0.87640907  0.84723235  0.26050358  1  0  0.72575  0  3.828693  0  0  0.680282  0  4.126372  0  0  0.712544  0  4.122336  0  0  0.220723  0.657798  0  4.131974  0
C  C32  1  0.05312433  0.21129412  0.86287121  1  0  -0.153153  0  3.636049  0  0  -0.211331  0  3.884757  0  0  -0.211196  0  3.89079  0  0  -0.047793  -0.211307  0  3.880713  0
C  C33  1  0.94687588  0.78870758  0.13713002  1  0  -0.153234  0  3.636144  0  0  -0.211357  0  3.884852  0  0  -0.21123  0  3.890899  0  0  -0.047815  -0.211309  0  3.88078  0
C  C34  1  0.26035059  0.23998633  0.06348539  1  0  -0.133325  0  3.645873  0  0  -0.191121  0  3.900586  0  0  -0.190658  0  3.907469  0  0  -0.041852  -0.191532  0  3.896032  0
C  C35  1  0.73965065  0.76001425  0.93651755  1  0  -0.13337  0  3.645936  0  0  -0.191175  0  3.900624  0  0  -0.190721  0  3.907512  0  0  -0.041839  -0.191583  0  3.89607  0
C  C36  1  0.34576525  0.34892100  0.19184311  1  0  0.527106  0  3.775957  0  0  0.473032  0  4.075126  0  0  0.501397  0  4.076165  0  0  0.255086  0.45414  0  4.073925  0
C  C37  1  0.65423509  0.65108181  0.80815842  1  0  0.526947  0  3.776179  0  0  0.473019  0  4.075157  0  0  0.501387  0  4.076195  0  0  0.255065  0.454128  0  4.073952  0
C  C38  1  0.19902962  0.45155343  0.97717869  1  0  0.513385  0  3.826573  0  0  0.461966  0  4.134487  0  0  0.490674  0  4.133743  0  0  0.241625  0.442679  0  4.134516  0
C  C39  1  0.80097059  0.54844827  0.02282254  1  0  0.513504  0  3.826533  0  0  0.462142  0  4.134357  0  0  0.490852  0  4.133612  0  0  0.241681  0.442856  0  4.134388  0
C  C40  1  0.32552563  0.55095168  0.08818461  1  0  -0.121862  0  3.664273  0  0  -0.182864  0  3.922241  0  0  -0.181394  0  3.927691  0  0  -0.045381  -0.183958  0  3.918308  0
C  C41  1  0.67447557  0.44904781  0.91181436  1  0  -0.121979  0  3.664302  0  0  -0.182916  0  3.922175  0  0  -0.181452  0  3.927634  0  0  -0.045418  -0.184011  0  3.918241  0
C  C42  1  0.46878100  0.59737227  0.31658284  1  0  -0.166712  0  3.635021  0  0  -0.225849  0  3.883244  0  0  -0.226241  0  3.888426  0  0  -0.051993  -0.225448  0  3.879279  0
C  C43  1  0.53122030  0.40262832  0.68341734  1  0  -0.16666  0  3.634928  0  0  -0.22581  0  3.883153  0  0  -0.226207  0  3.888346  0  0  -0.051983  -0.22541  0  3.87919  0
C  C44  1  0.38666512  0.73423833  0.36930028  1  0  0.723533  0  3.838577  0  0  0.679854  0  4.132973  0  0  0.712923  0  4.127731  0  0  0.219336  0.657869  0  4.137633  0
C  C45  1  0.61333621  0.26576228  0.63069898  1  0  0.723543  0  3.838562  0  0  0.67987  0  4.132943  0  0  0.71294  0  4.1277  0  0  0.219347  0.657885  0  4.137603  0
C  C46  1  0.91851455  0.63364242  0.51861676  1  0  0.558963  0  3.759026  0  0  0.509828  0  4.053267  0  0  0.540798  0  4.051057  0  0  0.268625  0.488868  0  4.054927  0
C  C47  1  0.08148423  0.36635706  0.48138186  1  0  0.55892  0  3.759015  0  0  0.50979  0  4.053236  0  0  0.540769  0  4.051013  0  0  0.268602  0.488844  0  4.054906  0
C  C48  1  0.86828040  0.50103342  0.39815325  1  0  -0.139119  0  3.6275  0  0  -0.192582  0  3.871276  0  0  -0.192872  0  3.877758  0  0  -0.041831  -0.192001  0  3.866588  0
C  C49  1  0.13171838  0.49896606  0.60184537  1  0  -0.139059  0  3.62747  0  0  -0.19249  0  3.871155  0  0  -0.19278  0  3.877632  0  0  -0.0418  -0.191965  0  3.866535  0
C  C50  1  0.08709619  0.74725989  0.73502896  1  0  -0.167964  0  3.602603  0  0  -0.227548  0  3.851257  0  0  -0.227411  0  3.857059  0  0  -0.062386  -0.227387  0  3.847216  0
C  C51  1  0.91290380  0.25273959  0.26496984  1  0  -0.168015  0  3.602603  0  0  -0.227598  0  3.851251  0  0  -0.227463  0  3.857056  0  0  -0.0624  -0.227429  0  3.847206  0
C  C52  1  0.24318384  0.84798454  0.74165588  1  0  0.697878  0  3.895992  0  0  0.657601  0  4.198686  0  0  0.689215  0  4.193134  0  0  0.203887  0.636203  0  4.202251  0
C  C53  1  0.75681708  0.15201272  0.25834249  1  0  0.697916  0  3.89609  0  0  0.65766  0  4.198734  0  0  0.689276  0  4.193174  0  0  0.203906  0.636259  0  4.202302  0
N  N54  1  0.16933678  0.30746637  0.97281082  1  0  -0.161645  0  3.451885  0  0  -0.084395  0  3.693641  0  0  -0.103883  0  3.714977  0  0  -0.271337  -0.071185  0  3.678697  0
N  N55  1  0.83066233  0.69253643  0.02719145  1  0  -0.161644  0  3.451869  0  0  -0.084479  0  3.693707  0  0  -0.103959  0  3.715033  0  0  -0.27138  -0.07128  0  3.678768  0
N  N56  1  0.37385621  0.49319354  0.19806447  1  0  -0.152897  0  3.443098  0  0  -0.071587  0  3.682692  0  0  -0.090712  0  3.703414  0  0  -0.268191  -0.058975  0  3.668343  0
N  N57  1  0.62614509  0.50680706  0.80193571  1  0  -0.152904  0  3.443193  0  0  -0.071625  0  3.682707  0  0  -0.09075  0  3.703432  0  0  -0.268213  -0.059014  0  3.668358  0
N  N58  1  0.03669502  0.62497925  0.61378032  1  0  -0.130541  0  3.419407  0  0  -0.051944  0  3.653142  0  0  -0.070571  0  3.672851  0  0  -0.254723  -0.039678  0  3.639437  0
N  N59  1  0.96330253  0.37502021  0.38621906  1  0  -0.130543  0  3.419408  0  0  -0.05194  0  3.653159  0  0  -0.070571  0  3.672866  0  0  -0.254737  -0.03969  0  3.639437  0
O  O60  1  0.02614557  0.06433333  0.63871439  1  0  -0.848831  0  2.124505  0  0  -0.790282  0  2.394018  0  0  -0.824842  0  2.382247  0  0  -0.453256  -0.772544  0  2.401876  0
O  O61  1  0.97385437  0.93566614  0.36128625  1  0  -0.848814  0  2.124466  0  0  -0.790261  0  2.394001  0  0  -0.824816  0  2.382233  0  0  -0.453226  -0.772522  0  2.401862  0
O  O62  1  0.26857762  0.18881950  0.73532338  1  0  -0.660357  0  1.97847  0  0  -0.61865  0  2.21866  0  0  -0.6448  0  2.210336  0  0  -0.339358  -0.603008  0  2.224196  0
O  O63  1  0.73142335  0.81117885  0.26467897  1  0  -0.66035  0  1.978403  0  0  -0.618644  0  2.218624  0  0  -0.644796  0  2.21031  0  0  -0.339374  -0.603003  0  2.224162  0
O  O64  1  0.12725814  0.50557337  0.89438459  1  0  -0.54399  0  1.942926  0  0  -0.506128  0  2.170983  0  0  -0.526387  0  2.164396  0  0  -0.299754  -0.492215  0  2.175194  0
O  O65  1  0.87274066  0.49442611  0.10561312  1  0  -0.544008  0  1.942981  0  0  -0.506177  0  2.171033  0  0  -0.526438  0  2.164445  0  0  -0.299753  -0.492265  0  2.175247  0
O  O66  1  0.39214456  0.30428915  0.28890443  1  0  -0.536622  0  1.994536  0  0  -0.48834  0  2.215961  0  0  -0.51048  0  2.209368  0  0  -0.278782  -0.473856  0  2.220264  0
O  O67  1  0.60785683  0.69571255  0.71109788  1  0  -0.536456  0  1.994525  0  0  -0.488323  0  2.215984  0  0  -0.51046  0  2.209389  0  0  -0.278774  -0.473839  0  2.220286  0
O  O68  1  0.23513608  0.73375355  0.34578662  1  0  -0.644951  0  1.934125  0  0  -0.601823  0  2.166122  0  0  -0.627965  0  2.157165  0  0  -0.339779  -0.586004  0  2.17089  0
O  O69  1  0.76486527  0.26624706  0.65421172  1  0  -0.644967  0  1.934152  0  0  -0.601838  0  2.16615  0  0  -0.62798  0  2.157192  0  0  -0.339779  -0.586018  0  2.170917  0
O  O70  1  0.48085334  0.85185530  0.43985988  1  0  -0.827638  0  2.147975  0  0  -0.767871  0  2.413544  0  0  -0.801217  0  2.39958  0  0  -0.45309  -0.750857  0  2.421572  0
O  O71  1  0.51914675  0.14814529  0.56014013  1  0  -0.82764  0  2.147994  0  0  -0.767877  0  2.413564  0  0  -0.801223  0  2.399602  0  0  -0.453089  -0.750862  0  2.421591  0
O  O72  1  0.84227900  0.74589925  0.52638428  1  0  -0.675778  0  2.032433  0  0  -0.63572  0  2.303083  0  0  -0.662703  0  2.291338  0  0  -0.367053  -0.620557  0  2.309903  0
O  O73  1  0.15771960  0.25409910  0.47361589  1  0  -0.675717  0  2.032433  0  0  -0.635673  0  2.303087  0  0  -0.662655  0  2.291337  0  0  -0.366996  -0.620508  0  2.3099  0
O  O74  1  0.27497028  0.85576310  0.63082376  1  0  -0.792976  0  2.050725  0  0  -0.741578  0  2.315265  0  0  -0.772094  0  2.302313  0  0  -0.44983  -0.723626  0  2.322442  0
O  O75  1  0.72502864  0.14423749  0.36917516  1  0  -0.792973  0  2.050631  0  0  -0.741603  0  2.315213  0  0  -0.77212  0  2.302257  0  0  -0.44983  -0.723652  0  2.322392  0
O  O76  1  0.32135899  0.91719469  0.85267125  1  0  -0.613585  0  1.835037  0  0  -0.576419  0  2.040054  0  0  -0.598091  0  2.031539  0  0  -0.338155  -0.560595  0  2.045035  0
O  O77  1  0.67864642  0.08280034  0.14732998  1  0  -0.613601  0  1.835162  0  0  -0.576452  0  2.040193  0  0  -0.598127  0  2.031675  0  0  -0.338163  -0.56063  0  2.045181  0
O  O78  1  0.68251132  0.97037730  0.72347155  1  0  -0.913182  0  1.802245  0  0  -0.872309  0  1.999734  0  0  -0.894419  0  1.964507  0  0  -0.63201  -0.860026  0  2.020314  0
O  O79  1  0.31748649  0.02962439  0.27652842  1  0  -0.913145  0  1.80224  0  0  -0.872272  0  1.999744  0  0  -0.89438  0  1.964516  0  0  -0.632012  -0.859985  0  2.020333  0
