# generated using pymatgen
data_CaH12C6S2N4O9
_symmetry_space_group_name_H-M   'P 1'
_cell_length_a   5.89708285
_cell_length_b   9.21965488
_cell_length_c   13.01006132
_cell_angle_alpha   74.79177751
_cell_angle_beta   88.29075761
_cell_angle_gamma   79.39137876
_symmetry_Int_Tables_number   1
_chemical_formula_structural   CaH12C6S2N4O9
_chemical_formula_sum   'Ca2 H24 C12 S4 N8 O18'
_cell_volume   670.77894809
_cell_formula_units_Z   2
loop_
 _symmetry_equiv_pos_site_id
 _symmetry_equiv_pos_as_xyz
  1  'x, y, z'
loop_
 _atom_site_type_symbol
 _atom_site_label
 _atom_site_symmetry_multiplicity
 _atom_site_fract_x
 _atom_site_fract_y
 _atom_site_fract_z
 _atom_site_occupancy
 _atom_site_hle17_bader_spin_density
 _atom_site_hle17_ddec_charge
 _atom_site_hle17_ddec_spin_density
 _atom_site_hle17_ddec_sum_bond_order
 _atom_site_hle17_magmom
 _atom_site_hse06_10hf_bader_spin_density
 _atom_site_hse06_10hf_ddec_charge
 _atom_site_hse06_10hf_ddec_spin_density
 _atom_site_hse06_10hf_ddec_sum_bond_order
 _atom_site_hse06_10hf_magmom
 _atom_site_hse06_bader_spin_density
 _atom_site_hse06_ddec_charge
 _atom_site_hse06_ddec_spin_density
 _atom_site_hse06_ddec_sum_bond_order
 _atom_site_hse06_magmom
 _atom_site_pbe_bader_spin_density
 _atom_site_pbe_cm5_charge
 _atom_site_pbe_ddec_charge
 _atom_site_pbe_ddec_spin_density
 _atom_site_pbe_ddec_sum_bond_order
 _atom_site_pbe_magmom
Ca  Ca0  1  0.18676707  0.05266320  0.70075599  1  0  1.578032  0  1.041631  0  0  1.446799  0  1.386626  0  0  1.485294  0  1.344316  0  0  0.873706  1.415751  0  1.418854  0
Ca  Ca1  1  0.81323336  0.94733468  0.29924489  1  0  1.578025  0  1.041653  0  0  1.446797  0  1.386658  0  0  1.4853  0  1.344344  0  0  0.873705  1.415748  0  1.418885  0
H  H2  1  0.64259977  0.30458044  0.68464172  1  0  0.296313  0  0.913653  0  0  0.275904  0  0.975105  0  0  0.284131  0  0.968634  0  0  0.330689  0.270099  0  0.979802  0
H  H3  1  0.35740198  0.69541291  0.31535764  1  0  0.296362  0  0.913611  0  0  0.275944  0  0.975046  0  0  0.284169  0  0.968576  0  0  0.33071  0.270137  0  0.979744  0
H  H4  1  0.59789770  0.78216955  0.83018298  1  0  0.301165  0  0.898254  0  0  0.280308  0  0.960021  0  0  0.288818  0  0.953193  0  0  0.332472  0.274189  0  0.965211  0
H  H5  1  0.40210112  0.21783404  0.16981691  1  0  0.301185  0  0.898239  0  0  0.280334  0  0.959998  0  0  0.288845  0  0.953167  0  0  0.332477  0.274213  0  0.965187  0
H  H6  1  0.59681863  0.59566191  0.61915761  1  0  0.131869  0  0.954993  0  0  0.140794  0  1.018048  0  0  0.1439  0  1.01524  0  0  0.131225  0.138403  0  1.020262  0
H  H7  1  0.40319665  0.40433143  0.38084392  1  0  0.131907  0  0.954968  0  0  0.140849  0  1.017999  0  0  0.143955  0  1.015191  0  0  0.131234  0.138454  0  1.020211  0
H  H8  1  0.95339107  0.43285956  0.61182360  1  0  0.102366  0  0.966702  0  0  0.109775  0  1.034199  0  0  0.112235  0  1.031986  0  0  0.124713  0.108097  0  1.035679  0
H  H9  1  0.04661418  0.56714514  0.38817834  1  0  0.102334  0  0.966728  0  0  0.109774  0  1.034202  0  0  0.112235  0  1.031988  0  0  0.124692  0.108093  0  1.035696  0
H  H10  1  0.95577720  0.57726700  0.82849306  1  0  0.120138  0  0.947275  0  0  0.130631  0  1.009372  0  0  0.133412  0  1.00664  0  0  0.132932  0.128406  0  1.011626  0
H  H11  1  0.04422774  0.42273888  0.17150714  1  0  0.120181  0  0.947287  0  0  0.130674  0  1.009375  0  0  0.133451  0  1.006653  0  0  0.132963  0.12845  0  1.011627  0
H  H12  1  0.54751269  0.03644058  0.87187448  1  0  0.440925  0  0.849253  0  0  0.411757  0  0.908167  0  0  0.421985  0  0.893291  0  0  0.306802  0.404223  0  0.919132  0
H  H13  1  0.45248000  0.96356071  0.12812588  1  0  0.440956  0  0.849206  0  0  0.411767  0  0.90815  0  0  0.421994  0  0.893277  0  0  0.306834  0.404233  0  0.919116  0
H  H14  1  0.36972267  0.93588011  0.92331506  1  0  0.436031  0  0.862236  0  0  0.403196  0  0.929008  0  0  0.4136  0  0.913788  0  0  0.302554  0.395683  0  0.940034  0
H  H15  1  0.63026833  0.06412120  0.07668454  1  0  0.43597  0  0.862324  0  0  0.403116  0  0.929135  0  0  0.413522  0  0.913909  0  0  0.302528  0.395594  0  0.940171  0
H  H16  1  0.97124359  0.85679997  0.90176385  1  0  0.42501  0  0.863904  0  0  0.396467  0  0.928695  0  0  0.406361  0  0.914074  0  0  0.299255  0.389378  0  0.939186  0
H  H17  1  0.02875478  0.14319898  0.09823994  1  0  0.424969  0  0.86397  0  0  0.396452  0  0.928695  0  0  0.406342  0  0.914082  0  0  0.29927  0.389362  0  0.939185  0
H  H18  1  0.65824462  0.08565177  0.59812026  1  0  0.429323  0  0.869703  0  0  0.400737  0  0.929243  0  0  0.410803  0  0.914379  0  0  0.305999  0.39349  0  0.939944  0
H  H19  1  0.34174874  0.91434728  0.40187818  1  0  0.429256  0  0.869786  0  0  0.400753  0  0.929159  0  0  0.410815  0  0.914301  0  0  0.306074  0.393513  0  0.939841  0
H  H20  1  0.15095702  0.75995175  0.84414187  1  0  0.375885  0  0.952709  0  0  0.334222  0  1.036778  0  0  0.345293  0  1.020878  0  0  0.283414  0.326286  0  1.048188  0
H  H21  1  0.84904244  0.24004954  0.15585919  1  0  0.375861  0  0.95274  0  0  0.334184  0  1.03683  0  0  0.345257  0  1.020932  0  0  0.283403  0.326248  0  1.048243  0
H  H22  1  0.62423035  0.92104866  0.60353736  1  0  0.439507  0  0.852708  0  0  0.410133  0  0.913614  0  0  0.420079  0  0.898925  0  0  0.307217  0.403005  0  0.924142  0
H  H23  1  0.37576266  0.07895151  0.39646242  1  0  0.439507  0  0.852706  0  0  0.410123  0  0.913627  0  0  0.420067  0  0.898942  0  0  0.307214  0.402994  0  0.924158  0
H  H24  1  0.32710195  0.38919328  0.90272754  1  0  0.119749  0  0.947365  0  0  0.127634  0  1.012586  0  0  0.130615  0  1.010003  0  0  0.12221  0.125466  0  1.014594  0
H  H25  1  0.67289925  0.61080811  0.09726887  1  0  0.119728  0  0.947433  0  0  0.127608  0  1.012662  0  0  0.130587  0  1.010082  0  0  0.122224  0.125441  0  1.014671  0
C  C26  1  0.45889874  0.53107106  0.62230378  1  0  0.075171  0  3.617726  0  0  0.009896  0  3.890372  0  0  0.021484  0  3.902821  0  0  0.034674  0.002923  0  3.881739  0
C  C27  1  0.54110576  0.46892459  0.37769515  1  0  0.075112  0  3.617789  0  0  0.009767  0  3.890426  0  0  0.02135  0  3.902879  0  0  0.034593  0.002806  0  3.881791  0
C  C28  1  0.22350002  0.57960491  0.59947644  1  0  -0.26933  0  3.805629  0  0  -0.242898  0  4.081105  0  0  -0.257425  0  4.101647  0  0  -0.045375  -0.233612  0  4.067763  0
C  C29  1  0.77650142  0.42039518  0.40052789  1  0  -0.269311  0  3.805605  0  0  -0.242871  0  4.081092  0  0  -0.257398  0  4.101635  0  0  -0.045351  -0.233607  0  4.067775  0
C  C30  1  0.12997019  0.44517964  0.62023128  1  0  0.05048  0  3.75163  0  0  -0.000973  0  4.036156  0  0  0.007969  0  4.050307  0  0  0.026136  -0.00691  0  4.026744  0
C  C31  1  0.87003163  0.55481940  0.37976861  1  0  0.050495  0  3.751723  0  0  -0.000987  0  4.036221  0  0  0.007955  0  4.050374  0  0  0.026158  -0.006923  0  4.026813  0
C  C32  1  0.78298856  0.55409038  0.84452822  1  0  0.073194  0  3.637005  0  0  0.01275  0  3.90269  0  0  0.024447  0  3.914501  0  0  0.036186  0.005475  0  3.894569  0
C  C33  1  0.21701569  0.44591213  0.15546950  1  0  0.073202  0  3.637008  0  0  0.012756  0  3.902705  0  0  0.02445  0  3.914516  0  0  0.036211  0.005484  0  3.894581  0
C  C34  1  0.69634507  0.41837777  0.87119626  1  0  -0.276893  0  3.815725  0  0  -0.253187  0  4.096223  0  0  -0.267258  0  4.116882  0  0  -0.050389  -0.244007  0  4.082206  0
C  C35  1  0.30366120  0.58162360  0.12880164  1  0  -0.276891  0  3.815685  0  0  -0.253128  0  4.096098  0  0  -0.267202  0  4.116757  0  0  -0.050357  -0.243955  0  4.082093  0
C  C36  1  0.45601220  0.46203748  0.88181398  1  0  0.056561  0  3.702246  0  0  0.000159  0  3.991087  0  0  0.008851  0  4.005018  0  0  0.023126  -0.005369  0  3.981611  0
C  C37  1  0.54399339  0.53796612  0.11818661  1  0  0.056542  0  3.702504  0  0  0.000111  0  3.991354  0  0  0.008803  0  4.005286  0  0  0.023056  -0.005422  0  3.981888  0
S  S38  1  0.07222916  0.76654260  0.55731269  1  0  1.385232  0  5.636351  0  0  1.279508  0  6.152131  0  0  1.330025  0  6.125759  0  0  0.549416  1.244194  0  6.169627  0
S  S39  1  0.92777469  0.23345533  0.44268584  1  0  1.385328  0  5.63632  0  0  1.279577  0  6.152093  0  0  1.330096  0  6.125719  0  0  0.549459  1.244288  0  6.169568  0
S  S40  1  0.85138965  0.23278674  0.88743684  1  0  1.357131  0  5.641759  0  0  1.249934  0  6.16383  0  0  1.299172  0  6.139149  0  0  0.538663  1.215892  0  6.179726  0
S  S41  1  0.14861122  0.76721576  0.11256092  1  0  1.357127  0  5.641781  0  0  1.249892  0  6.163872  0  0  1.299131  0  6.139189  0  0  0.538691  1.215848  0  6.179767  0
N  N42  1  0.29498906  0.32174698  0.65371151  1  0  -0.273208  0  3.001298  0  0  -0.242118  0  3.281331  0  0  -0.251933  0  3.296543  0  0  -0.266336  -0.234532  0  3.271232  0
N  N43  1  0.70500797  0.67825087  0.34629018  1  0  -0.27318  0  3.001417  0  0  -0.242141  0  3.281456  0  0  -0.251959  0  3.296672  0  0  -0.266359  -0.234553  0  3.271352  0
N  N44  1  0.49227221  0.37725296  0.65343203  1  0  -0.143718  0  3.505068  0  0  -0.076062  0  3.741987  0  0  -0.08908  0  3.760246  0  0  -0.272738  -0.067474  0  3.729637  0
N  N45  1  0.50773398  0.62274269  0.34656688  1  0  -0.143792  0  3.505251  0  0  -0.07604  0  3.742075  0  0  -0.089052  0  3.760335  0  0  -0.272712  -0.067451  0  3.72972  0
N  N46  1  0.39945877  0.61419965  0.86267916  1  0  -0.230176  0  3.010475  0  0  -0.192611  0  3.278373  0  0  -0.202714  0  3.294588  0  0  -0.219874  -0.185652  0  3.267716  0
N  N47  1  0.60054314  0.38580513  0.13731896  1  0  -0.230112  0  3.010592  0  0  -0.192492  0  3.278462  0  0  -0.202594  0  3.294678  0  0  -0.219791  -0.18553  0  3.267799  0
N  N48  1  0.59999424  0.66707582  0.84003127  1  0  -0.138069  0  3.472155  0  0  -0.071993  0  3.706871  0  0  -0.084577  0  3.723622  0  0  -0.267485  -0.063612  0  3.695606  0
N  N49  1  0.40000964  0.33292774  0.15997088  1  0  -0.138156  0  3.472152  0  0  -0.07213  0  3.706934  0  0  -0.084709  0  3.723678  0  0  -0.267591  -0.063741  0  3.69566  0
O  O50  1  0.10185519  0.81656855  0.43974236  1  0  -0.761001  0  2.021076  0  0  -0.696506  0  2.283157  0  0  -0.720635  0  2.268142  0  0  -0.369079  -0.679043  0  2.293154  0
O  O51  1  0.89814526  0.18342936  0.56025697  1  0  -0.761104  0  2.021101  0  0  -0.696528  0  2.283144  0  0  -0.720658  0  2.268128  0  0  -0.369078  -0.679063  0  2.293132  0
O  O52  1  0.83141258  0.75853841  0.58407058  1  0  -0.66762  0  1.978448  0  0  -0.611483  0  2.22279  0  0  -0.633272  0  2.208478  0  0  -0.31246  -0.596098  0  2.232486  0
O  O53  1  0.16858948  0.24145379  0.41592975  1  0  -0.66762  0  1.978531  0  0  -0.611462  0  2.222866  0  0  -0.633249  0  2.208554  0  0  -0.312459  -0.596096  0  2.232565  0
O  O54  1  0.18243467  0.85640858  0.61156671  1  0  -0.70816  0  1.993375  0  0  -0.645196  0  2.255521  0  0  -0.668425  0  2.240457  0  0  -0.366788  -0.627732  0  2.265474  0
O  O55  1  0.81755600  0.14359385  0.38843346  1  0  -0.708204  0  1.993365  0  0  -0.645252  0  2.255526  0  0  -0.668483  0  2.24046  0  0  -0.366807  -0.627793  0  2.265469  0
O  O56  1  0.89204866  0.21130247  0.77854106  1  0  -0.747737  0  2.028341  0  0  -0.684725  0  2.293078  0  0  -0.708813  0  2.279205  0  0  -0.37142  -0.667126  0  2.302209  0
O  O57  1  0.10794943  0.78869768  0.22146021  1  0  -0.747801  0  2.028308  0  0  -0.684765  0  2.293043  0  0  -0.708855  0  2.279171  0  0  -0.371474  -0.667172  0  2.302197  0
O  O58  1  0.06517513  0.21986453  0.94556221  1  0  -0.646123  0  1.944217  0  0  -0.594278  0  2.185748  0  0  -0.6152  0  2.171445  0  0  -0.32024  -0.579793  0  2.195583  0
O  O59  1  0.93482361  0.78013334  0.05443868  1  0  -0.646124  0  1.944252  0  0  -0.59427  0  2.185798  0  0  -0.615193  0  2.171493  0  0  -0.320247  -0.579784  0  2.195636  0
O  O60  1  0.69534171  0.13154668  0.94407461  1  0  -0.681201  0  2.019583  0  0  -0.613654  0  2.257184  0  0  -0.635261  0  2.24101  0  0  -0.321422  -0.598163  0  2.26809  0
O  O61  1  0.30465403  0.86845575  0.05592629  1  0  -0.68115  0  2.019641  0  0  -0.613595  0  2.257229  0  0  -0.635196  0  2.241053  0  0  -0.321395  -0.598103  0  2.268136  0
O  O62  1  0.02746587  0.85401543  0.83024466  1  0  -0.870886  0  1.840066  0  0  -0.81856  0  2.032323  0  0  -0.837903  0  2.001289  0  0  -0.624291  -0.804607  0  2.054601  0
O  O63  1  0.97253220  0.14598468  0.16975815  1  0  -0.87082  0  1.840157  0  0  -0.818508  0  2.032427  0  0  -0.837853  0  2.001388  0  0  -0.624305  -0.804558  0  2.054704  0
O  O64  1  0.44327008  0.97332093  0.85416355  1  0  -0.884372  0  1.838113  0  0  -0.830018  0  2.025841  0  0  -0.850583  0  1.994092  0  0  -0.615201  -0.815234  0  2.04917  0
O  O65  1  0.55672430  0.02668038  0.14583601  1  0  -0.884345  0  1.838119  0  0  -0.829964  0  2.025875  0  0  -0.85053  0  1.994127  0  0  -0.615212  -0.815166  0  2.049212  0
O  O66  1  0.54912489  0.01527506  0.62211595  1  0  -0.895527  0  1.812122  0  0  -0.846346  0  2.00025  0  0  -0.8654  0  1.968791  0  0  -0.638285  -0.831999  0  2.022294  0
O  O67  1  0.45087182  0.98472395  0.37788477  1  0  -0.895497  0  1.812144  0  0  -0.846339  0  2.000283  0  0  -0.865391  0  1.968832  0  0  -0.638365  -0.83199  0  2.022326  0
