# generated using pymatgen
data_AgH4C5NO
_symmetry_space_group_name_H-M   'P 1'
_cell_length_a   10.75051528
_cell_length_b   11.03626417
_cell_length_c   11.51244751
_cell_angle_alpha   118.65456739
_cell_angle_beta   117.83187358
_cell_angle_gamma   89.98567162
_symmetry_Int_Tables_number   1
_chemical_formula_structural   AgH4C5NO
_chemical_formula_sum   'Ag8 H32 C40 N8 O8'
_cell_volume   1014.99295220
_cell_formula_units_Z   8
loop_
 _symmetry_equiv_pos_site_id
 _symmetry_equiv_pos_as_xyz
  1  'x, y, z'
loop_
 _atom_site_type_symbol
 _atom_site_label
 _atom_site_symmetry_multiplicity
 _atom_site_fract_x
 _atom_site_fract_y
 _atom_site_fract_z
 _atom_site_occupancy
 _atom_site_pbe_bader_spin_density
 _atom_site_pbe_cm5_charge
 _atom_site_pbe_ddec_charge
 _atom_site_pbe_ddec_spin_density
 _atom_site_pbe_ddec_sum_bond_order
 _atom_site_pbe_magmom
Ag  Ag0  1  0.53802336  0.66912792  0.16709631  1  0  0.415171  0.335253  0  2.206277  0
Ag  Ag1  1  0.46172595  0.50206347  0.83308898  1  0  0.41498  0.335198  0  2.204158  0
Ag  Ag2  1  0.62869637  0.16899411  0.16695176  1  0  0.415202  0.334965  0  2.206854  0
Ag  Ag3  1  0.37133172  0.00217528  0.83292864  1  0  0.415178  0.335441  0  2.205776  0
Ag  Ag4  1  0.66557865  0.90080561  0.06129647  1  0  0.416937  0.338672  0  2.172068  0
Ag  Ag5  1  0.33422201  0.83962216  0.93840772  1  0  0.416988  0.338827  0  2.171251  0
Ag  Ag6  1  0.39560415  0.40091616  0.06123606  1  0  0.416889  0.338954  0  2.172525  0
Ag  Ag7  1  0.60435157  0.33956929  0.93875584  1  0  0.417019  0.339125  0  2.172233  0
H  H8  1  0.59954311  0.92374421  0.45413091  1  0  0.096435  0.113723  0  1.047539  0
H  H9  1  0.40033480  0.46956430  0.54580080  1  0  0.096506  0.113848  0  1.047291  0
H  H10  1  0.85438450  0.42343152  0.45381513  1  0  0.09662  0.114207  0  1.047409  0
H  H11  1  0.14562511  0.96973750  0.54622211  1  0  0.096442  0.113669  0  1.047545  0
H  H12  1  0.53838988  0.12464109  0.62628750  1  0  0.096302  0.091591  0  1.049486  0
H  H13  1  0.46171099  0.49808297  0.37370719  1  0  0.096313  0.091602  0  1.049197  0
H  H14  1  0.08764440  0.62424031  0.62592226  1  0  0.096376  0.091442  0  1.048656  0
H  H15  1  0.91223662  0.99816781  0.37391471  1  0  0.096526  0.091907  0  1.047683  0
H  H16  1  0.52901773  0.34445827  0.61277200  1  0  0.087126  0.081058  0  1.094215  0
H  H17  1  0.47122089  0.73140615  0.38719467  1  0  0.087004  0.081393  0  1.09392  0
H  H18  1  0.08343165  0.84408397  0.61247230  1  0  0.086997  0.081064  0  1.092816  0
H  H19  1  0.91620616  0.23124752  0.38692481  1  0  0.086736  0.080567  0  1.093647  0
H  H20  1  0.57601757  0.35066898  0.42068817  1  0  0.109511  0.082859  0  1.019559  0
H  H21  1  0.42418311  0.92990793  0.57919130  1  0  0.109666  0.083242  0  1.018787  0
H  H22  1  0.84435220  0.85053103  0.42065495  1  0  0.109572  0.08299  0  1.019402  0
H  H23  1  0.15510576  0.42973965  0.57880964  1  0  0.109859  0.082883  0  1.01976  0
H  H24  1  0.05925238  0.69115288  0.86207054  1  0  0.09606  0.109474  0  1.049604  0
H  H25  1  0.94065791  0.82883836  0.13814089  1  0  0.096357  0.109896  0  1.048003  0
H  H26  1  0.80288419  0.19099633  0.86217950  1  0  0.09623  0.109967  0  1.048857  0
H  H27  1  0.19767659  0.32929569  0.13829494  1  0  0.096009  0.109581  0  1.048284  0
H  H28  1  0.82378161  0.50121079  0.71216262  1  0  0.102238  0.096753  0  0.999709  0
H  H29  1  0.17620295  0.78872802  0.28774815  1  0  0.102282  0.096474  0  0.999493  0
H  H30  1  0.88854889  0.00104214  0.71235920  1  0  0.101962  0.095903  0  1.000252  0
H  H31  1  0.11194636  0.28926101  0.28806628  1  0  0.102109  0.096334  0  0.999312  0
H  H32  1  0.83243775  0.27063294  0.70744005  1  0  0.093614  0.101831  0  1.063581  0
H  H33  1  0.16770006  0.56291895  0.29255750  1  0  0.093703  0.101839  0  1.064516  0
H  H34  1  0.87527172  0.77052143  0.70772202  1  0  0.093762  0.102021  0  1.064186  0
H  H35  1  0.12480348  0.06315456  0.29235615  1  0  0.093696  0.101988  0  1.064395  0
H  H36  1  0.07824052  0.24464000  0.85747045  1  0  0.108776  0.08322  0  1.014572  0
H  H37  1  0.92191364  0.38703853  0.14290453  1  0  0.108932  0.083063  0  1.014801  0
H  H38  1  0.77938598  0.74457033  0.85768670  1  0  0.10895  0.083184  0  1.013894  0
H  H39  1  0.22070263  0.88708960  0.14233973  1  0  0.108935  0.083216  0  1.014669  0
C  C40  1  0.61102993  0.02601263  0.33810265  1  0  0.191226  0.460923  0  4.124553  0
C  C41  1  0.38891182  0.68794812  0.66174371  1  0  0.191025  0.461369  0  4.124535  0
C  C42  1  0.72685125  0.52588188  0.33800685  1  0  0.190994  0.460955  0  4.125538  0
C  C43  1  0.27297336  0.18801780  0.66184280  1  0  0.191208  0.460402  0  4.125964  0
C  C44  1  0.58942364  0.01897952  0.44792419  1  0  -0.110527  -0.250223  0  3.934337  0
C  C45  1  0.41046795  0.57096394  0.55193614  1  0  -0.111323  -0.25182  0  3.933945  0
C  C46  1  0.85823581  0.51874252  0.44774733  1  0  -0.11098  -0.251948  0  3.935737  0
C  C47  1  0.14165215  0.07106630  0.55216316  1  0  -0.111409  -0.251553  0  3.935214  0
C  C48  1  0.55711482  0.13048978  0.54356588  1  0  -0.081763  -0.022007  0  4.025654  0
C  C49  1  0.44294988  0.58671662  0.45636016  1  0  -0.081054  -0.020122  0  4.024261  0
C  C50  1  0.98618039  0.63013720  0.54325716  1  0  -0.081442  -0.020183  0  4.024451  0
C  C51  1  0.01363961  0.08676412  0.45649659  1  0  -0.081268  -0.020783  0  4.02331  0
C  C52  1  0.55059916  0.25348977  0.53584656  1  0  -0.113216  -0.171751  0  4.035332  0
C  C53  1  0.44955432  0.71744471  0.46409751  1  0  -0.113378  -0.173193  0  4.036262  0
C  C54  1  0.98495099  0.75315683  0.53556299  1  0  -0.112895  -0.17188  0  4.033546  0
C  C55  1  0.01475940  0.21736398  0.46395037  1  0  -0.112664  -0.17129  0  4.034236  0
C  C56  1  0.57686149  0.25730403  0.43085192  1  0  0.031446  0.10154  0  3.965199  0
C  C57  1  0.42325592  0.82636934  0.56901616  1  0  0.03123  0.101706  0  3.967053  0
C  C58  1  0.85368537  0.75711433  0.43072953  1  0  0.031522  0.101389  0  3.965256  0
C  C59  1  0.14589813  0.32628786  0.56880462  1  0  0.030842  0.101002  0  3.966245  0
C  C60  1  0.19523519  0.56961912  0.94018886  1  0  0.188115  0.456639  0  4.132543  0
C  C61  1  0.80473210  0.62923798  0.06015117  1  0  0.188563  0.457251  0  4.13145  0
C  C62  1  0.74498980  0.06953967  0.94035398  1  0  0.188637  0.456286  0  4.132656  0
C  C63  1  0.25516522  0.12940790  0.05977722  1  0  0.188538  0.455759  0  4.133318  0
C  C64  1  0.05831589  0.59011134  0.85733687  1  0  -0.111986  -0.255532  0  3.956561  0
C  C65  1  0.94160927  0.73254883  0.14290058  1  0  -0.111899  -0.256438  0  3.954866  0
C  C66  1  0.79921546  0.09003846  0.85762055  1  0  -0.112757  -0.257543  0  3.954424  0
C  C67  1  0.20123687  0.23284959  0.14276656  1  0  -0.112277  -0.256637  0  3.954651  0
C  C68  1  0.92853416  0.48490974  0.77517870  1  0  -0.078443  -0.00602  0  4.015411  0
C  C69  1  0.07146690  0.70949295  0.22494729  1  0  -0.078546  -0.004342  0  4.011957  0
C  C70  1  0.84688445  0.98481484  0.77546595  1  0  -0.077707  -0.002887  0  4.011866  0
C  C71  1  0.15352219  0.20980872  0.22488873  1  0  -0.078201  -0.004044  0  4.010758  0
C  C72  1  0.93217070  0.35662643  0.77255078  1  0  -0.116154  -0.177437  0  4.027545  0
C  C73  1  0.06790950  0.58386751  0.22761880  1  0  -0.116605  -0.17915  0  4.029373  0
C  C74  1  0.84065309  0.85655918  0.77284716  1  0  -0.116421  -0.178597  0  4.027543  0
C  C75  1  0.15949733  0.08401254  0.22727172  1  0  -0.116389  -0.178777  0  4.028247  0
C  C76  1  0.06776910  0.34191727  0.85511602  1  0  0.028295  0.09665  0  3.983593  0
C  C77  1  0.93234588  0.48669496  0.14528154  1  0  0.028332  0.097274  0  3.983711  0
C  C78  1  0.78742259  0.84182203  0.85525848  1  0  0.028007  0.096071  0  3.98303  0
C  C79  1  0.21259598  0.98674540  0.14474272  1  0  0.028267  0.096944  0  3.983081  0
N  N80  1  0.60552120  0.14762803  0.33385371  1  0  -0.368542  -0.321623  0  3.559105  0
N  N81  1  0.39451335  0.81380894  0.66599948  1  0  -0.368243  -0.321861  0  3.560727  0
N  N82  1  0.72806075  0.64751584  0.33381044  1  0  -0.36852  -0.321628  0  3.55988  0
N  N83  1  0.27160102  0.31378366  0.66590175  1  0  -0.368198  -0.320806  0  3.558882  0
N  N84  1  0.19595562  0.44446444  0.93734402  1  0  -0.370168  -0.323914  0  3.575587  0
N  N85  1  0.80410505  0.50697172  0.06305478  1  0  -0.370307  -0.323928  0  3.574997  0
N  N86  1  0.74136573  0.94435911  0.93743893  1  0  -0.370134  -0.322708  0  3.574903  0
N  N87  1  0.25864824  0.00708307  0.06257845  1  0  -0.370022  -0.322657  0  3.573568  0
O  O88  1  0.63541609  0.91757775  0.24367006  1  0  -0.353651  -0.511547  0  2.468416  0
O  O89  1  0.36445049  0.67400677  0.75614641  1  0  -0.35345  -0.511637  0  2.468001  0
O  O90  1  0.60806068  0.41745942  0.24353723  1  0  -0.353623  -0.511341  0  2.468596  0
O  O91  1  0.39178918  0.17414429  0.75635015  1  0  -0.353536  -0.511193  0  2.469692  0
O  O92  1  0.31755812  0.66966180  0.01746444  1  0  -0.356895  -0.510869  0  2.466714  0
O  O93  1  0.68236082  0.65196336  0.98286442  1  0  -0.357329  -0.511077  0  2.466394  0
O  O94  1  0.69982385  0.16957279  0.01754474  1  0  -0.356957  -0.50996  0  2.468071  0
O  O95  1  0.30016099  0.15207260  0.98240561  1  0  -0.357334  -0.510476  0  2.468137  0
