# generated using pymatgen
data_AgH8C5N4O3
_symmetry_space_group_name_H-M   'P 1'
_cell_length_a   5.33260044
_cell_length_b   12.29675041
_cell_length_c   13.22509613
_cell_angle_alpha   89.99894332
_cell_angle_beta   89.99985223
_cell_angle_gamma   100.39814496
_symmetry_Int_Tables_number   1
_chemical_formula_structural   AgH8C5N4O3
_chemical_formula_sum   'Ag4 H32 C20 N16 O12'
_cell_volume   852.97586520
_cell_formula_units_Z   4
loop_
 _symmetry_equiv_pos_site_id
 _symmetry_equiv_pos_as_xyz
  1  'x, y, z'
loop_
 _atom_site_type_symbol
 _atom_site_label
 _atom_site_symmetry_multiplicity
 _atom_site_fract_x
 _atom_site_fract_y
 _atom_site_fract_z
 _atom_site_occupancy
 _atom_site_hle17_bader_spin_density
 _atom_site_hle17_ddec_charge
 _atom_site_hle17_ddec_spin_density
 _atom_site_hle17_ddec_sum_bond_order
 _atom_site_hle17_magmom
 _atom_site_hse06_10hf_bader_spin_density
 _atom_site_hse06_10hf_ddec_charge
 _atom_site_hse06_10hf_ddec_spin_density
 _atom_site_hse06_10hf_ddec_sum_bond_order
 _atom_site_hse06_10hf_magmom
 _atom_site_hse06_bader_spin_density
 _atom_site_hse06_ddec_charge
 _atom_site_hse06_ddec_spin_density
 _atom_site_hse06_ddec_sum_bond_order
 _atom_site_hse06_magmom
 _atom_site_pbe_bader_spin_density
 _atom_site_pbe_cm5_charge
 _atom_site_pbe_ddec_charge
 _atom_site_pbe_ddec_spin_density
 _atom_site_pbe_ddec_sum_bond_order
 _atom_site_pbe_magmom
Ag  Ag0  1  0.91727415  0.80315673  0.30348366  1  0  0.538054  0  1.405532  0  0  0.399857  0  1.839985  0  0  0.428744  0  1.792522  0  0  0.491468  0.379698  0  1.872966  0
Ag  Ag1  1  0.08270230  0.69683950  0.80349651  1  0  0.538043  0  1.405641  0  0  0.39981  0  1.840124  0  0  0.428684  0  1.792691  0  0  0.491484  0.37966  0  1.873112  0
Ag  Ag2  1  0.08269838  0.19684430  0.69650054  1  0  0.538183  0  1.405498  0  0  0.399814  0  1.840132  0  0  0.428686  0  1.792698  0  0  0.491471  0.379664  0  1.873121  0
Ag  Ag3  1  0.91730123  0.30316465  0.19649904  1  0  0.538066  0  1.405586  0  0  0.399838  0  1.840102  0  0  0.428708  0  1.79267  0  0  0.491472  0.379681  0  1.873088  0
H  H4  1  0.29643431  0.73060995  0.12139142  1  0  0.129899  0  0.944508  0  0  0.137949  0  1.004354  0  0  0.141398  0  1.001086  0  0  0.131164  0.135352  0  1.006935  0
H  H5  1  0.70353722  0.76939561  0.62140539  1  0  0.129983  0  0.944491  0  0  0.137976  0  1.004362  0  0  0.141425  0  1.001093  0  0  0.131249  0.135385  0  1.006941  0
H  H6  1  0.70353697  0.26938696  0.87860110  1  0  0.129983  0  0.944554  0  0  0.138035  0  1.004383  0  0  0.141485  0  1.001113  0  0  0.131241  0.13544  0  1.006967  0
H  H7  1  0.29643457  0.23061525  0.37859848  1  0  0.129989  0  0.944552  0  0  0.138038  0  1.004396  0  0  0.141489  0  1.001124  0  0  0.131218  0.135442  0  1.00698  0
H  H8  1  0.27795120  0.50800676  0.06949660  1  0  0.125588  0  0.940287  0  0  0.131134  0  1.003926  0  0  0.134003  0  1.002229  0  0  0.128019  0.128994  0  1.005303  0
H  H9  1  0.72204014  0.99199453  0.56950059  1  0  0.125624  0  0.940305  0  0  0.131159  0  1.003937  0  0  0.134028  0  1.002242  0  0  0.128038  0.129026  0  1.005313  0
H  H10  1  0.72203457  0.49199456  0.93049668  1  0  0.125643  0  0.94044  0  0  0.131194  0  1.004038  0  0  0.134065  0  1.002341  0  0  0.12805  0.129057  0  1.005414  0
H  H11  1  0.27796755  0.00800479  0.43049118  1  0  0.12565  0  0.940492  0  0  0.131176  0  1.004104  0  0  0.134041  0  1.002419  0  0  0.128026  0.129045  0  1.005486  0
H  H12  1  0.50766884  0.47118328  0.26095401  1  0  0.096632  0  0.953666  0  0  0.112274  0  1.016471  0  0  0.1131  0  1.016262  0  0  0.113193  0.111512  0  1.016825  0
H  H13  1  0.49233999  0.02880242  0.76095125  1  0  0.096642  0  0.953635  0  0  0.112114  0  1.016605  0  0  0.112938  0  1.016412  0  0  0.113141  0.111359  0  1.016958  0
H  H14  1  0.49234942  0.52880150  0.73904985  1  0  0.096669  0  0.953624  0  0  0.112163  0  1.016523  0  0  0.112988  0  1.016329  0  0  0.113194  0.111407  0  1.016877  0
H  H15  1  0.50763809  0.97119217  0.23904581  1  0  0.096607  0  0.953608  0  0  0.11214  0  1.016505  0  0  0.112953  0  1.016311  0  0  0.113194  0.111379  0  1.016858  0
H  H16  1  0.60526474  0.60060168  0.32469906  1  0  0.089173  0  0.962092  0  0  0.098076  0  1.038086  0  0  0.100193  0  1.035635  0  0  0.111799  0.096433  0  1.039927  0
H  H17  1  0.39473306  0.89937900  0.82468761  1  0  0.089211  0  0.962051  0  0  0.098119  0  1.037974  0  0  0.100237  0  1.035532  0  0  0.111841  0.096481  0  1.039815  0
H  H18  1  0.39476965  0.39938673  0.67531917  1  0  0.089179  0  0.96213  0  0  0.098063  0  1.038059  0  0  0.100182  0  1.035615  0  0  0.111836  0.096427  0  1.039903  0
H  H19  1  0.60523229  0.10060465  0.17532306  1  0  0.08918  0  0.962349  0  0  0.0981  0  1.038237  0  0  0.100216  0  1.035794  0  0  0.111845  0.096459  0  1.040079  0
H  H20  1  0.57831905  0.44397107  0.44334760  1  0  0.085808  0  0.932933  0  0  0.107819  0  0.986305  0  0  0.108258  0  0.987742  0  0  0.098669  0.107412  0  0.985419  0
H  H21  1  0.42170617  0.05601211  0.94333989  1  0  0.085733  0  0.932898  0  0  0.107733  0  0.986323  0  0  0.108161  0  0.987763  0  0  0.098629  0.107329  0  0.98543  0
H  H22  1  0.42172705  0.55600036  0.55665400  1  0  0.085663  0  0.932865  0  0  0.107657  0  0.986297  0  0  0.108093  0  0.987733  0  0  0.098605  0.107259  0  0.985406  0
H  H23  1  0.57825806  0.94399860  0.05665188  1  0  0.085705  0  0.932891  0  0  0.107725  0  0.986297  0  0  0.108157  0  0.98775  0  0  0.098613  0.107327  0  0.985403  0
H  H24  1  0.78754449  0.38177083  0.37040339  1  0  0.059013  0  0.964627  0  0  0.070636  0  1.046878  0  0  0.073263  0  1.042848  0  0  0.080957  0.068625  0  1.04986  0
H  H25  1  0.21248675  0.11822379  0.87039631  1  0  0.05901  0  0.964745  0  0  0.070651  0  1.046969  0  0  0.073262  0  1.042952  0  0  0.080937  0.068641  0  1.049955  0
H  H26  1  0.21251233  0.61821723  0.62959291  1  0  0.059026  0  0.964712  0  0  0.070624  0  1.046946  0  0  0.07323  0  1.042939  0  0  0.080932  0.06862  0  1.049933  0
H  H27  1  0.78747722  0.88178608  0.12958865  1  0  0.059065  0  0.964772  0  0  0.070654  0  1.047029  0  0  0.073269  0  1.043021  0  0  0.080928  0.068648  0  1.050007  0
H  H28  1  0.93679302  0.61218854  0.46767090  1  0  0.076691  0  0.940683  0  0  0.096468  0  1.000756  0  0  0.097294  0  1.00093  0  0  0.089805  0.095766  0  1.0008  0
H  H29  1  0.06319809  0.88781125  0.96767361  1  0  0.076644  0  0.940707  0  0  0.096469  0  1.000804  0  0  0.097291  0  1.000991  0  0  0.089785  0.095767  0  1.000842  0
H  H30  1  0.06322814  0.38779958  0.53232691  1  0  0.076545  0  0.940709  0  0  0.096326  0  1.000819  0  0  0.097152  0  1.000991  0  0  0.089716  0.095624  0  1.000861  0
H  H31  1  0.93675643  0.11219843  0.03230984  1  0  0.076547  0  0.940743  0  0  0.096317  0  1.000787  0  0  0.097144  0  1.000958  0  0  0.089666  0.095614  0  1.000837  0
H  H32  1  0.14367829  0.53964625  0.40256844  1  0  0.060852  0  0.933077  0  0  0.08256  0  0.989042  0  0  0.082465  0  0.991158  0  0  0.08661  0.082507  0  0.987735  0
H  H33  1  0.85634089  0.96035135  0.90256000  1  0  0.0608  0  0.933064  0  0  0.082522  0  0.989091  0  0  0.082456  0  0.991167  0  0  0.086574  0.082469  0  0.987789  0
H  H34  1  0.85634955  0.46034529  0.59743617  1  0  0.060875  0  0.933081  0  0  0.082558  0  0.989103  0  0  0.082459  0  0.991222  0  0  0.086656  0.082522  0  0.98778  0
H  H35  1  0.14363292  0.03966612  0.09742874  1  0  0.060873  0  0.933248  0  0  0.082568  0  0.989161  0  0  0.082466  0  0.991285  0  0  0.086601  0.082543  0  0.987814  0
C  C36  1  0.17287568  0.65676576  0.14843919  1  0  0.029712  0  3.673344  0  0  -0.009655  0  3.944068  0  0  -0.006547  0  3.958321  0  0  0.033149  -0.011947  0  3.934802  0
C  C37  1  0.82712719  0.84323253  0.64843586  1  0  0.029592  0  3.673471  0  0  -0.009726  0  3.944219  0  0  -0.006619  0  3.958474  0  0  0.033093  -0.012012  0  3.93495  0
C  C38  1  0.82712923  0.34322448  0.85157526  1  0  0.029623  0  3.673263  0  0  -0.009739  0  3.943969  0  0  -0.006628  0  3.958221  0  0  0.033092  -0.012027  0  3.9347  0
C  C39  1  0.17286602  0.15677468  0.35157632  1  0  0.029629  0  3.673161  0  0  -0.009755  0  3.943893  0  0  -0.006639  0  3.958143  0  0  0.033075  -0.012049  0  3.934628  0
C  C40  1  0.16377087  0.54656239  0.12157457  1  0  0.01415  0  3.678179  0  0  -0.025123  0  3.95264  0  0  -0.022772  0  3.968414  0  0  0.031072  -0.026815  0  3.94224  0
C  C41  1  0.83624626  0.95344496  0.62157459  1  0  0.014159  0  3.677804  0  0  -0.025067  0  3.952266  0  0  -0.02272  0  3.968044  0  0  0.031054  -0.026758  0  3.941863  0
C  C42  1  0.83622964  0.45344417  0.87842702  1  0  0.014131  0  3.677281  0  0  -0.025091  0  3.951734  0  0  -0.022745  0  3.96751  0  0  0.031062  -0.02678  0  3.941328  0
C  C43  1  0.16375399  0.04654846  0.37842852  1  0  0.014032  0  3.677459  0  0  -0.025173  0  3.951913  0  0  -0.022829  0  3.967693  0  0  0.031077  -0.026876  0  3.941528  0
C  C44  1  0.66382269  0.52308763  0.30185602  1  0  -0.072693  0  3.630896  0  0  -0.137194  0  3.89552  0  0  -0.134708  0  3.906416  0  0  -0.056276  -0.138614  0  3.888062  0
C  C45  1  0.33617974  0.97689525  0.80185159  1  0  -0.072691  0  3.630861  0  0  -0.137069  0  3.895585  0  0  -0.134538  0  3.906381  0  0  -0.056239  -0.138504  0  3.888162  0
C  C46  1  0.33620502  0.47689735  0.69815011  1  0  -0.072713  0  3.630981  0  0  -0.137027  0  3.895598  0  0  -0.134496  0  3.90639  0  0  -0.056275  -0.138446  0  3.888162  0
C  C47  1  0.66380011  0.02310512  0.19814623  1  0  -0.072573  0  3.63081  0  0  -0.136969  0  3.895559  0  0  -0.13442  0  3.906341  0  0  -0.056209  -0.138415  0  3.888165  0
C  C48  1  0.74586164  0.46295209  0.39353145  1  0  -0.121422  0  3.691096  0  0  -0.16302  0  3.95235  0  0  -0.16498  0  3.966385  0  0  -0.164938  -0.161449  0  3.942612  0
C  C49  1  0.25416068  0.03703859  0.89352349  1  0  -0.121299  0  3.690686  0  0  -0.162881  0  3.952008  0  0  -0.164823  0  3.966056  0  0  -0.164796  -0.16131  0  3.942266  0
C  C50  1  0.25417854  0.53703069  0.60647392  1  0  -0.121251  0  3.690662  0  0  -0.162804  0  3.951867  0  0  -0.16475  0  3.965909  0  0  -0.164789  -0.161262  0  3.94217  0
C  C51  1  0.74581791  0.96296996  0.10646903  1  0  -0.121279  0  3.690791  0  0  -0.162945  0  3.952167  0  0  -0.164892  0  3.966186  0  0  -0.164841  -0.161397  0  3.942451  0
C  C52  1  0.97221109  0.52846012  0.45093299  1  0  -0.106545  0  3.675755  0  0  -0.144128  0  3.932595  0  0  -0.145445  0  3.948408  0  0  -0.170801  -0.143052  0  3.921623  0
C  C53  1  0.02779703  0.97153956  0.95092670  1  0  -0.106498  0  3.675409  0  0  -0.144316  0  3.932502  0  0  -0.145655  0  3.948322  0  0  -0.170896  -0.143237  0  3.921532  0
C  C54  1  0.02780767  0.47152631  0.54907314  1  0  -0.106437  0  3.675418  0  0  -0.144094  0  3.9324  0  0  -0.145411  0  3.948211  0  0  -0.17087  -0.143015  0  3.921435  0
C  C55  1  0.97218094  0.02847308  0.04906053  1  0  -0.106559  0  3.67564  0  0  -0.143955  0  3.932391  0  0  -0.145277  0  3.948225  0  0  -0.170663  -0.142884  0  3.921422  0
N  N56  1  0.87057299  0.55583117  0.22939868  1  0  0.240581  0  3.496826  0  0  0.291309  0  3.7533  0  0  0.287987  0  3.77899  0  0  -0.018882  0.293135  0  3.736026  0
N  N57  1  0.12942827  0.94415807  0.72940109  1  0  0.240543  0  3.497061  0  0  0.291273  0  3.753515  0  0  0.287954  0  3.779215  0  0  -0.018928  0.293101  0  3.736241  0
N  N58  1  0.12944238  0.44416257  0.77059762  1  0  0.240562  0  3.49654  0  0  0.291275  0  3.753011  0  0  0.287957  0  3.778707  0  0  -0.018914  0.2931  0  3.735742  0
N  N59  1  0.87055347  0.05584234  0.27059521  1  0  0.240618  0  3.496278  0  0  0.291376  0  3.752766  0  0  0.288056  0  3.778463  0  0  -0.01893  0.293203  0  3.735488  0
N  N60  1  0.98678593  0.66043256  0.21635357  1  0  -0.238186  0  3.18121  0  0  -0.178372  0  3.477586  0  0  -0.18955  0  3.490244  0  0  -0.232251  -0.170583  0  3.469048  0
N  N61  1  0.01318920  0.83956295  0.71635490  1  0  -0.238066  0  3.181422  0  0  -0.178191  0  3.477733  0  0  -0.18937  0  3.490394  0  0  -0.232172  -0.170396  0  3.469195  0
N  N62  1  0.01318950  0.33955951  0.78364803  1  0  -0.23802  0  3.180864  0  0  -0.178193  0  3.477292  0  0  -0.189375  0  3.489952  0  0  -0.232133  -0.1704  0  3.468759  0
N  N63  1  0.98680716  0.16044844  0.28365047  1  0  -0.238161  0  3.180813  0  0  -0.178396  0  3.477296  0  0  -0.189583  0  3.489958  0  0  -0.232227  -0.1706  0  3.468755  0
N  N64  1  0.97315479  0.48470550  0.17410816  1  0  -0.237085  0  3.146384  0  0  -0.179381  0  3.439403  0  0  -0.190053  0  3.452131  0  0  -0.230642  -0.17194  0  3.430863  0
N  N65  1  0.02688257  0.01529732  0.67410762  1  0  -0.237138  0  3.146026  0  0  -0.179517  0  3.439173  0  0  -0.190196  0  3.451908  0  0  -0.230627  -0.172068  0  3.430627  0
N  N66  1  0.02689271  0.51530123  0.82588587  1  0  -0.237188  0  3.145648  0  0  -0.179561  0  3.438782  0  0  -0.190239  0  3.451514  0  0  -0.230681  -0.172114  0  3.430237  0
N  N67  1  0.97310911  0.98470494  0.32587810  1  0  -0.23706  0  3.145746  0  0  -0.179433  0  3.438831  0  0  -0.190114  0  3.451573  0  0  -0.230638  -0.171986  0  3.430287  0
N  N68  1  0.44113320  0.79083162  0.43099386  1  0  0.685107  0  4.145226  0  0  0.732461  0  4.4132  0  0  0.761223  0  4.419672  0  0  0.086505  0.713056  0  4.408226  0
N  N69  1  0.55885784  0.70917302  0.93097727  1  0  0.6852  0  4.14561  0  0  0.732439  0  4.413615  0  0  0.761203  0  4.420081  0  0  0.086369  0.713035  0  4.408635  0
N  N70  1  0.55887890  0.20917600  0.56903571  1  0  0.685841  0  4.145634  0  0  0.73228  0  4.413998  0  0  0.761042  0  4.420468  0  0  0.086325  0.712876  0  4.409017  0
N  N71  1  0.44113360  0.29082842  0.06902130  1  0  0.685473  0  4.144978  0  0  0.732555  0  4.413174  0  0  0.761318  0  4.419637  0  0  0.086544  0.713152  0  4.408201  0
O  O72  1  0.61857846  0.73633329  0.45003381  1  0  -0.48881  0  1.806554  0  0  -0.467958  0  2.033757  0  0  -0.486358  0  2.025635  0  0  -0.20057  -0.454926  0  2.03908  0
O  O73  1  0.38140649  0.76366427  0.95003081  1  0  -0.488944  0  1.806572  0  0  -0.468046  0  2.033743  0  0  -0.48645  0  2.025622  0  0  -0.200636  -0.455014  0  2.039063  0
O  O74  1  0.38142090  0.26365108  0.54996703  1  0  -0.489072  0  1.806623  0  0  -0.467881  0  2.033936  0  0  -0.486281  0  2.025811  0  0  -0.200514  -0.454848  0  2.039257  0
O  O75  1  0.61857172  0.23633689  0.04996927  1  0  -0.488885  0  1.806537  0  0  -0.467973  0  2.033828  0  0  -0.486372  0  2.025705  0  0  -0.200538  -0.454943  0  2.039153  0
O  O76  1  0.41338286  0.82134102  0.33981544  1  0  -0.517242  0  1.838434  0  0  -0.507466  0  2.093108  0  0  -0.525116  0  2.082095  0  0  -0.217368  -0.494935  0  2.100404  0
O  O77  1  0.58661737  0.67867878  0.83981297  1  0  -0.51729  0  1.838956  0  0  -0.507456  0  2.093585  0  0  -0.525125  0  2.082632  0  0  -0.217367  -0.494941  0  2.100895  0
O  O78  1  0.58663315  0.17868555  0.66019598  1  0  -0.517522  0  1.839276  0  0  -0.507353  0  2.09399  0  0  -0.525015  0  2.083028  0  0  -0.217315  -0.494836  0  2.101296  0
O  O79  1  0.41338516  0.32133438  0.16018938  1  0  -0.517422  0  1.838626  0  0  -0.507572  0  2.093371  0  0  -0.525224  0  2.08239  0  0  -0.217398  -0.495047  0  2.100671  0
O  O80  1  0.29815769  0.81408325  0.50001856  1  0  -0.449287  0  1.715519  0  0  -0.448234  0  1.918454  0  0  -0.462383  0  1.913971  0  0  -0.190714  -0.438242  0  1.921406  0
O  O81  1  0.70184869  0.68592222  0.00000421  1  0  -0.449242  0  1.715508  0  0  -0.448083  0  1.91841  0  0  -0.462231  0  1.913931  0  0  -0.190535  -0.438081  0  1.921345  0
O  O82  1  0.70191691  0.18593226  0.50000572  1  0  -0.449753  0  1.715297  0  0  -0.448227  0  1.91822  0  0  -0.462379  0  1.913739  0  0  -0.190684  -0.438223  0  1.921157  0
O  O83  1  0.29812032  0.31407956  0.99999134  1  0  -0.449467  0  1.715182  0  0  -0.448259  0  1.918168  0  0  -0.462413  0  1.913688  0  0  -0.190786  -0.438262  0  1.921113  0
