# generated using pymatgen
data_ZnH12C15N3O4
_symmetry_space_group_name_H-M   'P 1'
_cell_length_a   7.15231684
_cell_length_b   12.45270952
_cell_length_c   15.94989061
_cell_angle_alpha   100.63087868
_cell_angle_beta   89.99973815
_cell_angle_gamma   89.99997461
_symmetry_Int_Tables_number   1
_chemical_formula_structural   ZnH12C15N3O4
_chemical_formula_sum   'Zn4 H48 C60 N12 O16'
_cell_volume   1396.20567020
_cell_formula_units_Z   4
loop_
 _symmetry_equiv_pos_site_id
 _symmetry_equiv_pos_as_xyz
  1  'x, y, z'
loop_
 _atom_site_type_symbol
 _atom_site_label
 _atom_site_symmetry_multiplicity
 _atom_site_fract_x
 _atom_site_fract_y
 _atom_site_fract_z
 _atom_site_occupancy
 _atom_site_hle17_bader_spin_density
 _atom_site_hle17_ddec_charge
 _atom_site_hle17_ddec_spin_density
 _atom_site_hle17_ddec_sum_bond_order
 _atom_site_hle17_magmom
 _atom_site_hse06_10hf_bader_spin_density
 _atom_site_hse06_10hf_ddec_charge
 _atom_site_hse06_10hf_ddec_spin_density
 _atom_site_hse06_10hf_ddec_sum_bond_order
 _atom_site_hse06_10hf_magmom
 _atom_site_hse06_bader_spin_density
 _atom_site_hse06_ddec_charge
 _atom_site_hse06_ddec_spin_density
 _atom_site_hse06_ddec_sum_bond_order
 _atom_site_hse06_magmom
 _atom_site_pbe_bader_spin_density
 _atom_site_pbe_cm5_charge
 _atom_site_pbe_ddec_charge
 _atom_site_pbe_ddec_spin_density
 _atom_site_pbe_ddec_sum_bond_order
 _atom_site_pbe_magmom
Zn  Zn0  1  0.96056023  0.85768373  0.74421323  1  0  1.008172  0  1.865491  0  0  0.824824  0  2.330228  0  0  0.870935  0  2.277684  0  0  0.698769  0.792731  0  2.366299  0
Zn  Zn1  1  0.46056159  0.14231564  0.75578873  1  0  1.008168  0  1.865517  0  0  0.824823  0  2.330233  0  0  0.870934  0  2.277691  0  0  0.698753  0.792715  0  2.366294  0
Zn  Zn2  1  0.03943484  0.14231581  0.25578811  1  0  1.008117  0  1.865546  0  0  0.824759  0  2.330264  0  0  0.870872  0  2.277721  0  0  0.698714  0.792642  0  2.366338  0
Zn  Zn3  1  0.53943767  0.85768387  0.24421135  1  0  1.008151  0  1.865586  0  0  0.824783  0  2.330313  0  0  0.870896  0  2.277769  0  0  0.698712  0.79267  0  2.366386  0
H  H4  1  0.67341218  0.20590651  0.06177083  1  0  0.110342  0  0.972161  0  0  0.1215  0  1.032454  0  0  0.12462  0  1.031004  0  0  0.111829  0.119256  0  1.033573  0
H  H5  1  0.17341825  0.79409560  0.43823369  1  0  0.110348  0  0.972171  0  0  0.12149  0  1.03249  0  0  0.124609  0  1.031039  0  0  0.111808  0.119242  0  1.033608  0
H  H6  1  0.32658988  0.79409710  0.93823042  1  0  0.110368  0  0.972237  0  0  0.121533  0  1.032505  0  0  0.124653  0  1.031052  0  0  0.11183  0.119286  0  1.033629  0
H  H7  1  0.82658800  0.20590727  0.56177186  1  0  0.110339  0  0.972109  0  0  0.121461  0  1.032449  0  0  0.124581  0  1.031  0  0  0.111798  0.119213  0  1.033568  0
H  H8  1  0.55565942  0.74447683  0.72024347  1  0  0.127077  0  0.960678  0  0  0.129751  0  1.029324  0  0  0.133884  0  1.026031  0  0  0.119974  0.126663  0  1.031896  0
H  H9  1  0.05565767  0.25552128  0.77976168  1  0  0.127094  0  0.960591  0  0  0.129708  0  1.029305  0  0  0.133839  0  1.026012  0  0  0.119941  0.126621  0  1.031872  0
H  H10  1  0.44433704  0.25552106  0.27975703  1  0  0.127092  0  0.960674  0  0  0.129724  0  1.029368  0  0  0.133858  0  1.026073  0  0  0.119969  0.12663  0  1.031937  0
H  H11  1  0.94433879  0.74447656  0.22023567  1  0  0.127125  0  0.96057  0  0  0.129741  0  1.029283  0  0  0.133873  0  1.025991  0  0  0.119953  0.126647  0  1.031858  0
H  H12  1  0.45041604  0.38660318  0.85673185  1  0  0.087267  0  0.992186  0  0  0.093871  0  1.062726  0  0  0.095955  0  1.063165  0  0  0.097112  0.092362  0  1.062513  0
H  H13  1  0.95041026  0.61339698  0.64326773  1  0  0.08723  0  0.992234  0  0  0.093852  0  1.062754  0  0  0.095935  0  1.063191  0  0  0.097123  0.092343  0  1.062543  0
H  H14  1  0.54958882  0.61339799  0.14326970  1  0  0.087236  0  0.992174  0  0  0.09386  0  1.062695  0  0  0.095945  0  1.063135  0  0  0.097131  0.092348  0  1.062482  0
H  H15  1  0.04959179  0.38660165  0.35672785  1  0  0.08722  0  0.992185  0  0  0.093851  0  1.062709  0  0  0.095936  0  1.063149  0  0  0.09712  0.092343  0  1.062493  0
H  H16  1  0.48160623  0.55715983  0.78631738  1  0  0.109277  0  0.979986  0  0  0.119025  0  1.042897  0  0  0.121323  0  1.042674  0  0  0.120298  0.117389  0  1.043116  0
H  H17  1  0.98159846  0.44283542  0.71368273  1  0  0.10919  0  0.980073  0  0  0.11899  0  1.042923  0  0  0.121289  0  1.042701  0  0  0.120289  0.117359  0  1.04314  0
H  H18  1  0.51839443  0.44283722  0.21368175  1  0  0.109227  0  0.980085  0  0  0.11901  0  1.042942  0  0  0.121308  0  1.04272  0  0  0.120307  0.117371  0  1.043174  0
H  H19  1  0.01839520  0.55715911  0.28631166  1  0  0.109203  0  0.980094  0  0  0.118991  0  1.042952  0  0  0.12129  0  1.04273  0  0  0.120279  0.117353  0  1.043173  0
H  H20  1  0.92838260  0.48887743  0.89775561  1  0  0.091207  0  0.929536  0  0  0.107383  0  0.991332  0  0  0.108276  0  0.990939  0  0  0.118795  0.106646  0  0.991763  0
H  H21  1  0.42837267  0.51112036  0.60224746  1  0  0.091151  0  0.929367  0  0  0.107281  0  0.991234  0  0  0.108173  0  0.990839  0  0  0.118745  0.106545  0  0.991664  0
H  H22  1  0.07162226  0.51112290  0.10224458  1  0  0.091142  0  0.929509  0  0  0.107318  0  0.991315  0  0  0.108211  0  0.990923  0  0  0.118753  0.106585  0  0.991743  0
H  H23  1  0.57162799  0.48887586  0.39775030  1  0  0.091131  0  0.929339  0  0  0.107232  0  0.991247  0  0  0.108123  0  0.990855  0  0  0.118711  0.106498  0  0.991677  0
H  H24  1  0.77441330  0.40922626  0.82429496  1  0  0.09716  0  0.940883  0  0  0.110163  0  1.005422  0  0  0.111577  0  1.004498  0  0  0.113532  0.109026  0  1.006224  0
H  H25  1  0.27440258  0.59077081  0.67570708  1  0  0.097093  0  0.940959  0  0  0.11012  0  1.005453  0  0  0.111514  0  1.004552  0  0  0.113523  0.10898  0  1.006252  0
H  H26  1  0.22559155  0.59077165  0.17570679  1  0  0.097139  0  0.940903  0  0  0.11012  0  1.005463  0  0  0.111535  0  1.004535  0  0  0.113519  0.108985  0  1.006267  0
H  H27  1  0.72559668  0.40922376  0.32428983  1  0  0.097067  0  0.940843  0  0  0.110102  0  1.005348  0  0  0.11152  0  1.004417  0  0  0.113511  0.108964  0  1.006148  0
H  H28  1  0.80105893  0.59969123  0.03452328  1  0  0.105865  0  0.93883  0  0  0.118981  0  0.995582  0  0  0.122082  0  0.994048  0  0  0.105716  0.116711  0  0.996804  0
H  H29  1  0.30105801  0.40030991  0.46547770  1  0  0.105921  0  0.938773  0  0  0.119066  0  0.995491  0  0  0.122167  0  0.993953  0  0  0.105751  0.116792  0  0.996703  0
H  H30  1  0.19894452  0.40031238  0.96547734  1  0  0.105917  0  0.938777  0  0  0.119033  0  0.995521  0  0  0.122132  0  0.993989  0  0  0.105755  0.116768  0  0.996736  0
H  H31  1  0.69894405  0.59968953  0.53451798  1  0  0.105885  0  0.938863  0  0  0.118997  0  0.995605  0  0  0.122096  0  0.994072  0  0  0.105748  0.11673  0  0.996821  0
H  H32  1  0.14428183  0.03783008  0.01581081  1  0  0.12459  0  0.947159  0  0  0.130697  0  1.01167  0  0  0.13481  0  1.008862  0  0  0.114688  0.127687  0  1.013852  0
H  H33  1  0.64428077  0.96217037  0.48419104  1  0  0.124592  0  0.947124  0  0  0.130679  0  1.011645  0  0  0.134809  0  1.008823  0  0  0.114682  0.127668  0  1.013826  0
H  H34  1  0.85571883  0.96217431  0.98418867  1  0  0.124613  0  0.947047  0  0  0.130701  0  1.011582  0  0  0.134793  0  1.008799  0  0  0.114689  0.127691  0  1.013771  0
H  H35  1  0.35571989  0.03782914  0.51580904  1  0  0.124581  0  0.947119  0  0  0.130666  0  1.011642  0  0  0.134798  0  1.008815  0  0  0.114671  0.127658  0  1.013826  0
H  H36  1  0.38968009  0.12333750  0.11785487  1  0  0.110138  0  0.938499  0  0  0.122465  0  0.994191  0  0  0.125203  0  0.992898  0  0  0.112668  0.120433  0  0.995214  0
H  H37  1  0.88968711  0.87666280  0.38214896  1  0  0.110144  0  0.93849  0  0  0.122457  0  0.994208  0  0  0.125184  0  0.992935  0  0  0.112644  0.120419  0  0.99523  0
H  H38  1  0.61031358  0.87666527  0.88214502  1  0  0.110104  0  0.938501  0  0  0.122462  0  0.994189  0  0  0.1252  0  0.992883  0  0  0.112668  0.120424  0  0.995216  0
H  H39  1  0.11032333  0.12333678  0.61785489  1  0  0.110128  0  0.938502  0  0  0.122455  0  0.9942  0  0  0.125199  0  0.992894  0  0  0.112663  0.120421  0  0.99523  0
H  H40  1  0.18008690  0.71049298  0.82487784  1  0  0.145222  0  0.947936  0  0  0.166044  0  1.005886  0  0  0.168532  0  1.004262  0  0  0.105403  0.164176  0  1.007169  0
H  H41  1  0.68007823  0.28950573  0.67512086  1  0  0.145217  0  0.948037  0  0  0.166081  0  1.005936  0  0  0.168569  0  1.004313  0  0  0.105422  0.164211  0  1.007219  0
H  H42  1  0.81991236  0.28950816  0.17512246  1  0  0.145232  0  0.947932  0  0  0.166056  0  1.005882  0  0  0.168545  0  1.004258  0  0  0.105402  0.164188  0  1.007167  0
H  H43  1  0.31991823  0.71049456  0.32487682  1  0  0.145245  0  0.947953  0  0  0.166053  0  1.005914  0  0  0.168541  0  1.004291  0  0  0.105431  0.164193  0  1.007182  0
H  H44  1  0.15386317  0.57560978  0.84522140  1  0  0.116318  0  0.969897  0  0  0.13108  0  1.042495  0  0  0.133027  0  1.042536  0  0  0.091891  0.129705  0  1.042466  0
H  H45  1  0.65385741  0.42438812  0.65477598  1  0  0.116392  0  0.9698  0  0  0.131177  0  1.042388  0  0  0.133124  0  1.042429  0  0  0.091933  0.129796  0  1.042365  0
H  H46  1  0.84613749  0.42438972  0.15477805  1  0  0.116336  0  0.969885  0  0  0.131099  0  1.042483  0  0  0.133046  0  1.042524  0  0  0.09188  0.129724  0  1.042457  0
H  H47  1  0.34614045  0.57561052  0.34522085  1  0  0.116369  0  0.969864  0  0  0.131145  0  1.04244  0  0  0.133093  0  1.042481  0  0  0.091921  0.129768  0  1.042417  0
H  H48  1  0.09088593  0.68842858  0.92562513  1  0  0.15719  0  0.950924  0  0  0.174177  0  1.012807  0  0  0.17809  0  1.009658  0  0  0.103521  0.171363  0  1.015047  0
H  H49  1  0.59087826  0.31156694  0.57437333  1  0  0.157215  0  0.95095  0  0  0.174274  0  1.012743  0  0  0.178187  0  1.009593  0  0  0.103564  0.171459  0  1.014975  0
H  H50  1  0.90911193  0.31156847  0.07437400  1  0  0.157186  0  0.950934  0  0  0.174206  0  1.012773  0  0  0.178117  0  1.009624  0  0  0.103551  0.171395  0  1.015007  0
H  H51  1  0.40911820  0.68843010  0.42562517  1  0  0.157198  0  0.950877  0  0  0.174212  0  1.012715  0  0  0.178127  0  1.009563  0  0  0.10354  0.171398  0  1.014953  0
C  C52  1  0.57534867  0.17175505  0.93224386  1  0  0.112287  0  3.720283  0  0  0.111843  0  3.959788  0  0  0.113542  0  3.978708  0  0  0.117711  0.110445  0  3.947191  0
C  C53  1  0.07535566  0.82824464  0.56775958  1  0  0.112294  0  3.720384  0  0  0.111987  0  3.959721  0  0  0.113689  0  3.978639  0  0  0.117771  0.110586  0  3.947133  0
C  C54  1  0.42464779  0.82824692  0.06775655  1  0  0.112361  0  3.720348  0  0  0.111958  0  3.959788  0  0  0.113659  0  3.978708  0  0  0.117724  0.110552  0  3.947194  0
C  C55  1  0.92465619  0.17175818  0.43224346  1  0  0.112317  0  3.720475  0  0  0.11183  0  3.95999  0  0  0.113534  0  3.978905  0  0  0.117749  0.110435  0  3.947384  0
C  C56  1  0.29025380  0.07847909  0.90675481  1  0  0.115377  0  3.727091  0  0  0.115707  0  3.965863  0  0  0.11644  0  3.984792  0  0  0.121195  0.114968  0  3.953279  0
C  C57  1  0.79024832  0.92152126  0.59324889  1  0  0.115301  0  3.72703  0  0  0.115615  0  3.965824  0  0  0.116349  0  3.984754  0  0  0.121179  0.114883  0  3.953241  0
C  C58  1  0.70974686  0.92152371  0.09324696  1  0  0.115302  0  3.727339  0  0  0.115625  0  3.966095  0  0  0.116358  0  3.98502  0  0  0.121214  0.114894  0  3.953501  0
C  C59  1  0.20974674  0.07847996  0.40675581  1  0  0.115349  0  3.727065  0  0  0.115659  0  3.965831  0  0  0.116389  0  3.984764  0  0  0.121128  0.11492  0  3.953247  0
C  C60  1  0.90082822  0.65566960  0.81980354  1  0  0.379124  0  3.682766  0  0  0.355648  0  3.948476  0  0  0.372275  0  3.962361  0  0  0.223355  0.344696  0  3.93868  0
C  C61  1  0.40082322  0.34432735  0.68019697  1  0  0.378909  0  3.682848  0  0  0.355471  0  3.948556  0  0  0.372094  0  3.962448  0  0  0.223297  0.34452  0  3.938753  0
C  C62  1  0.09917104  0.34432989  0.18019466  1  0  0.379122  0  3.682877  0  0  0.355671  0  3.948563  0  0  0.372301  0  3.962445  0  0  0.223343  0.344717  0  3.938769  0
C  C63  1  0.59917464  0.65566968  0.31980090  1  0  0.379097  0  3.682774  0  0  0.355637  0  3.948456  0  0  0.372264  0  3.962343  0  0  0.223359  0.34468  0  3.93867  0
C  C64  1  0.16761840  0.02283289  0.83479256  1  0  0.626289  0  3.892302  0  0  0.575906  0  4.181884  0  0  0.61025  0  4.17405  0  0  0.217526  0.552597  0  4.186513  0
C  C65  1  0.66761495  0.97716915  0.66520912  1  0  0.626431  0  3.892535  0  0  0.576077  0  4.182053  0  0  0.61042  0  4.17422  0  0  0.217602  0.552764  0  4.186685  0
C  C66  1  0.83237947  0.97716908  0.16520848  1  0  0.626432  0  3.892433  0  0  0.576043  0  4.182005  0  0  0.610388  0  4.174172  0  0  0.217586  0.552733  0  4.186629  0
C  C67  1  0.33238011  0.02283120  0.33479170  1  0  0.62628  0  3.892287  0  0  0.5759  0  4.181871  0  0  0.610245  0  4.174036  0  0  0.21753  0.552588  0  4.186499  0
C  C68  1  0.64112162  0.49171286  0.93860102  1  0  0.073796  0  3.760538  0  0  0.094557  0  3.995571  0  0  0.093757  0  4.019991  0  0  -0.011879  0.095066  0  3.979003  0
C  C69  1  0.14111631  0.50828669  0.56139662  1  0  0.073844  0  3.760538  0  0  0.094556  0  3.995617  0  0  0.093754  0  4.020039  0  0  -0.011848  0.095066  0  3.979045  0
C  C70  1  0.35888323  0.50828664  0.06139781  1  0  0.073878  0  3.76041  0  0  0.094582  0  3.995497  0  0  0.093782  0  4.019918  0  0  -0.011831  0.095092  0  3.978931  0
C  C71  1  0.85888715  0.49171274  0.43859844  1  0  0.073861  0  3.760546  0  0  0.094624  0  3.995527  0  0  0.093823  0  4.019948  0  0  -0.011815  0.095135  0  3.978962  0
C  C72  1  0.56121939  0.17136563  0.01946970  1  0  -0.096398  0  3.679057  0  0  -0.120322  0  3.929222  0  0  -0.123704  0  3.948584  0  0  -0.067082  -0.118093  0  3.916306  0
C  C73  1  0.06122641  0.82863899  0.48053414  1  0  -0.096362  0  3.679286  0  0  -0.120319  0  3.929417  0  0  -0.123698  0  3.948774  0  0  -0.067092  -0.118086  0  3.916493  0
C  C74  1  0.43877707  0.82863720  0.98053334  1  0  -0.096431  0  3.6793  0  0  -0.120369  0  3.929439  0  0  -0.123751  0  3.948803  0  0  -0.067098  -0.118141  0  3.916529  0
C  C75  1  0.93878683  0.17136875  0.51947080  1  0  -0.09645  0  3.679101  0  0  -0.120338  0  3.929286  0  0  -0.123721  0  3.94865  0  0  -0.067119  -0.118111  0  3.916373  0
C  C76  1  0.64591952  0.69819205  0.75527113  1  0  0.010564  0  3.734522  0  0  -0.025444  0  4.008988  0  0  -0.022654  0  4.026019  0  0  0.000136  -0.027262  0  3.997639  0
C  C77  1  0.14591670  0.30180350  0.74473098  1  0  0.010555  0  3.734541  0  0  -0.025396  0  4.009021  0  0  -0.022604  0  4.026054  0  0  0.000188  -0.027217  0  3.99767  0
C  C78  1  0.35407973  0.30180748  0.24472958  1  0  0.010697  0  3.734389  0  0  -0.025275  0  4.008865  0  0  -0.022486  0  4.025894  0  0  0.000217  -0.027081  0  3.997501  0
C  C79  1  0.85407697  0.69819433  0.25526575  1  0  0.010473  0  3.734622  0  0  -0.025491  0  4.00911  0  0  -0.022702  0  4.026143  0  0  0.000119  -0.027304  0  3.997746  0
C  C80  1  0.47113207  0.43695311  0.91956560  1  0  -0.115871  0  3.758128  0  0  -0.133892  0  4.00506  0  0  -0.137122  0  4.02788  0  0  -0.094753  -0.131647  0  3.989587  0
C  C81  1  0.97112696  0.56304701  0.58043267  1  0  -0.115881  0  3.758257  0  0  -0.133903  0  4.005208  0  0  -0.137128  0  4.028024  0  0  -0.094761  -0.131661  0  3.989738  0
C  C82  1  0.52887139  0.56304805  0.08043533  1  0  -0.115861  0  3.758092  0  0  -0.133874  0  4.005018  0  0  -0.137107  0  4.027842  0  0  -0.094786  -0.131622  0  3.989533  0
C  C83  1  0.02887649  0.43695241  0.41956175  1  0  -0.115954  0  3.75831  0  0  -0.134004  0  4.005248  0  0  -0.137236  0  4.028069  0  0  -0.094857  -0.131763  0  3.98977  0
C  C84  1  0.60749269  0.60520106  0.78636254  1  0  -0.074146  0  3.696582  0  0  -0.116951  0  3.962845  0  0  -0.116266  0  3.983048  0  0  -0.007368  -0.117437  0  3.949274  0
C  C85  1  0.10748312  0.39479285  0.71363754  1  0  -0.07412  0  3.696455  0  0  -0.116968  0  3.962713  0  0  -0.116281  0  3.982909  0  0  -0.007392  -0.117463  0  3.949155  0
C  C86  1  0.39250657  0.39479848  0.21363880  1  0  -0.074184  0  3.696609  0  0  -0.117021  0  3.962873  0  0  -0.116336  0  3.983075  0  0  -0.007432  -0.117521  0  3.949328  0
C  C87  1  0.89250915  0.60520170  0.28635811  1  0  -0.074087  0  3.696567  0  0  -0.116927  0  3.962827  0  0  -0.116239  0  3.983025  0  0  -0.007368  -0.117415  0  3.94926  0
C  C88  1  0.78768427  0.48607948  0.87050878  1  0  -0.047491  0  3.652994  0  0  -0.115169  0  3.899157  0  0  -0.110588  0  3.908877  0  0  -0.050191  -0.118152  0  3.892703  0
C  C89  1  0.28767407  0.51391757  0.62949260  1  0  -0.04738  0  3.652795  0  0  -0.115051  0  3.89905  0  0  -0.110446  0  3.908752  0  0  -0.050152  -0.11803  0  3.892594  0
C  C90  1  0.21231919  0.51391925  0.12949308  1  0  -0.047404  0  3.652985  0  0  -0.115044  0  3.899137  0  0  -0.110463  0  3.908859  0  0  -0.050142  -0.118036  0  3.892696  0
C  C91  1  0.71232379  0.48607861  0.37050327  1  0  -0.04731  0  3.652685  0  0  -0.114936  0  3.89883  0  0  -0.110354  0  3.90855  0  0  -0.050072  -0.117915  0  3.892374  0
C  C92  1  0.73789341  0.21961645  0.88903644  1  0  0.606861  0  3.953012  0  0  0.560028  0  4.252172  0  0  0.592532  0  4.245407  0  0  0.198817  0.538066  0  4.255905  0
C  C93  1  0.23789440  0.78038313  0.61096727  1  0  0.60668  0  3.953244  0  0  0.559797  0  4.252442  0  0  0.592298  0  4.245676  0  0  0.198652  0.537839  0  4.256173  0
C  C94  1  0.26210306  0.78038389  0.11096438  1  0  0.606925  0  3.952817  0  0  0.560052  0  4.252028  0  0  0.592555  0  4.245263  0  0  0.198797  0.538104  0  4.255748  0
C  C95  1  0.76210766  0.21961812  0.38903869  1  0  0.606765  0  3.953175  0  0  0.559958  0  4.252337  0  0  0.592458  0  4.24557  0  0  0.198739  0.537999  0  4.256063  0
C  C96  1  0.66982742  0.55524319  0.01943652  1  0  -0.108583  0  3.729852  0  0  -0.128285  0  3.973615  0  0  -0.130914  0  3.995188  0  0  -0.089735  -0.126388  0  3.958966  0
C  C97  1  0.16982771  0.44475962  0.48056121  1  0  -0.108657  0  3.729985  0  0  -0.128363  0  3.973767  0  0  -0.130991  0  3.995342  0  0  -0.089776  -0.126456  0  3.959106  0
C  C98  1  0.33017603  0.44475878  0.98056389  1  0  -0.108673  0  3.729797  0  0  -0.128359  0  3.973592  0  0  -0.130989  0  3.995162  0  0  -0.089801  -0.126464  0  3.958947  0
C  C99  1  0.83017295  0.55524143  0.51943344  1  0  -0.108603  0  3.729977  0  0  -0.128295  0  3.973724  0  0  -0.130924  0  3.995294  0  0  -0.089803  -0.126399  0  3.959081  0
C  C100  1  0.26577878  0.07662311  0.99320696  1  0  -0.084154  0  3.651114  0  0  -0.107041  0  3.902503  0  0  -0.109768  0  3.9202  0  0  -0.062704  -0.105237  0  3.890772  0
C  C101  1  0.76578396  0.92337723  0.50679554  1  0  -0.084144  0  3.651011  0  0  -0.106985  0  3.90239  0  0  -0.109731  0  3.920078  0  0  -0.062711  -0.105187  0  3.890655  0
C  C102  1  0.73422048  0.92338053  0.00679618  1  0  -0.08408  0  3.651013  0  0  -0.106945  0  3.902411  0  0  -0.109655  0  3.920116  0  0  -0.062681  -0.105153  0  3.890691  0
C  C103  1  0.23422369  0.07662392  0.49320476  1  0  -0.084147  0  3.651001  0  0  -0.106989  0  3.902374  0  0  -0.109732  0  3.920061  0  0  -0.062639  -0.105194  0  3.890657  0
C  C104  1  0.40340605  0.12495954  0.05004396  1  0  9e-05  0  3.668488  0  0  -0.021315  0  3.925316  0  0  -0.019419  0  3.943439  0  0  -0.06165  -0.022453  0  3.912985  0
C  C105  1  0.90341659  0.87504316  0.44995765  1  0  1.9e-05  0  3.668583  0  0  -0.021378  0  3.92543  0  0  -0.019482  0  3.943552  0  0  -0.061643  -0.022499  0  3.913083  0
C  C106  1  0.59658901  0.87504327  0.94995844  1  0  7.2e-05  0  3.668439  0  0  -0.02137  0  3.925291  0  0  -0.019468  0  3.943408  0  0  -0.061658  -0.022504  0  3.912968  0
C  C107  1  0.09659526  0.12496210  0.55004445  1  0  0.000136  0  3.668422  0  0  -0.021276  0  3.925233  0  0  -0.019383  0  3.943368  0  0  -0.061631  -0.022418  0  3.912918  0
C  C108  1  0.09159655  0.65766225  0.85608913  1  0  -0.41137  0  3.695425  0  0  -0.492363  0  3.934308  0  0  -0.496822  0  3.937468  0  0  -0.236521  -0.489052  0  3.932055  0
C  C109  1  0.59158956  0.34233412  0.64391132  1  0  -0.411435  0  3.695385  0  0  -0.49258  0  3.93431  0  0  -0.497038  0  3.937468  0  0  -0.236608  -0.489268  0  3.93206  0
C  C110  1  0.90840271  0.34233808  0.14391106  1  0  -0.411403  0  3.69544  0  0  -0.492445  0  3.934348  0  0  -0.496899  0  3.937502  0  0  -0.236541  -0.489139  0  3.932101  0
C  C111  1  0.40841110  0.65766212  0.35608770  1  0  -0.411471  0  3.695344  0  0  -0.492493  0  3.934244  0  0  -0.496952  0  3.937401  0  0  -0.236599  -0.489187  0  3.932003  0
N  N112  1  0.43940000  0.12731853  0.87940217  1  0  -0.355273  0  3.398499  0  0  -0.280106  0  3.654764  0  0  -0.296497  0  3.67117  0  0  -0.327749  -0.268965  0  3.643832  0
N  N113  1  0.93939987  0.87268005  0.62060036  1  0  -0.355252  0  3.398372  0  0  -0.280134  0  3.65462  0  0  -0.296525  0  3.671024  0  0  -0.327751  -0.269  0  3.643699  0
N  N114  1  0.56059507  0.87268340  0.12059635  1  0  -0.3554  0  3.398645  0  0  -0.280207  0  3.654865  0  0  -0.296599  0  3.67127  0  0  -0.327772  -0.269063  0  3.643928  0
N  N115  1  0.06059799  0.12732032  0.37940235  1  0  -0.355245  0  3.398454  0  0  -0.280039  0  3.654693  0  0  -0.296427  0  3.671094  0  0  -0.327723  -0.268891  0  3.643745  0
N  N116  1  0.82864202  0.72869102  0.77646006  1  0  -0.45045  0  3.272159  0  0  -0.373705  0  3.563865  0  0  -0.395255  0  3.575029  0  0  -0.364546  -0.359132  0  3.55605  0
N  N117  1  0.32863942  0.27130929  0.72354293  1  0  -0.450466  0  3.272465  0  0  -0.373716  0  3.564111  0  0  -0.395268  0  3.575283  0  0  -0.364571  -0.359132  0  3.556274  0
N  N118  1  0.17135305  0.27130685  0.22353918  1  0  -0.45052  0  3.272147  0  0  -0.373768  0  3.563809  0  0  -0.395319  0  3.574974  0  0  -0.364554  -0.359186  0  3.555977  0
N  N119  1  0.67135844  0.72869021  0.27645589  1  0  -0.450463  0  3.272412  0  0  -0.373688  0  3.56403  0  0  -0.395237  0  3.575197  0  0  -0.364523  -0.359106  0  3.556198  0
N  N120  1  0.76882344  0.57899290  0.82618262  1  0  -0.116858  0  3.531121  0  0  -0.024891  0  3.744304  0  0  -0.04077  0  3.769809  0  0  -0.242231  -0.014359  0  3.726945  0
N  N121  1  0.26881285  0.42100169  0.67381723  1  0  -0.116534  0  3.530727  0  0  -0.024571  0  3.743865  0  0  -0.040448  0  3.769369  0  0  -0.242109  -0.01404  0  3.726509  0
N  N122  1  0.23117722  0.42100578  0.17381673  1  0  -0.1168  0  3.531197  0  0  -0.024843  0  3.744373  0  0  -0.040724  0  3.769879  0  0  -0.242196  -0.01431  0  3.727019  0
N  N123  1  0.73117941  0.57899449  0.32617865  1  0  -0.116704  0  3.530986  0  0  -0.02475  0  3.744164  0  0  -0.04063  0  3.769672  0  0  -0.242163  -0.014223  0  3.726812  0
O  O124  1  0.05407297  0.94987028  0.85173944  1  0  -0.60125  0  2.013633  0  0  -0.52682  0  2.267125  0  0  -0.555487  0  2.253956  0  0  -0.311474  -0.506778  0  2.275478  0
O  O125  1  0.55408011  0.05013184  0.64826186  1  0  -0.601247  0  2.013818  0  0  -0.526835  0  2.267307  0  0  -0.555501  0  2.254142  0  0  -0.311503  -0.506791  0  2.27566  0
O  O126  1  0.94592070  0.05013331  0.14826057  1  0  -0.601281  0  2.013629  0  0  -0.526831  0  2.267112  0  0  -0.555499  0  2.253943  0  0  -0.31149  -0.506793  0  2.275467  0
O  O127  1  0.44592334  0.94986523  0.35173852  1  0  -0.601257  0  2.013608  0  0  -0.526819  0  2.267098  0  0  -0.555488  0  2.253934  0  0  -0.311514  -0.506777  0  2.275451  0
O  O128  1  0.71512497  0.21976287  0.80879976  1  0  -0.654801  0  1.997348  0  0  -0.593261  0  2.253326  0  0  -0.620823  0  2.241604  0  0  -0.333228  -0.573746  0  2.260475  0
O  O129  1  0.21512095  0.78023588  0.69120263  1  0  -0.654749  0  1.997383  0  0  -0.593186  0  2.253361  0  0  -0.620756  0  2.24166  0  0  -0.333163  -0.573672  0  2.260512  0
O  O130  1  0.28487569  0.78023582  0.19120021  1  0  -0.654878  0  1.997292  0  0  -0.593338  0  2.253311  0  0  -0.620894  0  2.241574  0  0  -0.333237  -0.57383  0  2.260461  0
O  O131  1  0.78487551  0.21976371  0.30880185  1  0  -0.65475  0  1.997361  0  0  -0.593229  0  2.253323  0  0  -0.620804  0  2.241634  0  0  -0.3332  -0.573715  0  2.260464  0
O  O132  1  0.19127822  0.04640535  0.76198539  1  0  -0.596606  0  1.976035  0  0  -0.543175  0  2.224343  0  0  -0.567883  0  2.212057  0  0  -0.300596  -0.526017  0  2.232296  0
O  O133  1  0.69126986  0.95359746  0.73801508  1  0  -0.596666  0  1.97607  0  0  -0.543268  0  2.224399  0  0  -0.567977  0  2.212113  0  0  -0.300618  -0.526108  0  2.232348  0
O  O134  1  0.80872384  0.95359580  0.23801491  1  0  -0.596625  0  1.976107  0  0  -0.543222  0  2.224446  0  0  -0.56793  0  2.21216  0  0  -0.300632  -0.526065  0  2.232391  0
O  O135  1  0.30871961  0.04640447  0.26198344  1  0  -0.596549  0  1.976035  0  0  -0.543129  0  2.224344  0  0  -0.567837  0  2.212055  0  0  -0.300538  -0.525971  0  2.232293  0
O  O136  1  0.87676985  0.25552563  0.93309345  1  0  -0.600973  0  1.881057  0  0  -0.560925  0  2.094401  0  0  -0.583147  0  2.087674  0  0  -0.331207  -0.545262  0  2.098439  0
O  O137  1  0.37676851  0.74447144  0.56691277  1  0  -0.600875  0  1.881166  0  0  -0.560839  0  2.094554  0  0  -0.583062  0  2.08783  0  0  -0.33114  -0.545171  0  2.098589  0
O  O138  1  0.12322801  0.74447390  0.06690726  1  0  -0.60096  0  1.880984  0  0  -0.560901  0  2.094363  0  0  -0.583126  0  2.087638  0  0  -0.331189  -0.545244  0  2.0984  0
O  O139  1  0.62323354  0.25552577  0.43309516  1  0  -0.60094  0  1.881154  0  0  -0.560893  0  2.094486  0  0  -0.583115  0  2.087763  0  0  -0.331179  -0.545237  0  2.098524  0
