# generated using pymatgen
data_MgH3C8O3
_symmetry_space_group_name_H-M   'P 1'
_cell_length_a   6.86204312
_cell_length_b   24.66706913
_cell_length_c   24.66796201
_cell_angle_alpha   119.14313741
_cell_angle_beta   95.32508223
_cell_angle_gamma   95.31916411
_symmetry_Int_Tables_number   1
_chemical_formula_structural   MgH3C8O3
_chemical_formula_sum   'Mg6 H18 C48 O18'
_cell_volume   3585.18820681
_cell_formula_units_Z   6
loop_
 _symmetry_equiv_pos_site_id
 _symmetry_equiv_pos_as_xyz
  1  'x, y, z'
loop_
 _atom_site_type_symbol
 _atom_site_label
 _atom_site_symmetry_multiplicity
 _atom_site_fract_x
 _atom_site_fract_y
 _atom_site_fract_z
 _atom_site_occupancy
 _atom_site_pbe_bader_charge
 _atom_site_pbe_bader_spin_density
 _atom_site_pbe_cm5_charge
 _atom_site_pbe_ddec_charge
 _atom_site_pbe_ddec_spin_density
 _atom_site_pbe_ddec_sum_bond_order
 _atom_site_pbe_magmom
Mg  Mg0  1  0.89084509  0.67183984  0.29351556  1  1.683869  0  0.906459  1.408703  0  1.32805  0
Mg  Mg1  1  0.70553742  0.32452676  0.70426074  1  1.683649  0  0.90577  1.409546  0  1.325735  0
Mg  Mg2  1  0.59732178  0.70647549  0.37829350  1  1.683158  0  0.906286  1.408776  0  1.327455  0
Mg  Mg3  1  0.00129337  0.29574256  0.62028934  1  1.682816  0  0.905878  1.409505  0  1.326163  0
Mg  Mg4  1  0.21894128  0.62168384  0.32816280  1  1.684732  0  0.906286  1.408745  0  1.327625  0
Mg  Mg5  1  0.38102803  0.37972099  0.67548312  1  1.68489  0  0.905784  1.409009  0  1.326873  0
H  H6  1  0.20491418  0.11970918  0.51372619  1  0.093351  0  0.107768  0.112694  0  1.001519  0
H  H7  1  0.37241878  0.02495545  0.46827611  1  0.082415  0  0.103429  0.110485  0  1.013254  0
H  H8  1  0.92221763  0.14113175  0.58532110  1  0.088442  0  0.109684  0.132216  0  0.999565  0
H  H9  1  0.67024308  0.85691203  0.40290445  1  0.084712  0  0.10968  0.132151  0  1.000343  0
H  H10  1  0.38921660  0.88325046  0.47586580  1  0.088722  0  0.107487  0.112272  0  1.001347  0
H  H11  1  0.21802264  0.97728240  0.51696457  1  0.059335  0  0.102584  0.109525  0  1.015757  0
H  H12  1  0.69119259  0.48627085  0.60599762  1  0.08294  0  0.107847  0.112524  0  1.001474  0
H  H13  1  0.90408384  0.53171880  0.55666189  1  0.082123  0  0.103431  0.11072  0  1.01328  0
H  H14  1  0.33694364  0.41468223  0.55579297  1  0.079652  0  0.109593  0.132269  0  0.999101  0
H  H15  1  0.26725543  0.59706628  0.45397756  1  0.083082  0  0.10981  0.132126  0  1.000727  0
H  H16  1  0.91333430  0.52414283  0.40740549  1  0.103982  0  0.107687  0.112086  0  1.001722  0
H  H17  1  0.70112444  0.48304654  0.46036382  1  0.054948  0  0.102425  0.109698  0  1.015846  0
H  H18  1  0.08512619  0.39402971  0.88027794  1  0.085552  0  0.10784  0.112455  0  1.001888  0
H  H19  1  0.34738874  0.44330495  0.97504164  1  0.085512  0  0.103573  0.111162  0  1.012775  0
H  H20  1  0.78112663  0.44422990  0.85893724  1  0.093453  0  0.109564  0.132243  0  0.999658  0
H  H21  1  0.81329765  0.54600831  0.14310038  1  0.09596  0  0.110041  0.132606  0  1.000397  0
H  H22  1  0.50586774  0.59261982  0.11672899  1  0.089886  0  0.10748  0.112165  0  1.001876  0
H  H23  1  0.24065452  0.53967943  0.02271667  1  0.065519  0  0.102801  0.109897  0  1.015694  0
C  C24  1  0.67405096  0.19013882  0.59479901  1  0.625106  0  0.095208  0.369619  0  4.087445  0
C  C25  1  0.46594677  0.18331496  0.57442862  1  -0.054122  0  -0.039483  -0.205396  0  3.947046  0
C  C26  1  0.36229330  0.12335336  0.52888641  1  0.001665  0  -0.083065  -0.06276  0  4.022341  0
C  C27  1  0.45424851  0.07075293  0.50371343  1  -0.088178  0  -0.098348  -0.164741  0  3.980388  0
C  C28  1  0.65845289  0.07664117  0.52475266  1  0.102936  0  0.00466  0.170723  0  4.138588  0
C  C29  1  0.76474335  0.13591836  0.56931031  1  0.009679  0  -0.097358  -0.258103  0  3.879402  0
C  C30  1  0.75408787  0.02305472  0.50188939  1  -0.077476  0  -0.037772  -0.095777  0  4.090271  0
C  C31  1  0.83515477  0.97651249  0.48312329  1  -0.275125  0  -0.037556  -0.095633  0  4.089594  0
C  C32  1  0.93273608  0.92337302  0.46173980  1  0.001894  0  0.004637  0.169452  0  4.137617  0
C  C33  1  0.82807526  0.86322690  0.41914310  1  0.020393  0  -0.097836  -0.25776  0  3.880554  0
C  C34  1  0.92062296  0.80937669  0.39643222  1  0.587528  0  0.095159  0.368826  0  4.089956  0
C  C35  1  0.12910858  0.81754260  0.41714522  1  -0.000487  0  -0.039912  -0.206298  0  3.948685  0
C  C36  1  0.23145726  0.87850668  0.46033780  1  -0.074388  0  -0.082758  -0.062549  0  4.021621  0
C  C37  1  0.13756347  0.93072039  0.48308680  1  0.053265  0  -0.098371  -0.163407  0  3.978764  0
C  C38  1  0.24251087  0.76493529  0.39674155  1  1.5158  0  0.23675  0.675211  0  4.126778  0
C  C39  1  0.35388674  0.23635033  0.59800198  1  1.520396  0  0.236134  0.673929  0  4.124901  0
C  C40  1  0.07931973  0.40521112  0.59533195  1  0.59372  0  0.09446  0.368464  0  4.087699  0
C  C41  1  0.89153790  0.42555944  0.60888042  1  -0.0491  0  -0.038619  -0.20376  0  3.945432  0
C  C42  1  0.83338420  0.47110125  0.59445745  1  -0.031427  0  -0.083102  -0.062782  0  4.023043  0
C  C43  1  0.95040117  0.49625389  0.56699505  1  -0.00636  0  -0.098921  -0.165518  0  3.9804  0
C  C44  1  0.13353611  0.47520661  0.55184144  1  0.094094  0  0.004826  0.170718  0  4.135257  0
C  C45  1  0.19545190  0.43066944  0.56657098  1  -0.01906  0  -0.097302  -0.258208  0  3.878086  0
C  C46  1  0.25210544  0.49813769  0.52117869  1  -0.005305  0  -0.038063  -0.095632  0  4.089635  0
C  C47  1  0.35207976  0.51690649  0.49343951  1  -0.356131  0  -0.037522  -0.09659  0  4.09096  0
C  C48  1  0.47099206  0.53825710  0.46165194  1  0.083071  0  0.005338  0.17138  0  4.137047  0
C  C49  1  0.40880203  0.58080446  0.44403327  1  -0.006831  0  -0.09815  -0.25785  0  3.881059  0
C  C50  1  0.52402166  0.60349298  0.41287864  1  0.602834  0  0.095002  0.368582  0  4.090872  0
C  C51  1  0.71186852  0.58282032  0.40036874  1  -0.046789  0  -0.040061  -0.206492  0  3.948408  0
C  C52  1  0.77109221  0.53966319  0.41819009  1  -0.042843  0  -0.082362  -0.060595  0  4.01991  0
C  C53  1  0.65446984  0.51692026  0.44766725  1  0.036562  0  -0.098903  -0.16579  0  3.978434  0
C  C54  1  0.84569666  0.60322512  0.36817080  1  1.498568  0  0.236041  0.674317  0  4.127719  0
C  C55  1  0.75598535  0.40198151  0.63835010  1  1.498964  0  0.235571  0.673183  0  4.126381  0
C  C56  1  0.48398156  0.40466808  0.80989449  1  0.56467  0  0.09511  0.368881  0  4.087862  0
C  C57  1  0.28261537  0.39114621  0.81668813  1  0.006829  0  -0.039436  -0.205203  0  3.945984  0
C  C58  1  0.23885754  0.40554283  0.87663684  1  -0.002182  0  -0.083198  -0.062253  0  4.023612  0
C  C59  1  0.38335742  0.43295124  0.92924090  1  -0.07084  0  -0.098379  -0.16584  0  3.982005  0
C  C60  1  0.58163775  0.44813209  0.92337795  1  0.087827  0  0.004995  0.171315  0  4.137483  0
C  C61  1  0.62883957  0.43343878  0.86412878  1  -0.001122  0  -0.097774  -0.258596  0  3.879139  0
C  C62  1  0.73074152  0.47880451  0.97699515  1  0.022605  0  -0.038113  -0.095693  0  4.089569  0
C  C63  1  0.85845495  0.50657413  0.02351099  1  -0.393077  0  -0.037932  -0.096949  0  4.089961  0
C  C64  1  0.00924437  0.53836771  0.07662881  1  0.108652  0  0.005137  0.171123  0  4.137894  0
C  C65  1  0.96478379  0.55593966  0.13678348  1  -0.004973  0  -0.098291  -0.258614  0  3.880802  0
C  C66  1  0.11119720  0.58710085  0.19062400  1  0.583396  0  0.095208  0.369585  0  4.088499  0
C  C67  1  0.31156006  0.59964167  0.18246355  1  -0.040352  0  -0.040107  -0.206917  0  3.948148  0
C  C68  1  0.35286207  0.58183954  0.12148560  1  0.001965  0  -0.082867  -0.061801  0  4.021817  0
C  C69  1  0.20670603  0.55237478  0.06927835  1  -0.023172  0  -0.098418  -0.164774  0  3.979548  0
C  C70  1  0.47755438  0.63182378  0.23506433  1  1.484322  0  0.23669  0.675345  0  4.126337  0
C  C71  1  0.11758386  0.36166453  0.76364693  1  1.481347  0  0.235987  0.674388  0  4.126618  0
O  O72  1  0.42634922  0.77397988  0.41774090  1  -1.245024  0  -0.354634  -0.644144  0  2.151382  0
O  O73  1  0.15108479  0.70885937  0.35639801  1  -1.304032  0  -0.404073  -0.770367  0  2.414878  0
O  O74  1  0.80792245  0.75339844  0.35690033  1  -1.316486  0  -0.447856  -0.776163  0  2.300346  0
O  O75  1  0.17080042  0.22874666  0.57695521  1  -1.247349  0  -0.354289  -0.6439  0  2.150264  0
O  O76  1  0.44556628  0.29126058  0.64135099  1  -1.306241  0  -0.403408  -0.77011  0  2.41169  0
O  O77  1  0.78780249  0.24515738  0.63668507  1  -1.318054  0  -0.448525  -0.778094  0  2.30011  0
O  O78  1  0.00848092  0.58220198  0.35619860  1  -1.239353  0  -0.354186  -0.643675  0  2.151351  0
O  O79  1  0.79471630  0.64360603  0.35246619  1  -1.295737  0  -0.403621  -0.77012  0  2.415345  0
O  O80  1  0.45091820  0.64304177  0.39643663  1  -1.311314  0  -0.447816  -0.776159  0  2.301059  0
O  O81  1  0.59393789  0.42301805  0.65179090  1  -1.2402  0  -0.354198  -0.643752  0  2.151008  0
O  O82  1  0.80429799  0.35861891  0.64990505  1  -1.300193  0  -0.403437  -0.769985  0  2.411968  0
O  O83  1  0.15119084  0.36335709  0.60851628  1  -1.308259  0  -0.447833  -0.777012  0  2.300421  0
O  O84  1  0.65234124  0.64377458  0.22602065  1  -1.233084  0  -0.354278  -0.644146  0  2.152357  0
O  O85  1  0.44218818  0.64754365  0.29113665  1  -1.29773  0  -0.404176  -0.770326  0  2.414607  0
O  O86  1  0.05452257  0.60355029  0.24660353  1  -1.308391  0  -0.448288  -0.776833  0  2.300491  0
O  O87  1  0.94212612  0.34820626  0.77124851  1  -1.242154  0  -0.354294  -0.644292  0  2.150537  0
O  O88  1  0.15434986  0.35011222  0.70873885  1  -1.30034  0  -0.403382  -0.770159  0  2.412875  0
O  O89  1  0.54270943  0.39148640  0.75486306  1  -1.307508  0  -0.44783  -0.777096  0  2.300748  0
