# generated using pymatgen
data_MnH12C18(NO2)2
_symmetry_space_group_name_H-M   'P 1'
_cell_length_a   8.64535133
_cell_length_b   9.96078338
_cell_length_c   11.58179990
_cell_angle_alpha   91.37945575
_cell_angle_beta   112.60743907
_cell_angle_gamma   112.90311066
_symmetry_Int_Tables_number   1
_chemical_formula_structural   MnH12C18(NO2)2
_chemical_formula_sum   'Mn2 H24 C36 N4 O8'
_cell_volume   830.26059094
_cell_formula_units_Z   2
loop_
 _symmetry_equiv_pos_site_id
 _symmetry_equiv_pos_as_xyz
  1  'x, y, z'
loop_
 _atom_site_type_symbol
 _atom_site_label
 _atom_site_symmetry_multiplicity
 _atom_site_fract_x
 _atom_site_fract_y
 _atom_site_fract_z
 _atom_site_occupancy
 _atom_site_hle17_ddec_charge
 _atom_site_hle17_ddec_spin_density
 _atom_site_hle17_ddec_sum_bond_order
 _atom_site_hle17_magmom
 _atom_site_hse06_10hf_ddec_charge
 _atom_site_hse06_10hf_ddec_spin_density
 _atom_site_hse06_10hf_ddec_sum_bond_order
 _atom_site_hse06_10hf_magmom
 _atom_site_hse06_ddec_charge
 _atom_site_hse06_ddec_spin_density
 _atom_site_hse06_ddec_sum_bond_order
 _atom_site_hse06_magmom
 _atom_site_pbe_cm5_charge
 _atom_site_pbe_ddec_charge
 _atom_site_pbe_ddec_spin_density
 _atom_site_pbe_ddec_sum_bond_order
 _atom_site_pbe_magmom
Mn  Mn0  1  0.49546759  0.37872151  0.35173001  1  1.095026  4.784155  1.88075  4.656  0.926147  4.698418  2.398194  4.499  0.98466  4.75167  2.325629  4.575  0.615937  0.885232  4.635167  2.45006  4.413
Mn  Mn1  1  0.50453454  0.62126754  0.64826745  1  1.09495  4.784126  1.880887  4.656  0.926036  4.698336  2.398434  4.498  0.984545  4.751605  2.325868  4.575  0.615907  0.885195  4.635061  2.450171  4.413
H  H2  1  0.48540403  0.55189770  0.14227602  1  0.083928  -1.2e-05  0.941867  0.0  0.092029  0.000355  1.006578  0.0  0.094873  0.000207  1.003663  0.0  0.11923  0.089832  0.000514  1.009087  0.001
H  H3  1  0.51461116  0.44808246  0.85770615  1  0.084054  -1.6e-05  0.94168  0.0  0.092181  0.000355  1.006357  0.0  0.095035  0.000207  1.003427  0.0  0.119243  0.089978  0.000514  1.008873  0.001
H  H4  1  0.29395190  0.53812370  0.91447554  1  0.116921  -3.1e-05  0.988908  0.0  0.121273  2.2e-05  1.058388  0.0  0.125366  -7.3e-05  1.056415  0.0  0.10719  0.118289  0.000103  1.059816  0.0
H  H5  1  0.70606430  0.46186975  0.08551678  1  0.116801  -3.5e-05  0.988823  0.0  0.121155  2.2e-05  1.058324  0.0  0.125248  -7.4e-05  1.056353  0.0  0.107143  0.118151  0.000102  1.059775  0.0
H  H6  1  0.83619931  0.17653821  0.94579140  1  0.107212  0.000193  0.973645  0.0  0.115712  0.000314  1.037404  0.0  0.118224  0.000222  1.03789  0.0  0.105554  0.113863  0.000398  1.03724  0.0
H  H7  1  0.16379862  0.82350141  0.05421910  1  0.107198  0.000198  0.973698  0.0  0.115635  0.000314  1.037505  0.0  0.118149  0.000222  1.037992  0.0  0.105533  0.113788  0.000398  1.03735  0.0
H  H8  1  0.05128181  0.20529705  0.17161598  1  0.083068  -0.000128  0.92737  0.0  0.092245  0.000223  0.988437  0.0  0.094822  8.2e-05  0.986204  0.0  0.120706  0.090372  0.000381  0.990051  0.0
H  H9  1  0.94873142  0.79472677  0.82838317  1  0.083043  -0.000124  0.927294  0.0  0.092165  0.000223  0.988432  0.0  0.094744  8.2e-05  0.9862  0.0  0.120685  0.0903  0.000381  0.990043  0.0
H  H10  1  0.11591670  0.56314036  0.76120875  1  0.122152  -5.5e-05  0.979129  0.0  0.130208  -4.4e-05  1.039883  0.0  0.134445  -0.00014  1.037777  0.0  0.109574  0.127097  5.5e-05  1.041413  0.0
H  H11  1  0.88409456  0.43686665  0.23878676  1  0.122174  -6e-05  0.979098  0.0  0.130244  -4.4e-05  1.039843  0.0  0.134487  -0.000139  1.037735  0.0  0.109609  0.127132  5.5e-05  1.04137  0.0
H  H12  1  0.90918447  0.55022115  0.54126475  1  0.07377  0.000138  0.946448  0.0  0.084215  0.000753  1.006486  0.0  0.085748  0.000505  1.005636  0.0  0.119648  0.082955  0.000996  1.007614  0.001
H  H13  1  0.09082023  0.44977461  0.45873367  1  0.07372  0.00013  0.946352  0.0  0.084173  0.000752  1.0064  0.0  0.085702  0.000505  1.005569  0.0  0.119605  0.082912  0.000995  1.007531  0.001
H  H14  1  0.51081860  0.13771681  0.52123609  1  0.080558  7.5e-05  0.933903  0.0  0.090369  0.000563  0.995639  0.0  0.092372  0.000371  0.994403  0.0  0.120101  0.088917  0.00074  0.99662  0.001
H  H15  1  0.48918351  0.86230884  0.47878826  1  0.080551  7.4e-05  0.933857  0.0  0.090396  0.000562  0.995561  0.0  0.092402  0.000371  0.994332  0.0  0.120084  0.088936  0.00074  0.996548  0.001
H  H16  1  0.70462276  0.12505326  0.73924710  1  0.117353  0.000114  0.987853  0.0  0.12177  0.000192  1.057486  0.0  0.126343  7e-05  1.054706  0.0  0.104231  0.118434  0.000304  1.059547  0.0
H  H17  1  0.29538023  0.87498036  0.26077427  1  0.117338  0.000114  0.987771  0.0  0.121682  0.000192  1.057501  0.0  0.126258  7e-05  1.054716  0.0  0.104176  0.118349  0.000304  1.059563  0.0
H  H18  1  0.43357309  0.22016140  0.95994619  1  0.094001  -0.000106  0.953111  0.0  0.105928  -3.2e-05  1.012597  0.0  0.108808  -6.7e-05  1.011595  0.0  0.102709  0.103756  3.2e-05  1.013655  0.0
H  H19  1  0.56643062  0.77979800  0.04006218  1  0.094084  -0.000103  0.952776  0.0  0.106043  -3.2e-05  1.012243  0.0  0.108912  -6.7e-05  1.011255  0.0  0.102801  0.10386  3.2e-05  1.0133  0.0
H  H20  1  0.57350228  0.93619806  0.21563392  1  0.098395  -0.000122  0.945536  0.0  0.110155  -3.6e-05  1.003438  0.0  0.112907  -6.4e-05  1.002842  0.0  0.104595  0.108252  1.4e-05  1.00392  0.0
H  H21  1  0.42650983  0.06377891  0.78438869  1  0.09835  -0.000118  0.945993  0.0  0.110175  -3.6e-05  1.003782  0.0  0.112913  -6.4e-05  1.003197  0.0  0.104635  0.10828  1.4e-05  1.004271  0.0
H  H22  1  0.86365056  0.95091720  0.65754191  1  0.108489  -0.000484  0.952992  0.0  0.11685  -0.000501  1.01622  0.0  0.120811  -0.000511  1.013439  0.0  0.10728  0.113713  -0.000476  1.018706  0.0
H  H23  1  0.13631645  0.04907166  0.34244236  1  0.108442  -0.000474  0.952865  0.0  0.116847  -0.000501  1.016058  0.0  0.12082  -0.000511  1.013259  0.0  0.107228  0.113714  -0.000476  1.018523  0.0
H  H24  1  0.89508854  0.79424829  0.32161112  1  0.097239  -0.000225  0.957654  0.0  0.105232  -0.000141  1.021375  0.0  0.108646  -0.000187  1.019937  0.0  0.099945  0.102596  -8.7e-05  1.022828  0.0
H  H25  1  0.10487547  0.20574405  0.67837147  1  0.097352  -0.000227  0.957532  0.0  0.105346  -0.000141  1.021255  0.0  0.108754  -0.000187  1.019814  0.0  0.100027  0.102687  -8.7e-05  1.022747  0.0
C  C26  1  0.34046981  0.47038600  0.09413588  1  0.129583  0.0023  3.71434  0.002  0.099164  0.004587  3.968067  0.004  0.105826  0.003592  3.986685  0.003  0.048665  0.09415  0.00587  3.956435  0.004
C  C27  1  0.65955897  0.52960951  0.90585597  1  0.12946  0.0023  3.713861  0.002  0.099039  0.004593  3.96758  0.004  0.1057  0.003594  3.986197  0.003  0.048739  0.094022  0.005876  3.955952  0.004
C  C28  1  0.23209152  0.46218900  0.96719351  1  -0.171893  -0.000526  3.703  0.0  -0.189574  0.000371  3.952109  0.0  -0.197823  -0.000317  3.973463  0.0  -0.085423  -0.184263  0.001394  3.938517  0.001
C  C29  1  0.76795621  0.53782719  0.03281585  1  -0.171671  -0.000472  3.702769  0.0  -0.189351  0.000371  3.951815  0.0  -0.1976  -0.000311  3.97317  0.0  -0.085389  -0.18402  0.001397  3.938222  0.001
C  C30  1  0.04551008  0.35561441  0.90875379  1  0.094748  0.001734  3.752406  0.001  0.107256  0.003651  3.979153  0.003  0.110957  0.002712  4.00092  0.002  0.011597  0.104666  0.005504  3.964818  0.004
C  C31  1  0.95451240  0.64440658  0.09126189  1  0.094635  0.001705  3.753285  0.001  0.107234  0.003653  3.980038  0.003  0.110936  0.002708  4.001802  0.002  0.011552  0.104645  0.005505  3.965699  0.004
C  C32  1  0.97953005  0.26103373  0.98399139  1  -0.156434  -0.00024  3.688964  0.0  -0.172478  0.000599  3.929561  0.001  -0.179873  -0.000155  3.95102  0.0  -0.080382  -0.167823  0.001838  3.915371  0.001
C  C33  1  0.02048372  0.73899193  0.01602439  1  -0.156449  -0.000232  3.688848  0.0  -0.17243  0.000599  3.929398  0.001  -0.179825  -0.00015  3.950857  0.0  -0.080382  -0.167776  0.001841  3.915215  0.001
C  C34  1  0.09861899  0.27679219  0.11071558  1  0.133683  0.00243  3.700882  0.003  0.10481  0.004423  3.95219  0.004  0.111639  0.003499  3.970276  0.003  0.054365  0.100155  0.005472  3.940118  0.005
C  C35  1  0.90139460  0.72322140  0.88928599  1  0.133774  0.002409  3.700497  0.003  0.104959  0.004425  3.951777  0.004  0.111784  0.003498  3.969869  0.003  0.05438  0.1003  0.005475  3.939723  0.005
C  C36  1  0.92587556  0.34811224  0.77478365  1  0.094937  0.004054  3.744393  0.003  0.106369  0.005975  3.974174  0.005  0.110651  0.004872  3.995234  0.004  0.012312  0.103192  0.008369  3.960295  0.006
C  C37  1  0.07411859  0.65190650  0.22520615  1  0.095177  0.004024  3.744462  0.003  0.106343  0.005978  3.974604  0.005  0.110625  0.004874  3.995659  0.004  0.012385  0.103162  0.008375  3.960732  0.006
C  C38  1  0.98225328  0.46623987  0.71415243  1  -0.146241  -0.003538  3.674394  -0.002  -0.166562  -0.001805  3.922467  -0.001  -0.173641  -0.002889  3.941488  -0.001  -0.077167  -0.16191  -0.000727  3.910359  0.0
C  C39  1  0.01774899  0.53377760  0.28583720  1  -0.146377  -0.003477  3.673939  -0.002  -0.166656  -0.001806  3.922163  -0.001  -0.173742  -0.002894  3.941188  -0.001  -0.077254  -0.161998  -0.000728  3.910045  0.0
C  C40  1  0.86658659  0.45992736  0.58980946  1  0.141971  0.005021  3.712734  0.005  0.112237  0.007435  3.967777  0.006  0.119566  0.00619  3.985494  0.005  0.052633  0.106804  0.009217  3.956837  0.007
C  C41  1  0.13341830  0.54007970  0.41018845  1  0.141844  0.005015  3.712228  0.005  0.112111  0.007442  3.967293  0.006  0.119434  0.0062  3.985016  0.005  0.052506  0.106676  0.009226  3.956359  0.007
C  C42  1  0.64567285  0.23017367  0.57912870  1  0.134107  0.004728  3.701351  0.005  0.105364  0.006838  3.951696  0.006  0.111712  0.005799  3.971187  0.005  0.051441  0.100879  0.008227  3.939151  0.007
C  C43  1  0.35431785  0.76984013  0.42088066  1  0.133908  0.004699  3.701018  0.005  0.105147  0.006845  3.951339  0.006  0.111486  0.005808  3.970842  0.005  0.051367  0.10066  0.008236  3.938798  0.007
C  C44  1  0.75399049  0.22569806  0.70275164  1  -0.160492  -0.003158  3.680765  -0.002  -0.176811  -0.001236  3.926525  0.0  -0.184952  -0.002357  3.947167  -0.001  -0.080337  -0.171703  0.00025  3.913467  0.0
C  C45  1  0.24598921  0.77431385  0.29725089  1  -0.160399  -0.003119  3.680237  -0.002  -0.17659  -0.001236  3.926112  0.0  -0.184731  -0.002361  3.946756  -0.001  -0.080263  -0.171488  0.00025  3.913059  0.0
C  C46  1  0.46342559  0.12381894  0.97685141  1  -0.08371  0.000645  3.749376  0.001  -0.105827  0.001493  3.996539  0.001  -0.106712  0.000952  4.01591  0.001  -0.08754  -0.104981  0.002141  3.983341  0.002
C  C47  1  0.53656144  0.87616137  0.02314471  1  -0.083887  0.000605  3.748814  0.001  -0.106022  0.001493  3.996014  0.001  -0.106892  0.00095  4.015405  0.001  -0.087613  -0.105167  0.002142  3.982789  0.002
C  C48  1  0.50371795  0.08766177  0.09804256  1  -0.046128  -0.000504  3.766419  0.0  -0.024924  0.000927  4.00016  0.0  -0.028956  -2.3e-05  4.01919  0.0  -0.015819  -0.022839  0.002125  3.987467  0.001
C  C49  1  0.49627106  0.91233459  0.90194250  1  -0.046108  -0.000479  3.766295  0.0  -0.025  0.000929  4.000143  0.0  -0.029031  -2.2e-05  4.019166  0.0  -0.015873  -0.022914  0.002125  3.987444  0.001
C  C50  1  0.54047878  0.96325962  0.12095124  1  -0.089921  0.001087  3.760868  0.001  -0.111035  0.002034  4.008814  0.002  -0.112089  0.001318  4.028052  0.001  -0.088292  -0.109947  0.002731  3.995531  0.002
C  C51  1  0.45951253  0.03672616  0.87904891  1  -0.089867  0.001052  3.761453  0.001  -0.111035  0.002035  4.00941  0.002  -0.112077  0.001316  4.028649  0.001  -0.088379  -0.109949  0.002732  3.996146  0.002
C  C52  1  0.50506946  0.18207560  0.20071216  1  0.628405  0.003687  3.93355  0.002  0.579927  0.007522  4.225743  0.004  0.613789  0.005953  4.219537  0.003  0.200845  0.556864  0.008908  4.228105  0.005
C  C53  1  0.49494720  0.81789802  0.79930568  1  0.628519  0.003695  3.933304  0.002  0.58015  0.00752  4.225351  0.004  0.614009  0.005953  4.219143  0.003  0.200943  0.557091  0.008906  4.227714  0.005
C  C54  1  0.92499905  0.97356751  0.58953670  1  -0.077951  0.001238  3.731869  0.001  -0.100573  0.002693  3.979812  0.002  -0.101332  0.00162  3.99895  0.001  -0.085584  -0.100421  0.004081  3.968312  0.003
C  C55  1  0.07497481  0.02643352  0.41045255  1  -0.077969  0.001219  3.731488  0.001  -0.100677  0.002694  3.97946  0.002  -0.101448  0.001627  3.998596  0.001  -0.085586  -0.100524  0.004083  3.967947  0.003
C  C56  1  0.86574853  0.85820977  0.48822858  1  -0.065388  0.001975  3.76309  0.002  -0.044125  0.003902  3.997151  0.003  -0.05063  0.002025  4.018133  0.002  -0.018669  -0.040731  0.007142  3.984488  0.005
C  C57  1  0.13422116  0.14178586  0.51175408  1  -0.065408  0.00197  3.762915  0.002  -0.044081  0.003902  3.996842  0.003  -0.05059  0.002021  4.017829  0.002  -0.018705  -0.040675  0.007141  3.984159  0.005
C  C58  1  0.94135917  0.88546929  0.39878721  1  -0.07188  0.001663  3.741127  0.001  -0.094376  0.003443  3.989581  0.003  -0.094845  0.002112  4.009168  0.002  -0.086633  -0.094394  0.005467  3.977547  0.004
C  C59  1  0.05860659  0.11452407  0.60119852  1  -0.071967  0.001667  3.741152  0.001  -0.094517  0.00344  3.989602  0.003  -0.094973  0.002116  4.00917  0.002  -0.086705  -0.094518  0.005464  3.977602  0.004
C  C60  1  0.72757908  0.70582255  0.47905340  1  0.655215  0.015895  3.90919  0.015  0.599685  0.025664  4.209209  0.022  0.636803  0.01916  4.199892  0.018  0.22074  0.573382  0.033032  4.215142  0.028
C  C61  1  0.27239337  0.29416274  0.52093414  1  0.655197  0.015916  3.909353  0.015  0.599814  0.025653  4.209098  0.022  0.636931  0.019152  4.19978  0.018  0.220783  0.573499  0.03302  4.215055  0.028
N  N62  1  0.27649825  0.37977713  0.16597891  1  -0.318713  0.026223  3.227054  0.016  -0.25019  0.030662  3.496183  0.017  -0.26893  0.027124  3.512663  0.014  -0.316269  -0.237362  0.03463  3.485597  0.02
N  N63  1  0.72352283  0.62022659  0.83400566  1  -0.318818  0.026226  3.227117  0.016  -0.250319  0.030665  3.496239  0.017  -0.269058  0.027129  3.512721  0.014  -0.316286  -0.237507  0.034635  3.485667  0.02
N  N64  1  0.69823783  0.34599557  0.52285788  1  -0.336242  0.025053  3.247378  0.011  -0.267257  0.028851  3.523098  0.011  -0.286315  0.025281  3.537649  0.008  -0.321624  -0.254447  0.032907  3.514103  0.014
N  N65  1  0.30177300  0.65401199  0.47716170  1  -0.335987  0.025081  3.247014  0.011  -0.266947  0.028848  3.522665  0.011  -0.286001  0.025273  3.53722  0.008  -0.321423  -0.254145  0.032906  3.513668  0.014
O  O66  1  0.41352048  0.12262862  0.26374082  1  -0.629808  0.019004  1.918986  0.014  -0.577253  0.027083  2.154861  0.021  -0.605147  0.023544  2.145242  0.018  -0.309985  -0.555887  0.03092  2.159821  0.025
O  O67  1  0.58649066  0.87734853  0.73627545  1  -0.629802  0.019008  1.918697  0.014  -0.577268  0.027087  2.154504  0.021  -0.605162  0.023547  2.144886  0.018  -0.309941  -0.55593  0.030925  2.159504  0.025
O  O68  1  0.59691327  0.32359531  0.21861313  1  -0.644545  0.030676  2.014561  0.022  -0.579857  0.035252  2.26437  0.024  -0.611423  0.031287  2.254895  0.021  -0.311707  -0.555366  0.03888  2.268908  0.028
O  O69  1  0.40309819  0.67637752  0.78139449  1  -0.644641  0.030675  2.014513  0.022  -0.579965  0.035253  2.264218  0.024  -0.611526  0.031288  2.254733  0.021  -0.311829  -0.555494  0.038881  2.26877  0.028
O  O70  1  0.65105489  0.61010571  0.37545732  1  -0.629535  0.039769  2.03986  0.027  -0.56566  0.050741  2.312281  0.034  -0.594891  0.043645  2.296623  0.027  -0.307822  -0.544155  0.05871  2.32238  0.041
O  O71  1  0.34891901  0.38988415  0.62452732  1  -0.629499  0.039747  2.039662  0.027  -0.565727  0.050739  2.312054  0.034  -0.594961  0.043644  2.296397  0.027  -0.307813  -0.544206  0.058707  2.32211  0.041
O  O72  1  0.69967432  0.67842030  0.57808269  1  -0.661773  0.037276  2.140885  0.02  -0.6003  0.048839  2.443779  0.026  -0.63127  0.042993  2.42598  0.021  -0.315917  -0.577024  0.054803  2.455338  0.031
O  O73  1  0.30031227  0.32157020  0.42191271  1  -0.661827  0.037271  2.14102  0.02  -0.600434  0.048843  2.443864  0.026  -0.631395  0.042996  2.426056  0.021  -0.316022  -0.577172  0.054808  2.45549  0.031
