# generated using pymatgen
data_CuH10(C2N)3
_symmetry_space_group_name_H-M   'P 1'
_cell_length_a   11.88366479
_cell_length_b   12.26654897
_cell_length_c   13.11620706
_cell_angle_alpha   108.73881945
_cell_angle_beta   108.22974399
_cell_angle_gamma   104.24680158
_symmetry_Int_Tables_number   1
_chemical_formula_structural   CuH10(C2N)3
_chemical_formula_sum   'Cu6 H60 C36 N18'
_cell_volume   1586.94027037
_cell_formula_units_Z   6
loop_
 _symmetry_equiv_pos_site_id
 _symmetry_equiv_pos_as_xyz
  1  'x, y, z'
loop_
 _atom_site_type_symbol
 _atom_site_label
 _atom_site_symmetry_multiplicity
 _atom_site_fract_x
 _atom_site_fract_y
 _atom_site_fract_z
 _atom_site_occupancy
 _atom_site_pbe_bader_charge
 _atom_site_pbe_bader_spin_density
 _atom_site_pbe_cm5_charge
 _atom_site_pbe_ddec_charge
 _atom_site_pbe_ddec_spin_density
 _atom_site_pbe_ddec_sum_bond_order
 _atom_site_pbe_magmom
Cu  Cu0  1  0.38232089  0.39482920  0.00930587  1  0.632934  0  0.538842  0.285191  0  2.433296  0
Cu  Cu1  1  0.61767879  0.60516918  0.99069358  1  0.632914  0  0.538851  0.285194  0  2.433338  0
Cu  Cu2  1  0.02282007  0.89629255  0.89141059  1  0.636154  0  0.536518  0.285796  0  2.42159  0
Cu  Cu3  1  0.97718073  0.10370863  0.10858925  1  0.636119  0  0.536518  0.285764  0  2.421603  0
Cu  Cu4  1  0.12541438  0.48424441  0.59373678  1  0.634205  0  0.533705  0.285542  0  2.403538  0
Cu  Cu5  1  0.87458361  0.51575864  0.40626359  1  0.634308  0  0.533695  0.285543  0  2.403589  0
H  H6  1  0.28754376  0.44122567  0.23406765  1  0.053015  0  0.096749  0.099457  0  0.979231  0
H  H7  1  0.71245746  0.55876992  0.76593445  1  0.053015  0  0.096767  0.099455  0  0.979262  0
H  H8  1  0.12287360  0.37183199  0.19879486  1  0.059827  0  0.097204  0.102891  0  1.012618  0
H  H9  1  0.87712762  0.62816359  0.80120571  1  0.05982  0  0.097165  0.102842  0  1.012629  0
H  H10  1  0.17116986  0.56752743  0.16732436  1  0.017375  0  0.086431  0.115897  0  0.994661  0
H  H11  1  0.82883551  0.43247189  0.83268308  1  0.017485  0  0.086392  0.115862  0  0.994706  0
H  H12  1  0.06654738  0.43560923  0.02896986  1  0.049885  0  0.08593  0.112461  0  1.018988  0
H  H13  1  0.93345718  0.56439475  0.97103647  1  0.050034  0  0.085914  0.112468  0  1.018989  0
H  H14  1  0.23251948  0.50318949  0.06513872  1  0.031594  0  0.078246  0.095072  0  1.066472  0
H  H15  1  0.76748560  0.49681356  0.93486824  1  0.031288  0  0.078272  0.095119  0  1.066446  0
H  H16  1  0.26899274  0.12885691  0.80578713  1  0.04156  0  0.096544  0.098105  0  0.983271  0
H  H17  1  0.73100819  0.87114239  0.19421143  1  0.041574  0  0.096545  0.098119  0  0.983262  0
H  H18  1  0.21226215  0.98533917  0.81422681  1  0.046136  0  0.095012  0.097774  0  1.014068  0
H  H19  1  0.78773753  0.01465920  0.18577188  1  0.046156  0  0.095014  0.097763  0  1.014103  0
H  H20  1  0.45203459  0.06305619  0.87645212  1  0.012397  0  0.086864  0.115978  0  0.995184  0
H  H21  1  0.54796546  0.93694312  0.12354771  1  0.012407  0  0.086876  0.115984  0  0.995183  0
H  H22  1  0.41912315  0.06241731  0.99982939  1  0.018538  0  0.084452  0.109106  0  1.018288  0
H  H23  1  0.58087564  0.93758107  0.00016905  1  0.018571  0  0.08443  0.109081  0  1.018296  0
H  H24  1  0.47292977  0.20488254  0.98859352  1  0.060143  0  0.082664  0.107772  0  1.04501  0
H  H25  1  0.52707205  0.79511677  0.01140681  1  0.06018  0  0.082665  0.107774  0  1.045012  0
H  H26  1  0.78032614  0.70250338  0.49878737  1  0.076777  0  0.095733  0.097137  0  1.010829  0
H  H27  1  0.21967450  0.29749966  0.50121146  1  0.076791  0  0.09575  0.097153  0  1.010856  0
H  H28  1  0.76510980  0.73977793  0.63476377  1  0.035534  0  0.096677  0.099118  0  0.974234  0
H  H29  1  0.23489262  0.26022511  0.36523404  1  0.035483  0  0.096724  0.099186  0  0.974127  0
H  H30  1  0.79943746  0.92519782  0.58838681  1  0.010236  0  0.085772  0.112602  0  0.998467  0
H  H31  1  0.20055728  0.07480149  0.41161000  1  0.010343  0  0.08575  0.112564  0  0.9985  0
H  H32  1  0.93065837  0.95738644  0.72102169  1  0.038479  0  0.079189  0.102898  0  1.051262  0
H  H33  1  0.06933734  0.04261754  0.27897526  1  0.038349  0  0.079197  0.102908  0  1.051191  0
H  H34  1  0.94715295  0.92174906  0.58541651  1  0.014155  0  0.085545  0.112177  0  1.02334  0
H  H35  1  0.05284187  0.07825492  0.41458095  1  0.014157  0  0.085539  0.112137  0  1.023358  0
H  H36  1  0.28385735  0.69764730  0.83861122  1  0.037245  0  0.095652  0.095834  0  1.034699  0
H  H37  1  0.71613967  0.30235108  0.16138748  1  0.037207  0  0.095628  0.095804  0  1.034721  0
H  H38  1  0.27604420  0.84270456  0.91169596  1  0.023056  0  0.096014  0.097031  0  0.992674  0
H  H39  1  0.72395482  0.15729662  0.08830490  1  0.023067  0  0.096001  0.096987  0  0.992691  0
H  H40  1  0.27378365  0.72029612  0.03151661  1  0.033825  0  0.087912  0.117968  0  0.996474  0
H  H41  1  0.72621337  0.27970226  0.96848133  1  0.03378  0  0.087921  0.118015  0  0.996435  0
H  H42  1  0.12626267  0.74162149  0.98418605  1  0.024665  0  0.081794  0.103164  0  1.037737  0
H  H43  1  0.87373398  0.25837596  0.01581303  1  0.024681  0  0.081797  0.103178  0  1.037756  0
H  H44  1  0.13390473  0.59551568  0.91092998  1  0.033784  0  0.086167  0.116405  0  1.016639  0
H  H45  1  0.86609355  0.40448363  0.08906935  1  0.033796  0  0.086179  0.116436  0  1.016616  0
H  H46  1  0.55161612  0.67767743  0.80080903  1  0.051438  0  0.095495  0.099018  0  1.020086  0
H  H47  1  0.44838201  0.32232375  0.19919159  1  0.051418  0  0.095498  0.09901  0  1.020149  0
H  H48  1  0.40800819  0.69540697  0.73079430  1  0.040672  0  0.096885  0.09808  0  0.97765  0
H  H49  1  0.59199083  0.30459421  0.26920580  1  0.040702  0  0.096888  0.098076  0  0.977703  0
H  H50  1  0.49978221  0.62568395  0.58569640  1  0.025595  0  0.086566  0.115853  0  1.001774  0
H  H51  1  0.50021732  0.37431630  0.41430357  1  0.025582  0  0.086579  0.115836  0  1.001772  0
H  H52  1  0.34794619  0.50979726  0.54140366  1  0.02568  0  0.082995  0.105442  0  1.043315  0
H  H53  1  0.65205246  0.49020299  0.45859682  1  0.025785  0  0.082985  0.105429  0  1.043361  0
H  H54  1  0.49143460  0.48986397  0.60979577  1  0.014083  0  0.084555  0.110025  0  1.014217  0
H  H55  1  0.50856442  0.51013722  0.39020662  1  0.014058  0  0.084544  0.109999  0  1.01418  0
H  H56  1  0.04364585  0.37751693  0.76322618  1  0.03467  0  0.095361  0.092417  0  0.986481  0
H  H57  1  0.95635331  0.62248238  0.23677340  1  0.034673  0  0.095353  0.092411  0  0.986482  0
H  H58  1  0.12099764  0.30068022  0.83748905  1  0.06048  0  0.096465  0.100617  0  1.012708  0
H  H59  1  0.87900064  0.69931910  0.16251104  1  0.060486  0  0.096459  0.100627  0  1.012702  0
H  H60  1  0.95230634  0.14917265  0.63110982  1  0.034356  0  0.087643  0.118244  0  1.005672  0
H  H61  1  0.04769334  0.85082572  0.36888810  1  0.034351  0  0.087644  0.118247  0  1.005662  0
H  H62  1  0.10666109  0.15484924  0.64209705  1  0.010461  0  0.085228  0.112015  0  1.009934  0
H  H63  1  0.89334021  0.84515100  0.35790342  1  0.010467  0  0.085232  0.112027  0  1.009929  0
H  H64  1  0.03095802  0.23468307  0.56938793  1  0.039358  0  0.082032  0.107098  0  1.047801  0
H  H65  1  0.96904203  0.76531624  0.43061191  1  0.039359  0  0.082028  0.107089  0  1.047819  0
C  C66  1  0.18180327  0.27281414  0.07548806  1  0.933657  0  0.201281  0.317794  0  3.982048  0
C  C67  1  0.81819678  0.72718517  0.92451025  1  0.9338  0  0.201309  0.317845  0  3.982003  0
C  C68  1  0.19041046  0.39320087  0.16021596  1  -0.012474  0  -0.15668  -0.186725  0  3.974569  0
C  C69  1  0.80959239  0.60679658  0.83978640  1  -0.012561  0  -0.15663  -0.186604  0  3.974549  0
C  C70  1  0.16345577  0.47989023  0.10205751  1  -0.078092  0  -0.24262  -0.341587  0  3.958117  0
C  C71  1  0.83655071  0.52011188  0.89794803  1  -0.078151  0  -0.24263  -0.341686  0  3.958185  0
C  C72  1  0.21606022  0.13989230  0.94760375  1  0.96  0  0.200687  0.320936  0  3.987213  0
C  C73  1  0.78394160  0.86010701  0.05239582  1  0.958291  0  0.200696  0.320933  0  3.987286  0
C  C74  1  0.27272583  0.08516526  0.86758900  1  0.017295  0  -0.1583  -0.192085  0  3.986277  0
C  C75  1  0.72727473  0.91483311  0.13240918  1  0.017304  0  -0.158293  -0.192093  0  3.986352  0
C  C76  1  0.41240657  0.10480806  0.93705893  1  -0.078544  0  -0.242788  -0.341504  0  3.950958  0
C  C77  1  0.58759348  0.89519125  0.06294090  1  -0.078599  0  -0.242796  -0.341491  0  3.95093  0
C  C78  1  0.93960168  0.72037839  0.64082528  1  0.974443  0  0.200182  0.314677  0  3.989602  0
C  C79  1  0.06040037  0.27962372  0.35917520  1  0.974515  0  0.200167  0.31461  0  3.989766  0
C  C80  1  0.83276028  0.76014226  0.59547018  1  -0.016317  0  -0.158115  -0.192697  0  3.993472  0
C  C81  1  0.16723963  0.23985892  0.40452865  1  -0.016447  0  -0.158187  -0.192789  0  3.993664  0
C  C82  1  0.88014732  0.89922464  0.62421806  1  -0.041281  0  -0.244069  -0.339882  0  3.957783  0
C  C83  1  0.11984788  0.10078027  0.37577979  1  -0.041199  0  -0.24404  -0.339802  0  3.957831  0
C  C84  1  0.10805420  0.71214484  0.75723756  1  0.978895  0  0.200062  0.31814  0  3.98644  0
C  C85  1  0.89194510  0.28785261  0.24276227  1  0.978931  0  0.200065  0.318205  0  3.986414  0
C  C86  1  0.22156106  0.74103391  0.86621627  1  0.036847  0  -0.157877  -0.191512  0  3.984048  0
C  C87  1  0.77843885  0.25896727  0.13378332  1  0.036898  0  -0.15785  -0.191435  0  3.984028  0
C  C88  1  0.18663497  0.69703064  0.95334088  1  -0.069532  0  -0.242205  -0.335952  0  3.931222  0
C  C89  1  0.81336419  0.30296867  0.04665794  1  -0.069548  0  -0.242205  -0.336035  0  3.93127  0
C  C90  1  0.38429154  0.54078701  0.77300612  1  0.945835  0  0.198954  0.313048  0  3.99426  0
C  C91  1  0.61570711  0.45921323  0.22699360  1  0.946178  0  0.198994  0.31312  0  3.994182  0
C  C92  1  0.45187332  0.62623942  0.73300789  1  0.009699  0  -0.159018  -0.193425  0  3.992291  0
C  C93  1  0.54812496  0.37375989  0.26699144  1  0.009707  0  -0.159005  -0.193397  0  3.992329  0
C  C94  1  0.44743765  0.55891988  0.61031097  1  -0.048858  0  -0.242988  -0.343073  0  3.960428  0
C  C95  1  0.55256226  0.44108130  0.38969015  1  -0.048953  0  -0.242989  -0.343013  0  3.96035  0
C  C96  1  0.23585121  0.41216937  0.78634629  1  0.959307  0  0.202381  0.321616  0  3.976084  0
C  C97  1  0.76414847  0.58782900  0.21365316  1  0.959303  0  0.202406  0.321686  0  3.975959  0
C  C98  1  0.10804202  0.32633689  0.76293762  1  0.003177  0  -0.157767  -0.191836  0  3.987855  0
C  C99  1  0.89195714  0.67366242  0.23706196  1  0.003171  0  -0.157762  -0.191881  0  3.987834  0
C  C100  1  0.04587698  0.20937102  0.64429506  1  -0.064105  0  -0.243299  -0.33847  0  3.940498  0
C  C101  1  0.95412307  0.79062829  0.35570401  1  -0.064092  0  -0.243324  -0.338491  0  3.940539  0
N  N102  1  0.10282887  0.15927539  0.05055919  1  -0.77623  0  -0.308571  -0.255069  0  3.633233  0
N  N103  1  0.89717170  0.84072299  0.94943975  1  -0.776231  0  -0.308603  -0.255125  0  3.633238  0
N  N104  1  0.12509816  0.07377862  0.96830890  1  -0.787791  0  -0.312765  -0.253511  0  3.656195  0
N  N105  1  0.87490278  0.92622069  0.03168966  1  -0.786093  0  -0.31273  -0.253424  0  3.656057  0
N  N106  1  0.25380548  0.26450666  0.01257234  1  -1.204064  0  -0.405084  -0.406819  0  3.628202  0
N  N107  1  0.74619634  0.73549265  0.98742723  1  -1.204031  0  -0.405124  -0.406922  0  3.628304  0
N  N108  1  0.96367376  0.62912095  0.57325558  1  -0.78459  0  -0.313776  -0.253477  0  3.669408  0
N  N109  1  0.03632652  0.37088116  0.42674440  1  -0.784577  0  -0.313761  -0.253448  0  3.669421  0
N  N110  1  0.07184917  0.62339715  0.64825678  1  -0.782919  0  -0.308796  -0.256582  0  3.617374  0
N  N111  1  0.92814962  0.37660122  0.35174166  1  -0.783003  0  -0.308792  -0.256652  0  3.617412  0
N  N112  1  0.02742320  0.77410485  0.75642940  1  -1.257728  0  -0.4045  -0.406086  0  3.62614  0
N  N113  1  0.97257848  0.22589632  0.24357069  1  -1.257743  0  -0.404486  -0.406052  0  3.626165  0
N  N114  1  0.44208259  0.52268950  0.86823420  1  -0.768122  0  -0.312023  -0.25523  0  3.648745  0
N  N115  1  0.55791695  0.47731075  0.13176653  1  -0.768501  0  -0.312042  -0.255312  0  3.648755  0
N  N116  1  0.34654948  0.44000184  0.87685431  1  -0.779969  0  -0.310675  -0.252647  0  3.644877  0
N  N117  1  0.65345020  0.55999653  0.12314438  1  -0.77997  0  -0.310667  -0.252594  0  3.644845  0
N  N118  1  0.25543413  0.47335507  0.71943113  1  -1.226831  0  -0.404478  -0.402191  0  3.612209  0
N  N119  1  0.74456629  0.52664517  0.28056985  1  -1.226827  0  -0.404523  -0.402278  0  3.612232  0
