# generated using pymatgen
data_ZnH14C8N2(ClO)2
_symmetry_space_group_name_H-M   'P 1'
_cell_length_a   5.91369824
_cell_length_b   11.84890246
_cell_length_c   17.17908013
_cell_angle_alpha   89.99933785
_cell_angle_beta   96.65531660
_cell_angle_gamma   90.00039027
_symmetry_Int_Tables_number   1
_chemical_formula_structural   ZnH14C8N2(ClO)2
_chemical_formula_sum   'Zn4 H56 C32 N8 Cl8 O8'
_cell_volume   1195.64078180
_cell_formula_units_Z   4
loop_
 _symmetry_equiv_pos_site_id
 _symmetry_equiv_pos_as_xyz
  1  'x, y, z'
loop_
 _atom_site_type_symbol
 _atom_site_label
 _atom_site_symmetry_multiplicity
 _atom_site_fract_x
 _atom_site_fract_y
 _atom_site_fract_z
 _atom_site_occupancy
 _atom_site_hle17_bader_spin_density
 _atom_site_hle17_ddec_charge
 _atom_site_hle17_ddec_spin_density
 _atom_site_hle17_ddec_sum_bond_order
 _atom_site_hle17_magmom
 _atom_site_hse06_10hf_bader_spin_density
 _atom_site_hse06_10hf_ddec_charge
 _atom_site_hse06_10hf_ddec_spin_density
 _atom_site_hse06_10hf_ddec_sum_bond_order
 _atom_site_hse06_10hf_magmom
 _atom_site_hse06_bader_spin_density
 _atom_site_hse06_ddec_charge
 _atom_site_hse06_ddec_spin_density
 _atom_site_hse06_ddec_sum_bond_order
 _atom_site_hse06_magmom
 _atom_site_pbe_bader_spin_density
 _atom_site_pbe_cm5_charge
 _atom_site_pbe_ddec_charge
 _atom_site_pbe_ddec_spin_density
 _atom_site_pbe_ddec_sum_bond_order
 _atom_site_pbe_magmom
Zn  Zn0  1  0.00242751  0.38184567  0.15689427  1  0  0.990383  0  1.986189  0  0  0.829906  0  2.481295  0  0  0.874111  0  2.423974  0  0  0.556707  0.798965  0  2.520749  0
Zn  Zn1  1  0.99757033  0.88185619  0.84310673  1  0  0.990455  0  1.986145  0  0  0.830055  0  2.481148  0  0  0.874261  0  2.42382  0  0  0.556806  0.799117  0  2.520609  0
Zn  Zn2  1  0.06250767  0.42685379  0.62865108  1  0  0.987418  0  1.986566  0  0  0.823151  0  2.478981  0  0  0.867243  0  2.422304  0  0  0.565918  0.792323  0  2.517947  0
Zn  Zn3  1  0.93749108  0.92684543  0.37134639  1  0  0.98738  0  1.986546  0  0  0.823165  0  2.478972  0  0  0.867261  0  2.4223  0  0  0.565921  0.792338  0  2.517923  0
H  H4  1  0.07508510  0.60100916  0.51814979  1  0  0.324679  0  0.920092  0  0  0.308238  0  0.984318  0  0  0.315568  0  0.978598  0  0  0.289767  0.303024  0  0.98845  0
H  H5  1  0.92493070  0.10101030  0.48185431  1  0  0.324771  0  0.920735  0  0  0.308355  0  0.984847  0  0  0.315683  0  0.979129  0  0  0.289926  0.303146  0  0.988979  0
H  H6  1  0.18528835  0.62962682  0.42973733  1  0  0.334744  0  0.935442  0  0  0.310592  0  1.011123  0  0  0.318875  0  1.004657  0  0  0.283852  0.304734  0  1.01571  0
H  H7  1  0.81474322  0.12963760  0.57026691  1  0  0.334879  0  0.935192  0  0  0.310731  0  1.010887  0  0  0.319016  0  1.004419  0  0  0.283829  0.304874  0  1.015478  0
H  H8  1  0.24363656  0.65789508  0.22334828  1  0  0.115465  0  0.945282  0  0  0.130522  0  1.004776  0  0  0.132544  0  1.00468  0  0  0.097917  0.129048  0  1.005001  0
H  H9  1  0.75636862  0.15790706  0.77664880  1  0  0.115358  0  0.945247  0  0  0.130434  0  1.004739  0  0  0.132455  0  1.004654  0  0  0.097876  0.128969  0  1.004952  0
H  H10  1  0.39150205  0.55873671  0.17111234  1  0  0.112369  0  0.981326  0  0  0.122616  0  1.048761  0  0  0.124761  0  1.048231  0  0  0.087955  0.121064  0  1.049235  0
H  H11  1  0.60849136  0.05875171  0.82888610  1  0  0.112454  0  0.981394  0  0  0.122672  0  1.048855  0  0  0.12482  0  1.048323  0  0  0.087976  0.12112  0  1.04933  0
H  H12  1  0.12214636  0.62584725  0.72408707  1  0  0.330543  0  0.907041  0  0  0.313622  0  0.971062  0  0  0.321083  0  0.965086  0  0  0.293157  0.308338  0  0.97535  0
H  H13  1  0.87783466  0.12583503  0.27590716  1  0  0.330573  0  0.907114  0  0  0.313684  0  0.971039  0  0  0.321135  0  0.965086  0  0  0.293306  0.308405  0  0.975318  0
H  H14  1  0.32515398  0.68550604  0.79466726  1  0  0.334549  0  0.930682  0  0  0.311461  0  1.003686  0  0  0.319724  0  0.997363  0  0  0.281852  0.305595  0  1.008188  0
H  H15  1  0.67482917  0.18549447  0.20533278  1  0  0.334572  0  0.930499  0  0  0.311462  0  1.003574  0  0  0.319723  0  0.997257  0  0  0.281861  0.305587  0  1.0081  0
H  H16  1  0.76172380  0.55728418  0.38254382  1  0  0.067744  0  0.950532  0  0  0.083396  0  1.015112  0  0  0.083736  0  1.015708  0  0  0.100578  0.083106  0  1.01473  0
H  H17  1  0.23830091  0.05730271  0.61744682  1  0  0.067624  0  0.950718  0  0  0.083399  0  1.015154  0  0  0.083739  0  1.015752  0  0  0.100509  0.083115  0  1.014776  0
H  H18  1  0.55866157  0.66329598  0.39796794  1  0  0.068422  0  0.929533  0  0  0.080815  0  0.996908  0  0  0.08213  0  0.995545  0  0  0.096259  0.079782  0  0.99799  0
H  H19  1  0.44137432  0.16331139  0.60203062  1  0  0.068615  0  0.929758  0  0  0.081019  0  0.997087  0  0  0.082332  0  0.995729  0  0  0.096412  0.079988  0  0.998172  0
H  H20  1  0.74879515  0.55266605  0.77178447  1  0  0.092439  0  0.925812  0  0  0.099523  0  0.99079  0  0  0.10208  0  0.989217  0  0  0.117598  0.0976  0  0.992129  0
H  H21  1  0.25119281  0.05265162  0.22821720  1  0  0.092546  0  0.925767  0  0  0.099567  0  0.990749  0  0  0.102161  0  0.989134  0  0  0.11763  0.097654  0  0.992081  0
H  H22  1  0.56328503  0.35513050  0.86157648  1  0  0.071343  0  0.91936  0  0  0.095886  0  0.969033  0  0  0.09584  0  0.970615  0  0  0.094903  0.095829  0  0.968054  0
H  H23  1  0.43667354  0.85511999  0.13841917  1  0  0.071344  0  0.919333  0  0  0.095842  0  0.969103  0  0  0.095789  0  0.970681  0  0  0.094901  0.095793  0  0.968117  0
H  H24  1  0.66126938  0.34743598  0.76862579  1  0  0.082333  0  0.980078  0  0  0.094827  0  1.049637  0  0  0.096269  0  1.04958  0  0  0.08852  0.093755  0  1.049737  0
H  H25  1  0.33870090  0.84741984  0.23137160  1  0  0.082325  0  0.980088  0  0  0.094836  0  1.049643  0  0  0.096269  0  1.049587  0  0  0.08852  0.093761  0  1.049754  0
H  H26  1  0.71226661  0.81331073  0.97280508  1  0  0.111016  0  0.96914  0  0  0.122879  0  1.033972  0  0  0.125161  0  1.033609  0  0  0.090884  0.121255  0  1.034273  0
H  H27  1  0.28774531  0.31331007  0.02720021  1  0  0.110953  0  0.969157  0  0  0.122801  0  1.034034  0  0  0.125082  0  1.033678  0  0  0.090856  0.121176  0  1.034336  0
H  H28  1  0.88910893  0.69892506  0.00909238  1  0  0.11485  0  0.943501  0  0  0.12915  0  1.004811  0  0  0.131613  0  1.003927  0  0  0.096961  0.127286  0  1.005715  0
H  H29  1  0.11088637  0.19892857  0.99090765  1  0  0.114846  0  0.943601  0  0  0.129167  0  1.00489  0  0  0.131631  0  1.00401  0  0  0.096985  0.127306  0  1.005793  0
H  H30  1  0.27902135  0.35955367  0.38575722  1  0  0.103897  0  0.904076  0  0  0.114268  0  0.960679  0  0  0.116827  0  0.959246  0  0  0.130338  0.112349  0  0.961919  0
H  H31  1  0.72099970  0.85956685  0.61424902  1  0  0.104074  0  0.904057  0  0  0.114286  0  0.960626  0  0  0.116846  0  0.95919  0  0  0.130443  0.112373  0  0.961854  0
H  H32  1  0.59993827  0.47788199  0.97501747  1  0  0.072937  0  0.932607  0  0  0.085951  0  1.000243  0  0  0.086292  0  1.000405  0  0  0.100068  0.085589  0  1.000261  0
H  H33  1  0.40004746  0.97788069  0.02498103  1  0  0.072916  0  0.932636  0  0  0.085964  0  1.000249  0  0  0.086304  0  1.00041  0  0  0.100052  0.085602  0  1.000268  0
H  H34  1  0.33532526  0.52504873  0.92479458  1  0  0.072674  0  0.933753  0  0  0.087188  0  0.998987  0  0  0.087628  0  0.999284  0  0  0.101233  0.086805  0  0.998854  0
H  H35  1  0.66465720  0.02504527  0.07520688  1  0  0.072694  0  0.933818  0  0  0.087244  0  0.99902  0  0  0.087684  0  0.999313  0  0  0.101243  0.086858  0  0.998888  0
H  H36  1  0.62184415  0.72610972  0.27058476  1  0  0.088075  0  0.957997  0  0  0.101343  0  1.023708  0  0  0.102945  0  1.023377  0  0  0.091706  0.100147  0  1.024017  0
H  H37  1  0.37815699  0.22611941  0.72941085  1  0  0.088106  0  0.957909  0  0  0.101325  0  1.023644  0  0  0.102923  0  1.023326  0  0  0.091683  0.100132  0  1.023945  0
H  H38  1  0.74523443  0.59537662  0.24854802  1  0  0.076924  0  0.937809  0  0  0.092162  0  1.001102  0  0  0.093037  0  1.00137  0  0  0.087619  0.09142  0  1.001064  0
H  H39  1  0.25476853  0.09538104  0.75144382  1  0  0.076957  0  0.937956  0  0  0.092164  0  1.001237  0  0  0.093034  0  1.001503  0  0  0.087591  0.091422  0  1.001203  0
H  H40  1  0.54581469  0.63312105  0.05904727  1  0  0.087675  0  0.93338  0  0  0.107228  0  0.988078  0  0  0.10827  0  0.988434  0  0  0.095054  0.106398  0  0.987928  0
H  H41  1  0.45418136  0.13312292  0.94095291  1  0  0.087705  0  0.933369  0  0  0.107265  0  0.988063  0  0  0.108307  0  0.988419  0  0  0.095057  0.106434  0  0.987912  0
H  H42  1  0.37014107  0.70630349  0.98433628  1  0  0.074816  0  0.933331  0  0  0.092298  0  0.993297  0  0  0.09341  0  0.993267  0  0  0.088573  0.091356  0  0.993557  0
H  H43  1  0.62986080  0.20630340  0.01566871  1  0  0.07483  0  0.93331  0  0  0.092295  0  0.993287  0  0  0.093405  0  0.993258  0  0  0.088556  0.091354  0  0.99354  0
H  H44  1  0.05174975  0.40540327  0.82447483  1  0  0.086417  0  0.971645  0  0  0.105759  0  1.040712  0  0  0.106836  0  1.04127  0  0  0.076338  0.104884  0  1.04052  0
H  H45  1  0.94822431  0.90539831  0.17552906  1  0  0.086483  0  0.971697  0  0  0.105828  0  1.040793  0  0  0.106911  0  1.041344  0  0  0.076395  0.104953  0  1.040603  0
H  H46  1  0.96300445  0.28466873  0.87320293  1  0  0.099094  0  0.952309  0  0  0.123441  0  1.009295  0  0  0.124447  0  1.009595  0  0  0.086263  0.122657  0  1.009145  0
H  H47  1  0.03694264  0.78466407  0.12679578  1  0  0.099083  0  0.952311  0  0  0.123469  0  1.009264  0  0  0.124474  0  1.009563  0  0  0.086309  0.122696  0  1.009102  0
H  H48  1  0.96221673  0.41814790  0.91981913  1  0  0.095925  0  0.996005  0  0  0.111248  0  1.069044  0  0  0.112848  0  1.069075  0  0  0.072157  0.110013  0  1.069114  0
H  H49  1  0.03774896  0.91814634  0.08018490  1  0  0.095936  0  0.995999  0  0  0.111261  0  1.06905  0  0  0.11286  0  1.069083  0  0  0.072147  0.110043  0  1.069106  0
H  H50  1  0.57708800  0.31946518  0.49840058  1  0  0.080442  0  0.948773  0  0  0.094734  0  1.014866  0  0  0.096413  0  1.014118  0  0  0.090458  0.093458  0  1.01549  0
H  H51  1  0.42294434  0.81946563  0.50160686  1  0  0.080482  0  0.948721  0  0  0.094794  0  1.014823  0  0  0.096471  0  1.014079  0  0  0.090513  0.093516  0  1.015446  0
H  H52  1  0.72741987  0.44040860  0.47597239  1  0  0.055608  0  0.968637  0  0  0.069033  0  1.041897  0  0  0.069612  0  1.042306  0  0  0.080245  0.068527  0  1.041701  0
H  H53  1  0.27260626  0.94040959  0.52402697  1  0  0.055656  0  0.96851  0  0  0.069081  0  1.041842  0  0  0.069664  0  1.042246  0  0  0.080258  0.068572  0  1.041655  0
H  H54  1  0.61796663  0.23404663  0.36864579  1  0  0.096179  0  0.956094  0  0  0.116974  0  1.018925  0  0  0.117926  0  1.019947  0  0  0.078375  0.11622  0  1.018292  0
H  H55  1  0.38205402  0.73405823  0.63136472  1  0  0.096108  0  0.956187  0  0  0.116919  0  1.018986  0  0  0.117872  0  1.020009  0  0  0.078349  0.116166  0  1.018348  0
H  H56  1  0.89195669  0.27416571  0.41347977  1  0  0.091701  0  0.978549  0  0  0.111102  0  1.044513  0  0  0.112358  0  1.044763  0  0  0.07415  0.110131  0  1.044408  0
H  H57  1  0.10807203  0.77416515  0.58652175  1  0  0.091507  0  0.978709  0  0  0.11097  0  1.044579  0  0  0.112246  0  1.04481  0  0  0.07409  0.110005  0  1.044465  0
H  H58  1  0.75109307  0.35690173  0.33697506  1  0  0.100486  0  0.969277  0  0  0.118079  0  1.037694  0  0  0.119596  0  1.03783  0  0  0.078737  0.116932  0  1.037653  0
H  H59  1  0.24890960  0.85690774  0.66302505  1  0  0.100446  0  0.969226  0  0  0.118029  0  1.037649  0  0  0.119537  0  1.037795  0  0  0.07867  0.116878  0  1.037615  0
C  C60  1  0.75190650  0.67942199  0.89116165  1  0  0.566218  0  3.7322  0  0  0.516166  0  4.023856  0  0  0.546547  0  4.023001  0  0  0.247021  0.495585  0  4.023854  0
C  C61  1  0.24807988  0.17941368  0.10883973  1  0  0.566228  0  3.73213  0  0  0.51614  0  4.023943  0  0  0.546524  0  4.023102  0  0  0.24703  0.495582  0  4.02392  0
C  C62  1  0.29922943  0.50221236  0.28137696  1  0  0.569141  0  3.728873  0  0  0.519144  0  4.021531  0  0  0.549594  0  4.020412  0  0  0.249902  0.498532  0  4.02176  0
C  C63  1  0.70077674  0.00222001  0.71862277  1  0  0.569099  0  3.729056  0  0  0.519049  0  4.021787  0  0  0.549502  0  4.020667  0  0  0.249917  0.498449  0  4.022005  0
C  C64  1  0.39378416  0.52472053  0.75572787  1  0  0.619697  0  3.748522  0  0  0.5676  0  4.043403  0  0  0.59739  0  4.042253  0  0  0.260613  0.547383  0  4.043697  0
C  C65  1  0.60619523  0.02471095  0.24426878  1  0  0.619498  0  3.748919  0  0  0.567448  0  4.043702  0  0  0.597251  0  4.042554  0  0  0.260575  0.547238  0  4.043987  0
C  C66  1  0.37704017  0.59272798  0.22955487  1  0  -0.280308  0  3.706392  0  0  -0.318249  0  3.951706  0  0  -0.324522  0  3.961212  0  0  -0.17149  -0.313971  0  3.94527  0
C  C67  1  0.62296403  0.09274058  0.77044287  1  0  -0.280258  0  3.706377  0  0  -0.318201  0  3.951691  0  0  -0.32449  0  3.961215  0  0  -0.171517  -0.313937  0  3.945266  0
C  C68  1  0.25507489  0.47142503  0.47918149  1  0  0.632789  0  3.737496  0  0  0.582958  0  4.026463  0  0  0.612677  0  4.025658  0  0  0.263013  0.562802  0  4.026417  0
C  C69  1  0.74492169  0.97142000  0.52083094  1  0  0.632889  0  3.736472  0  0  0.582971  0  4.025346  0  0  0.612731  0  4.024491  0  0  0.263119  0.562829  0  4.025279  0
C  C70  1  0.59882805  0.59467340  0.35866701  1  0  0.013948  0  3.587408  0  0  -0.049638  0  3.85326  0  0  -0.045097  0  3.864325  0  0  -0.061346  -0.052554  0  3.845528  0
C  C71  1  0.40119357  0.09468666  0.64132632  1  0  0.013867  0  3.587911  0  0  -0.049846  0  3.85381  0  0  -0.04532  0  3.864896  0  0  -0.061398  -0.052772  0  3.846098  0
C  C72  1  0.62351186  0.51544921  0.80725263  1  0  0.003757  0  3.597752  0  0  -0.01523  0  3.830249  0  0  -0.015522  0  3.8436  0  0  0.025068  -0.015048  0  3.821248  0
C  C73  1  0.37646736  0.01543540  0.19274461  1  0  0.003435  0  3.598318  0  0  -0.015353  0  3.830657  0  0  -0.015674  0  3.843992  0  0  0.024895  -0.01519  0  3.821661  0
C  C74  1  0.68575911  0.39169666  0.82496310  1  0  -0.105672  0  3.692452  0  0  -0.148772  0  3.953569  0  0  -0.149435  0  3.967091  0  0  -0.168146  -0.148098  0  3.944184  0
C  C75  1  0.31421504  0.89169141  0.17503674  1  0  -0.105412  0  3.692496  0  0  -0.148518  0  3.953576  0  0  -0.14915  0  3.967063  0  0  -0.167926  -0.14784  0  3.944196  0
C  C76  1  0.72993690  0.72126258  0.97252423  1  0  -0.277273  0  3.702983  0  0  -0.315904  0  3.951903  0  0  -0.322278  0  3.961123  0  0  -0.168215  -0.311411  0  3.945455  0
C  C77  1  0.27005684  0.22126185  0.02747802  1  0  -0.277158  0  3.702875  0  0  -0.315799  0  3.951889  0  0  -0.322181  0  3.961124  0  0  -0.168231  -0.311317  0  3.945438  0
C  C78  1  0.38789888  0.42669464  0.41457031  1  0  -0.001577  0  3.601551  0  0  -0.019381  0  3.832097  0  0  -0.019884  0  3.845372  0  0  0.026701  -0.01912  0  3.823262  0
C  C79  1  0.61212203  0.92670244  0.58542765  1  0  -0.00218  0  3.602377  0  0  -0.01929  0  3.832042  0  0  -0.019796  0  3.845274  0  0  0.026551  -0.019035  0  3.823212  0
C  C80  1  0.51111268  0.54997084  0.94491317  1  0  0.008192  0  3.591774  0  0  -0.056829  0  3.862549  0  0  -0.052298  0  3.874153  0  0  -0.061551  -0.059722  0  3.854486  0
C  C81  1  0.48886673  0.04996321  0.05508809  1  0  0.008123  0  3.591931  0  0  -0.056946  0  3.862847  0  0  -0.052412  0  3.874451  0  0  -0.061566  -0.059846  0  3.854804  0
C  C82  1  0.60163863  0.63455686  0.27341328  1  0  -0.111112  0  3.647117  0  0  -0.152395  0  3.904841  0  0  -0.15308  0  3.916957  0  0  -0.164341  -0.151701  0  3.896444  0
C  C83  1  0.39836485  0.13456332  0.72657910  1  0  -0.111297  0  3.647373  0  0  -0.152453  0  3.905028  0  0  -0.153122  0  3.917132  0  0  -0.164286  -0.151757  0  3.896632  0
C  C84  1  0.52584877  0.65588875  0.99689918  1  0  -0.10229  0  3.651013  0  0  -0.146379  0  3.914614  0  0  -0.146727  0  3.926315  0  0  -0.160746  -0.145904  0  3.906456  0
C  C85  1  0.47415085  0.15588771  0.00310347  1  0  -0.102382  0  3.65089  0  0  -0.146421  0  3.91454  0  0  -0.146768  0  3.926248  0  0  -0.160746  -0.145945  0  3.906372  0
C  C86  1  0.92905883  0.37495736  0.86306528  1  0  -0.2837  0  3.701714  0  0  -0.358286  0  3.949192  0  0  -0.360573  0  3.959792  0  0  -0.255438  -0.356399  0  3.941929  0
C  C87  1  0.07090636  0.87495166  0.13693706  1  0  -0.283942  0  3.701736  0  0  -0.358501  0  3.94914  0  0  -0.360802  0  3.959725  0  0  -0.255652  -0.35664  0  3.941871  0
C  C88  1  0.61406274  0.37361360  0.44964112  1  0  -0.098185  0  3.700728  0  0  -0.141279  0  3.962835  0  0  -0.141825  0  3.976662  0  0  -0.167846  -0.14067  0  3.95319  0
C  C89  1  0.38595702  0.87361753  0.55036213  1  0  -0.09796  0  3.700644  0  0  -0.141293  0  3.962763  0  0  -0.141846  0  3.976599  0  0  -0.167887  -0.140686  0  3.953127  0
C  C90  1  0.72509982  0.30648274  0.38886250  1  0  -0.29016  0  3.707964  0  0  -0.364006  0  3.955628  0  0  -0.366757  0  3.966911  0  0  -0.260573  -0.361772  0  3.94779  0
C  C91  1  0.27491898  0.80648786  0.61114081  1  0  -0.289942  0  3.707908  0  0  -0.363823  0  3.95565  0  0  -0.366584  0  3.966928  0  0  -0.260427  -0.361594  0  3.947799  0
N  N92  1  0.41861840  0.50804492  0.35310211  1  0  -0.221073  0  3.370959  0  0  -0.134345  0  3.597256  0  0  -0.155354  0  3.619499  0  0  -0.267675  -0.120196  0  3.581909  0
N  N93  1  0.58139956  0.00805942  0.64690110  1  0  -0.220693  0  3.370541  0  0  -0.134125  0  3.596761  0  0  -0.155133  0  3.618998  0  0  -0.267599  -0.119979  0  3.58142  0
N  N94  1  0.62886742  0.58434400  0.87763153  1  0  -0.218666  0  3.37918  0  0  -0.130141  0  3.604579  0  0  -0.151168  0  3.626868  0  0  -0.265978  -0.116011  0  3.58917  0
N  N95  1  0.37112112  0.08433482  0.12236837  1  0  -0.218583  0  3.379178  0  0  -0.130213  0  3.604747  0  0  -0.15125  0  3.627056  0  0  -0.265988  -0.116085  0  3.589331  0
N  N96  1  0.17235128  0.57538733  0.47564384  1  0  -0.654786  0  3.149349  0  0  -0.615334  0  3.379699  0  0  -0.637952  0  3.376018  0  0  -0.552829  -0.599871  0  3.382117  0
N  N97  1  0.82771670  0.07540713  0.52434246  1  0  -0.655043  0  3.148613  0  0  -0.615662  0  3.379024  0  0  -0.638298  0  3.375321  0  0  -0.552999  -0.600202  0  3.381449  0
N  N98  1  0.27032260  0.61680980  0.76080327  1  0  -0.651065  0  3.170272  0  0  -0.614069  0  3.406273  0  0  -0.636815  0  3.403212  0  0  -0.552523  -0.598531  0  3.408313  0
N  N99  1  0.72966969  0.11679654  0.23919850  1  0  -0.651122  0  3.170366  0  0  -0.614132  0  3.406381  0  0  -0.636876  0  3.40331  0  0  -0.552718  -0.598591  0  3.408432  0
Cl  Cl100  1  0.06661484  0.49960157  0.06141309  1  0  -0.564976  0  0.990061  0  0  -0.497516  0  1.271575  0  0  -0.515091  0  1.247414  0  0  -0.273382  -0.484974  0  1.288242  0
Cl  Cl101  1  0.93336776  0.99960649  0.93858581  1  0  -0.565007  0  0.990087  0  0  -0.497571  0  1.271568  0  0  -0.51514  0  1.247403  0  0  -0.273404  -0.48503  0  1.288242  0
Cl  Cl102  1  0.63033701  0.35859373  0.16587773  1  0  -0.554637  0  1.022762  0  0  -0.491745  0  1.313231  0  0  -0.508999  0  1.288855  0  0  -0.26499  -0.479441  0  1.329957  0
Cl  Cl103  1  0.36966011  0.85860425  0.83412852  1  0  -0.554655  0  1.022776  0  0  -0.491776  0  1.313179  0  0  -0.509034  0  1.288824  0  0  -0.265017  -0.47947  0  1.329904  0
Cl  Cl104  1  0.84324195  0.58411953  0.61794273  1  0  -0.55781  0  0.915089  0  0  -0.491744  0  1.163203  0  0  -0.507187  0  1.138516  0  0  -0.270167  -0.480738  0  1.180202  0
Cl  Cl105  1  0.15675736  0.08411536  0.38205013  1  0  -0.557816  0  0.914972  0  0  -0.491782  0  1.163073  0  0  -0.507216  0  1.13838  0  0  -0.270212  -0.480781  0  1.180078  0
Cl  Cl106  1  0.88497555  0.26823328  0.65254946  1  0  -0.535922  0  1.010838  0  0  -0.464398  0  1.293031  0  0  -0.482172  0  1.268987  0  0  -0.250708  -0.451788  0  1.309531  0
Cl  Cl107  1  0.11502938  0.76823066  0.34744917  1  0  -0.535921  0  1.010789  0  0  -0.464415  0  1.292995  0  0  -0.482188  0  1.268949  0  0  -0.250717  -0.451804  0  1.309491  0
O  O108  1  0.87043929  0.72210957  0.84184279  1  0  -0.578814  0  2.08139  0  0  -0.512086  0  2.350647  0  0  -0.537477  0  2.337309  0  0  -0.307386  -0.494476  0  2.359254  0
O  O109  1  0.12954116  0.22209518  0.15815473  1  0  -0.578756  0  2.081503  0  0  -0.511941  0  2.350795  0  0  -0.537301  0  2.337383  0  0  -0.307283  -0.494314  0  2.359336  0
O  O110  1  0.33423054  0.44380309  0.70953400  1  0  -0.588174  0  2.100141  0  0  -0.515015  0  2.371349  0  0  -0.541984  0  2.358329  0  0  -0.298927  -0.496404  0  2.379865  0
O  O111  1  0.66576172  0.94378450  0.29046197  1  0  -0.58791  0  2.099967  0  0  -0.514834  0  2.371215  0  0  -0.541853  0  2.358238  0  0  -0.298798  -0.496212  0  2.379714  0
O  O112  1  0.14202262  0.43089353  0.26479596  1  0  -0.573979  0  2.087163  0  0  -0.509069  0  2.3583  0  0  -0.534598  0  2.344625  0  0  -0.301301  -0.491428  0  2.367207  0
O  O113  1  0.85796882  0.93090687  0.73520872  1  0  -0.574056  0  2.08741  0  0  -0.509101  0  2.358546  0  0  -0.534625  0  2.344863  0  0  -0.301325  -0.49146  0  2.367451  0
O  O114  1  0.22590845  0.40301445  0.53385397  1  0  -0.584689  0  2.066208  0  0  -0.51151  0  2.327798  0  0  -0.538658  0  2.315028  0  0  -0.300936  -0.492747  0  2.336023  0
O  O115  1  0.77411403  0.90301369  0.46614120  1  0  -0.584743  0  2.065601  0  0  -0.511638  0  2.327275  0  0  -0.538782  0  2.314472  0  0  -0.301029  -0.492879  0  2.335488  0
