# generated using pymatgen
data_SmH10C11(NO3)3
_symmetry_space_group_name_H-M   'P 1'
_cell_length_a   6.84996927
_cell_length_b   8.79203949
_cell_length_c   11.81339829
_cell_angle_alpha   75.62540603
_cell_angle_beta   81.70346734
_cell_angle_gamma   68.76121652
_symmetry_Int_Tables_number   1
_chemical_formula_structural   SmH10C11(NO3)3
_chemical_formula_sum   'Sm2 H20 C22 N6 O18'
_cell_volume   641.21464011
_cell_formula_units_Z   2
loop_
 _symmetry_equiv_pos_site_id
 _symmetry_equiv_pos_as_xyz
  1  'x, y, z'
loop_
 _atom_site_type_symbol
 _atom_site_label
 _atom_site_symmetry_multiplicity
 _atom_site_fract_x
 _atom_site_fract_y
 _atom_site_fract_z
 _atom_site_occupancy
 _atom_site_pbe_bader_charge
 _atom_site_pbe_bader_spin_density
 _atom_site_pbe_cm5_charge
 _atom_site_pbe_ddec_charge
 _atom_site_pbe_ddec_spin_density
 _atom_site_pbe_ddec_sum_bond_order
 _atom_site_pbe_magmom
Sm  Sm0  1  0.51912357  0.32647538  0.39660335  1  2.242243  0  1.475828  2.13939  0  2.070124  0
Sm  Sm1  1  0.48087594  0.67352712  0.60339918  1  2.242225  0  1.475822  2.139365  0  2.070085  0
H  H2  1  0.92988880  0.90052203  0.83550862  1  0.145771  0  0.122111  0.137853  0  0.992355  0
H  H3  1  0.07011230  0.09947672  0.16448939  1  0.145785  0  0.122134  0.137866  0  0.992428  0
H  H4  1  0.61178839  0.24409060  0.06617280  1  0.148442  0  0.117889  0.139927  0  1.0233  0
H  H5  1  0.38820976  0.75590815  0.93382546  1  0.148428  0  0.117879  0.139895  0  1.02337  0
H  H6  1  0.93155980  0.14723047  0.67751084  1  0.215368  0  0.143449  0.147522  0  0.983485  0
H  H7  1  0.06843822  0.85277202  0.32248927  1  0.215363  0  0.143454  0.147527  0  0.983463  0
H  H8  1  0.63283949  0.47701461  0.89547408  1  0.151341  0  0.137463  0.131284  0  0.999092  0
H  H9  1  0.36715612  0.52298664  0.10452562  1  0.151357  0  0.137446  0.131264  0  0.999132  0
H  H10  1  0.94704236  0.46120671  0.39337558  1  0.105699  0  0.113665  0.012754  0  1.04111  0
H  H11  1  0.05296197  0.53879828  0.60662185  1  0.105709  0  0.113679  0.012745  0  1.041099  0
H  H12  1  0.90558657  0.69898476  0.98136862  1  0.556788  0  0.310705  0.292746  0  1.000632  0
H  H13  1  0.09441507  0.30101274  0.01862958  1  0.556793  0  0.310742  0.292824  0  1.000577  0
H  H14  1  0.61611535  0.98396285  0.37698874  1  0.638176  0  0.300643  0.38606  0  0.964927  0
H  H15  1  0.38387612  0.01604464  0.62301269  1  0.638626  0  0.300633  0.386051  0  0.964951  0
H  H16  1  0.78598499  0.96745775  0.45534987  1  0.638457  0  0.316181  0.415293  0  0.896534  0
H  H17  1  0.21400874  0.03254100  0.54465469  1  0.638499  0  0.316149  0.415237  0  0.896613  0
H  H18  1  0.26692089  0.28506670  0.20941611  1  0.63436  0  0.299645  0.395611  0  0.934979  0
H  H19  1  0.73307874  0.71493205  0.79058541  1  0.634361  0  0.299625  0.395517  0  0.935102  0
H  H20  1  0.47737406  0.12425356  0.21372144  1  0.641672  0  0.290616  0.365623  0  0.984795  0
H  H21  1  0.52262651  0.87574644  0.78628062  1  0.641665  0  0.290612  0.365585  0  0.984846  0
C  C22  1  0.84353663  0.46973171  0.17182037  1  1.657059  0  0.231534  0.61521  0  4.216755  0
C  C23  1  0.15647735  0.53026453  0.82818210  1  1.656914  0  0.231606  0.61522  0  4.216734  0
C  C24  1  0.77134594  0.65540058  0.15476458  1  0.428332  0  0.103121  0.021928  0  3.890332  0
C  C25  1  0.22865905  0.34459941  0.84523541  1  0.428291  0  0.103139  0.021964  0  3.890393  0
C  C26  1  0.65003236  0.77002396  0.22324221  1  0.458458  0  0.084607  -0.004568  0  3.97483  0
C  C27  1  0.34996968  0.22997603  0.77675718  1  0.458408  0  0.084621  -0.004535  0  3.97474  0
C  C28  1  0.55829893  0.74007326  0.34422708  1  1.558799  0  0.21508  0.589333  0  4.227265  0
C  C29  1  0.44169762  0.25992924  0.65577146  1  1.558778  0  0.215029  0.589269  0  4.227221  0
C  C30  1  0.74054384  0.91425480  0.05948281  1  0.946957  0  0.216169  0.271778  0  4.021694  0
C  C31  1  0.25945431  0.08574395  0.94051714  1  0.946911  0  0.216219  0.271919  0  4.021553  0
C  C32  1  0.76089471  0.05076480  0.96513453  1  -0.02487  0  0.001237  0.025185  0  4.030919  0
C  C33  1  0.23910196  0.94923395  0.03486555  1  -0.024796  0  0.001209  0.025166  0  4.030899  0
C  C34  1  0.85845208  0.02484480  0.85488044  1  0.017381  0  -0.070059  -0.126108  0  3.918141  0
C  C35  1  0.14154701  0.97515520  0.14512005  1  0.017388  0  -0.070083  -0.126103  0  3.91818  0
C  C36  1  0.68150722  0.21602455  0.98152409  1  0.085352  0  -0.077438  -0.133883  0  3.934758  0
C  C37  1  0.31848745  0.78397545  0.01847423  1  0.085321  0  -0.077402  -0.133865  0  3.934846  0
C  C38  1  0.86425777  0.15864304  0.76540721  1  0.350886  0  0.051236  -0.009963  0  3.785883  0
C  C39  1  0.13574534  0.84135446  0.23459425  1  0.350907  0  0.051241  -0.010019  0  3.785888  0
C  C40  1  0.69133114  0.34628712  0.89038883  1  0.331507  0  0.041787  -0.040691  0  3.864387  0
C  C41  1  0.30866541  0.65371537  0.10960972  1  0.331505  0  0.041776  -0.040697  0  3.86446  0
C  C42  1  0.00152964  0.32839827  0.43881304  1  1.535473  0  0.158371  0.535069  0  4.192749  0
C  C43  1  0.99847134  0.67160422  0.56119022  1  1.535449  0  0.1584  0.535242  0  4.192466  0
N  N44  1  0.82695116  0.74938281  0.05337176  1  -1.26718  0  -0.365264  -0.272052  0  3.631672  0
N  N45  1  0.17304793  0.25061718  0.94662704  1  -1.267148  0  -0.365286  -0.272195  0  3.63175  0
N  N46  1  0.63397951  0.92924106  0.16290403  1  -1.174933  0  -0.308594  -0.341052  0  3.290313  0
N  N47  1  0.36602307  0.07075769  0.83709555  1  -1.174934  0  -0.308589  -0.341121  0  3.290278  0
N  N48  1  0.77652141  0.31783883  0.78260823  1  -0.648793  0  -0.112117  0.337778  0  3.962071  0
N  N49  1  0.22347768  0.68216116  0.21739226  1  -0.648979  0  -0.112062  0.337902  0  3.961832  0
O  O50  1  0.71667657  0.39582800  0.22197165  1  -1.194961  0  -0.397528  -0.658835  0  2.345167  0
O  O51  1  0.28334238  0.60416700  0.77803572  1  -1.194942  0  -0.397559  -0.658794  0  2.345111  0
O  O52  1  0.02760184  0.39944725  0.13049647  1  -1.207128  0  -0.312829  -0.564303  0  2.226544  0
O  O53  1  0.97240516  0.60055150  0.86950020  1  -1.20696  0  -0.312887  -0.564329  0  2.226483  0
O  O54  1  0.57164772  0.59177293  0.40073458  1  -1.209411  0  -0.411044  -0.749639  0  2.450666  0
O  O55  1  0.42835072  0.40823206  0.59926335  1  -1.209359  0  -0.411038  -0.749615  0  2.450592  0
O  O56  1  0.47210152  0.86307389  0.39376665  1  -1.171563  0  -0.328129  -0.581955  0  2.28335  0
O  O57  1  0.52789892  0.13692986  0.60623219  1  -1.171554  0  -0.3281  -0.581892  0  2.283322  0
O  O58  1  0.77713127  0.44411875  0.69533974  1  -0.655295  0  -0.2967  -0.575173  0  2.105564  0
O  O59  1  0.22287332  0.55587875  0.30466244  1  -0.655102  0  -0.296748  -0.575262  0  2.105472  0
O  O60  1  0.87157836  0.25125587  0.46473028  1  -1.189968  0  -0.379387  -0.601644  0  2.283287  0
O  O61  1  0.12841659  0.74875037  0.53527617  1  -1.189986  0  -0.379425  -0.601726  0  2.283259  0
O  O62  1  0.19391810  0.26331779  0.46197992  1  -1.209777  0  -0.387585  -0.624501  0  2.333492  0
O  O63  1  0.80608021  0.73669095  0.53801987  1  -1.209707  0  -0.387577  -0.624592  0  2.333292  0
O  O64  1  0.71187621  0.04272493  0.38617648  1  -1.255799  0  -0.657074  -0.840024  0  2.117384  0
O  O65  1  0.28811887  0.95727756  0.61382726  1  -1.256263  0  -0.657016  -0.839972  0  2.117422  0
O  O66  1  0.41374413  0.23819270  0.23133631  1  -1.278898  0  -0.627619  -0.83596  0  2.149306  0
O  O67  1  0.58625550  0.76180605  0.76866690  1  -1.278901  0  -0.627615  -0.835833  0  2.149477  0
