# generated using pymatgen
data_CuH12C8(N4Cl)2
_symmetry_space_group_name_H-M   'P 1'
_cell_length_a   8.44407207
_cell_length_b   8.68701116
_cell_length_c   9.60259320
_cell_angle_alpha   90.00008646
_cell_angle_beta   105.29227479
_cell_angle_gamma   90.00044102
_symmetry_Int_Tables_number   1
_chemical_formula_structural   CuH12C8(N4Cl)2
_chemical_formula_sum   'Cu2 H24 C16 N16 Cl4'
_cell_volume   679.44599332
_cell_formula_units_Z   2
loop_
 _symmetry_equiv_pos_site_id
 _symmetry_equiv_pos_as_xyz
  1  'x, y, z'
loop_
 _atom_site_type_symbol
 _atom_site_label
 _atom_site_symmetry_multiplicity
 _atom_site_fract_x
 _atom_site_fract_y
 _atom_site_fract_z
 _atom_site_occupancy
 _atom_site_hle17_ddec_charge
 _atom_site_hle17_ddec_spin_density
 _atom_site_hle17_ddec_sum_bond_order
 _atom_site_hle17_magmom
 _atom_site_hse06_10hf_ddec_charge
 _atom_site_hse06_10hf_ddec_spin_density
 _atom_site_hse06_10hf_ddec_sum_bond_order
 _atom_site_hse06_10hf_magmom
 _atom_site_hse06_ddec_charge
 _atom_site_hse06_ddec_spin_density
 _atom_site_hse06_ddec_sum_bond_order
 _atom_site_hse06_magmom
 _atom_site_pbe_cm5_charge
 _atom_site_pbe_ddec_charge
 _atom_site_pbe_ddec_spin_density
 _atom_site_pbe_ddec_sum_bond_order
 _atom_site_pbe_magmom
Cu  Cu0  1  0.00000604  0.49999864  0.50000276  1  0.700848  -0.63738  1.997287  -0.466  0.674286  -0.744006  2.409052  -0.591  0.766456  -0.810344  2.334643  -0.677  0.617455  0.623372  -0.701532  2.455291  -0.54
Cu  Cu1  1  0.99999921  0.00000117  0.99999883  1  0.700809  -0.637378  1.997378  -0.466  0.674324  -0.744036  2.40912  -0.591  0.76647  -0.810355  2.334642  -0.677  0.617441  0.623341  -0.701544  2.455379  -0.54
H  H2  1  0.12655229  0.74939700  0.79567264  1  0.118309  0.000534  0.948479  0.0  0.123712  0.000357  1.011671  0.0  0.127397  0.000324  1.00757  0.0  0.133853  0.121023  0.000356  1.014599  0.0
H  H3  1  0.87344536  0.24939001  0.70432540  1  0.118291  0.000535  0.948432  0.0  0.123677  0.000357  1.011651  0.0  0.127362  0.000324  1.007548  0.0  0.133844  0.120987  0.000356  1.014581  0.0
H  H4  1  0.87344645  0.25060519  0.20432777  1  0.118306  0.000536  0.948448  0.0  0.123672  0.000357  1.011684  0.0  0.127355  0.000324  1.007586  0.0  0.133843  0.120984  0.000356  1.01461  0.0
H  H5  1  0.12655829  0.75061102  0.29567615  1  0.118167  0.000534  0.948527  0.0  0.123581  0.000357  1.011744  0.0  0.12725  0.000325  1.007639  0.0  0.133793  0.120894  0.000356  1.014675  0.0
H  H6  1  0.61808075  0.65331604  0.46914808  1  0.110218  2.4e-05  0.933168  0.0  0.123361  -0.000149  0.997266  0.0  0.125603  -7.8e-05  0.99511  0.0  0.114838  0.121787  -0.000213  0.998836  0.0
H  H7  1  0.38192192  0.15331081  0.03084794  1  0.110181  2.5e-05  0.933212  0.0  0.12337  -0.000149  0.997297  0.0  0.125615  -7.8e-05  0.995139  0.0  0.114836  0.121792  -0.000213  0.998867  0.0
H  H8  1  0.38192414  0.34668039  0.53084961  1  0.110224  2.1e-05  0.933223  0.0  0.123415  -0.000149  0.997266  0.0  0.12566  -7.8e-05  0.995106  0.0  0.114866  0.12184  -0.000212  0.998837  0.0
H  H9  1  0.61808539  0.84668793  0.96916072  1  0.110197  2.7e-05  0.933219  0.0  0.123345  -0.000149  0.997274  0.0  0.125587  -7.8e-05  0.995117  0.0  0.114833  0.121766  -0.000213  0.998842  0.0
H  H10  1  0.50993469  0.79132864  0.54557839  1  0.106787  -0.001497  0.94011  0.0  0.122468  -0.001381  1.00044  0.0  0.124013  -0.001016  1.000061  0.0  0.11472  0.12141  -0.001667  1.000772  0.0
H  H11  1  0.49006825  0.29132611  0.95442094  1  0.10677  -0.001497  0.940066  0.0  0.122486  -0.001381  1.000409  0.0  0.12403  -0.001015  1.000031  0.0  0.114728  0.121421  -0.001668  1.00075  0.0
H  H12  1  0.49006528  0.20866894  0.45442126  1  0.106783  -0.001497  0.94014  0.0  0.12249  -0.00138  1.000454  0.0  0.124035  -0.001015  1.000076  0.0  0.114725  0.121431  -0.001667  1.000782  0.0
H  H13  1  0.50994150  0.70867723  0.04559246  1  0.106793  -0.001497  0.940131  0.0  0.12249  -0.00138  1.000408  0.0  0.12404  -0.001015  1.000019  0.0  0.114682  0.121424  -0.001667  1.000751  0.0
H  H14  1  0.48602710  0.86574633  0.28832270  1  0.094129  -0.000244  0.96856  0.0  0.105195  -0.000324  1.031498  0.0  0.108318  -0.00023  1.029812  0.0  0.094103  0.103024  -0.000409  1.032784  0.0
H  H15  1  0.51396392  0.36574701  0.21167815  1  0.094122  -0.000245  0.96848  0.0  0.10519  -0.000325  1.03141  0.0  0.108313  -0.00023  1.029725  0.0  0.094122  0.103017  -0.000409  1.032695  0.0
H  H16  1  0.51395813  0.13424550  0.71167453  1  0.09411  -0.000241  0.96852  0.0  0.105184  -0.000325  1.031454  0.0  0.108305  -0.00023  1.02977  0.0  0.094115  0.103014  -0.000409  1.03274  0.0
H  H17  1  0.48603109  0.63425402  0.78833283  1  0.094096  -0.000246  0.968472  0.0  0.105184  -0.000324  1.031378  0.0  0.108306  -0.00023  1.029694  0.0  0.094131  0.103015  -0.000409  1.032664  0.0
H  H18  1  0.82727430  0.00219527  0.43736345  1  0.114669  8.2e-05  0.973067  0.0  0.126879  2.8e-05  1.037191  0.0  0.129648  2.7e-05  1.036526  0.0  0.08486  0.124922  2.8e-05  1.037686  0.0
H  H19  1  0.17271605  0.50218608  0.06261178  1  0.114715  8.1e-05  0.972984  0.0  0.126918  2.8e-05  1.037116  0.0  0.12965  2.7e-05  1.036498  0.0  0.084872  0.124964  2.8e-05  1.037599  0.0
H  H20  1  0.17270611  0.99780807  0.56261079  1  0.114711  8e-05  0.972876  0.0  0.12688  2.8e-05  1.037063  0.0  0.129618  2.7e-05  1.036436  0.0  0.084829  0.124928  2.8e-05  1.037546  0.0
H  H21  1  0.82728144  0.49781495  0.93739250  1  0.114655  8.5e-05  0.973014  0.0  0.126869  2.8e-05  1.037135  0.0  0.129615  2.7e-05  1.036501  0.0  0.084846  0.124912  2.8e-05  1.037625  0.0
H  H22  1  0.68986524  0.05154183  0.25794058  1  0.12644  0.000127  0.975995  0.0  0.141377  6e-06  1.037303  0.0  0.144431  2.2e-05  1.036122  0.0  0.088138  0.139266  -1.3e-05  1.038111  0.0
H  H23  1  0.31011446  0.55154320  0.24204159  1  0.126377  0.000128  0.975982  0.0  0.141305  6e-06  1.037318  0.0  0.144393  2.2e-05  1.036091  0.0  0.088132  0.139188  -1.3e-05  1.038132  0.0
H  H24  1  0.31010899  0.94844999  0.74204158  1  0.126291  0.000125  0.975974  0.0  0.141235  6e-06  1.037309  0.0  0.144333  2.2e-05  1.036075  0.0  0.088115  0.139117  -1.3e-05  1.03812  0.0
H  H25  1  0.68988057  0.44845669  0.75796420  1  0.126449  0.000128  0.975923  0.0  0.141368  6e-06  1.037261  0.0  0.144467  2.2e-05  1.036023  0.0  0.088179  0.139249  -1.3e-05  1.038076  0.0
C  C26  1  0.00013453  0.78262540  0.74906616  1  0.178758  0.004643  3.675864  0.002  0.132034  0.001038  3.957299  0.0  0.142852  0.002057  3.972167  0.0  0.159516  0.125386  0.000321  3.947904  -0.001
C  C27  1  0.99987079  0.28262060  0.75093268  1  0.178744  0.004625  3.675945  0.002  0.132022  0.001039  3.957372  0.0  0.142843  0.002058  3.972241  0.0  0.159483  0.125377  0.000321  3.947976  -0.001
C  C28  1  0.99986545  0.21737564  0.25093037  1  0.178776  0.004613  3.675899  0.002  0.132056  0.001039  3.95732  0.0  0.142875  0.002057  3.97219  0.0  0.159491  0.125411  0.000322  3.947925  -0.001
C  C29  1  0.00014880  0.71738159  0.24907678  1  0.178986  0.004651  3.675481  0.002  0.132188  0.001038  3.956973  0.0  0.143032  0.002058  3.971815  0.0  0.159542  0.125535  0.000321  3.947588  -0.001
C  C30  1  0.61497010  0.77546048  0.49956911  1  -0.068743  -0.002546  3.640543  -0.003  -0.124962  -0.002307  3.878755  -0.002  -0.123305  -0.00169  3.889205  -0.002  -0.042436  -0.125964  -0.002774  3.871593  -0.003
C  C31  1  0.38503242  0.27545407  0.00042911  1  -0.068628  -0.002549  3.640479  -0.003  -0.125005  -0.002307  3.878836  -0.002  -0.12335  -0.001691  3.889287  -0.002  -0.042496  -0.126004  -0.002774  3.87166  -0.003
C  C32  1  0.38503479  0.22454056  0.50043065  1  -0.068681  -0.002539  3.640626  -0.003  -0.125006  -0.002306  3.878916  -0.002  -0.123351  -0.00169  3.889364  -0.002  -0.042483  -0.126001  -0.002774  3.871746  -0.003
C  C33  1  0.61497487  0.72454697  0.99958371  1  -0.068789  -0.002549  3.640688  -0.003  -0.124937  -0.002307  3.878714  -0.002  -0.123282  -0.00169  3.889162  -0.002  -0.042442  -0.125941  -0.002774  3.871545  -0.003
C  C34  1  0.60139645  0.87922098  0.37233144  1  -0.028191  -0.000594  3.751495  -0.001  -0.03315  -0.000364  4.008086  0.0  -0.035205  -0.00015  4.030194  0.0  -0.098398  -0.031655  -0.000587  3.992825  -0.001
C  C35  1  0.39860087  0.37921719  0.12766049  1  -0.028243  -0.000579  3.751346  -0.001  -0.033141  -0.000364  4.007939  0.0  -0.035198  -0.00015  4.030049  0.0  -0.098356  -0.031642  -0.000587  3.992672  -0.001
C  C36  1  0.39859495  0.12077661  0.62765995  1  -0.028325  -0.000632  3.75178  -0.001  -0.033272  -0.000363  4.008372  0.0  -0.03533  -0.00015  4.03049  0.0  -0.098486  -0.031781  -0.000587  3.993111  -0.001
C  C37  1  0.60140030  0.62078039  0.87234673  1  -0.028146  -0.000531  3.751572  -0.001  -0.033135  -0.000364  4.008116  0.0  -0.035193  -0.00015  4.030237  0.0  -0.098354  -0.03164  -0.000587  3.992851  -0.001
C  C38  1  0.71205158  0.98216127  0.35564126  1  -0.278065  -0.000937  3.663578  -0.001  -0.329976  -0.0004  3.912382  0.0  -0.334451  -0.0002  3.929382  0.0  -0.199179  -0.326615  -0.000653  3.900607  0.0
C  C39  1  0.28793932  0.48215438  0.14434201  1  -0.278051  -0.00095  3.663431  -0.001  -0.329969  -0.0004  3.91223  0.0  -0.33444  -0.0002  3.929233  0.0  -0.199221  -0.326596  -0.000653  3.90047  0.0
C  C40  1  0.28793495  0.01784207  0.64433962  1  -0.277808  -0.0009  3.663529  -0.001  -0.329698  -0.0004  3.912335  0.0  -0.334183  -0.0002  3.929329  0.0  -0.199027  -0.326322  -0.000652  3.900573  0.0
C  C41  1  0.71205448  0.51784666  0.85566348  1  -0.278042  -0.000997  3.663591  -0.001  -0.32996  -0.0004  3.912419  0.0  -0.334453  -0.000201  3.9294  0.0  -0.199223  -0.326589  -0.000652  3.900657  0.0
N  N42  1  0.90371711  0.72676023  0.62719235  1  -0.269001  -0.003639  2.958768  -0.006  -0.256636  -0.001095  3.250784  -0.003  -0.27051  -0.000396  3.264981  -0.002  -0.194364  -0.248695  -0.002096  3.242606  -0.004
N  N43  1  0.09628405  0.22675114  0.87280128  1  -0.269005  -0.003627  2.958897  -0.006  -0.25665  -0.001093  3.250921  -0.003  -0.27052  -0.000395  3.265104  -0.002  -0.194377  -0.248701  -0.002096  3.24273  -0.004
N  N44  1  0.09628410  0.27324426  0.37280447  1  -0.268981  -0.00362  2.958849  -0.006  -0.256625  -0.001095  3.25088  -0.003  -0.2705  -0.000396  3.265077  -0.002  -0.194355  -0.248683  -0.002096  3.242704  -0.004
N  N45  1  0.90371838  0.77324875  0.12719895  1  -0.26911  -0.00364  2.958788  -0.006  -0.256744  -0.001092  3.250864  -0.003  -0.270614  -0.000394  3.265041  -0.002  -0.194392  -0.248793  -0.002097  3.242673  -0.004
N  N46  1  0.76255487  0.80091178  0.61664045  1  0.247281  0.000261  3.515802  0.0  0.29986  -0.000816  3.788543  -0.001  0.298183  -0.000222  3.808665  -0.001  0.01146  0.300967  -0.001299  3.7749  -0.002
N  N47  1  0.23744940  0.30090146  0.88335504  1  0.247315  0.000267  3.515878  0.0  0.29993  -0.000819  3.788654  -0.001  0.298254  -0.000224  3.808774  -0.001  0.011502  0.301038  -0.001299  3.775006  -0.002
N  N48  1  0.23745004  0.19909502  0.38335515  1  0.247225  0.000258  3.515973  0.0  0.299813  -0.000817  3.788735  -0.001  0.298137  -0.000221  3.808855  -0.001  0.011484  0.30092  -0.001299  3.7751  -0.002
N  N49  1  0.76255793  0.69909612  0.11664946  1  0.247345  0.000264  3.516201  0.0  0.299883  -0.000819  3.78894  -0.001  0.298203  -0.000226  3.809067  -0.001  0.011492  0.300995  -0.001299  3.775281  -0.002
N  N50  1  0.76707791  0.89853465  0.72276192  1  -0.057335  0.004323  2.813224  0.004  -0.054089  0.000959  3.085575  0.001  -0.046101  0.001961  3.097545  0.002  -0.052164  -0.058753  0.00026  3.077838  0.0
N  N51  1  0.23292477  0.39852527  0.77723437  1  -0.05739  0.004305  2.813258  0.004  -0.054161  0.00096  3.085564  0.001  -0.04617  0.001962  3.097534  0.002  -0.052155  -0.058823  0.00026  3.077835  0.0
N  N52  1  0.23292086  0.10147330  0.27723120  1  -0.057309  0.0043  2.813421  0.004  -0.054065  0.000962  3.085704  0.001  -0.046074  0.001963  3.097672  0.002  -0.052126  -0.058728  0.00026  3.07798  0.0
N  N53  1  0.76708624  0.60147462  0.22277100  1  -0.057295  0.004314  2.81333  0.004  -0.054054  0.000959  3.085637  0.001  -0.046064  0.001963  3.097611  0.002  -0.052154  -0.058717  0.000259  3.077902  0.0
N  N54  1  0.91847437  0.88757640  0.80841673  1  -0.232803  -0.05797  3.270483  -0.074  -0.193952  -0.045914  3.585222  -0.062  -0.222367  -0.038187  3.605928  -0.055  -0.227874  -0.177955  -0.050071  3.573467  -0.064
N  N55  1  0.08152698  0.38756803  0.69158027  1  -0.232774  -0.057957  3.270447  -0.074  -0.193858  -0.045914  3.585108  -0.062  -0.222284  -0.038186  3.605838  -0.055  -0.227831  -0.17788  -0.050069  3.573381  -0.064
N  N56  1  0.08152317  0.11242809  0.19157714  1  -0.232883  -0.057945  3.270612  -0.074  -0.193958  -0.045914  3.585281  -0.062  -0.222374  -0.038185  3.605985  -0.055  -0.227903  -0.177966  -0.050066  3.57354  -0.064
N  N57  1  0.91848157  0.61243070  0.30842556  1  -0.232905  -0.057967  3.27034  -0.074  -0.193972  -0.045916  3.585026  -0.062  -0.222398  -0.038189  3.605751  -0.055  -0.227864  -0.177991  -0.050071  3.573299  -0.064
Cl  Cl58  1  0.74942381  0.37877677  0.46518256  1  -0.512856  -0.123878  0.946646  -0.152  -0.519272  -0.077632  1.229768  -0.102  -0.551745  -0.057051  1.209483  -0.082  -0.295809  -0.499833  -0.09042  1.244054  -0.113
Cl  Cl59  1  0.25057841  0.87877503  0.03481469  1  -0.512836  -0.123874  0.946691  -0.152  -0.519272  -0.077626  1.229818  -0.102  -0.551747  -0.057048  1.209536  -0.082  -0.295791  -0.499813  -0.090412  1.244095  -0.113
Cl  Cl60  1  0.25058844  0.62122082  0.53482206  1  -0.51284  -0.123871  0.946685  -0.152  -0.519256  -0.077628  1.229783  -0.102  -0.551716  -0.057049  1.209481  -0.082  -0.295805  -0.499824  -0.090411  1.244082  -0.113
Cl  Cl61  1  0.74941912  0.12122256  0.96518230  1  -0.512842  -0.12388  0.946723  -0.152  -0.519272  -0.077627  1.229847  -0.102  -0.551724  -0.057048  1.209521  -0.082  -0.295802  -0.499811  -0.09042  1.244119  -0.113
