# generated using pymatgen
data_CoH11C11NO9
_symmetry_space_group_name_H-M   'P 1'
_cell_length_a   11.42521125
_cell_length_b   15.17556825
_cell_length_c   17.77369471
_cell_angle_alpha   115.24509133
_cell_angle_beta   89.95171254
_cell_angle_gamma   90.02842288
_symmetry_Int_Tables_number   1
_chemical_formula_structural   CoH11C11NO9
_chemical_formula_sum   'Co8 H88 C88 N8 O72'
_cell_volume   2787.34892675
_cell_formula_units_Z   8
loop_
 _symmetry_equiv_pos_site_id
 _symmetry_equiv_pos_as_xyz
  1  'x, y, z'
loop_
 _atom_site_type_symbol
 _atom_site_label
 _atom_site_symmetry_multiplicity
 _atom_site_fract_x
 _atom_site_fract_y
 _atom_site_fract_z
 _atom_site_occupancy
 _atom_site_pbe_bader_charge
 _atom_site_pbe_bader_spin_density
 _atom_site_pbe_cm5_charge
 _atom_site_pbe_ddec_charge
 _atom_site_pbe_ddec_spin_density
 _atom_site_pbe_ddec_sum_bond_order
 _atom_site_pbe_magmom
Co  Co0  1  0.78647624  0.63574662  0.00013738  1  1.369837  2.661728  0.658828  1.131118  2.864877  2.249247  2.651
Co  Co1  1  0.21359367  0.36426816  0.99983973  1  1.369949  2.661722  0.658754  1.130637  2.864893  2.249888  2.651
Co  Co2  1  0.50096559  0.37915314  0.75845733  1  1.298823  2.619721  0.674024  0.901494  2.811622  2.406367  2.602
Co  Co3  1  0.49895301  0.62075328  0.24129068  1  1.298779  2.618988  0.675503  0.903374  2.811074  2.410565  2.601
Co  Co4  1  0.28623690  0.86419157  0.99996959  1  1.371392  2.663419  0.659938  1.13249  2.867392  2.248548  2.652
Co  Co5  1  0.71375947  0.13581081  0.00002045  1  1.371368  2.663357  0.659951  1.132338  2.867368  2.248611  2.652
Co  Co6  1  0.99999175  0.11985255  0.23971895  1  1.296942  2.625945  0.672955  0.905328  2.819058  2.401356  2.608
Co  Co7  1  0.00000200  0.88014763  0.76027760  1  1.297124  2.625802  0.672837  0.905144  2.818868  2.400811  2.607
H  H8  1  0.72686622  0.59494866  0.74265731  1  0.647048  -2.5e-05  0.298371  0.36279  -4.4e-05  0.975078  0.0
H  H9  1  0.47672425  0.26548215  0.84572330  1  0.672168  -1.7e-05  0.294874  0.386763  -0.000134  0.9538  0.0
H  H10  1  0.58349878  0.34141413  0.87307138  1  0.629028  0.000209  0.292565  0.371946  0.000238  0.973857  0.0
H  H11  1  0.64302361  0.19751305  0.71072667  1  0.13855  0.001759  0.119395  0.090683  0.000366  1.033759  0.001
H  H12  1  0.65492279  0.03339899  0.59866924  1  0.097954  0.000931  0.109585  0.118629  0.000436  1.027804  0.0
H  H13  1  0.34240842  0.09852143  0.49429738  1  0.042186  0.000907  0.106673  0.108271  0.000409  1.033858  0.0
H  H14  1  0.34025380  0.26038302  0.61539348  1  0.109643  0.00179  0.121701  0.096965  0.000539  0.987336  0.001
H  H15  1  0.57612832  0.61033282  0.05130780  1  0.650081  0.001245  0.293863  0.40127  0.000974  0.928423  0.001
H  H16  1  0.73797458  0.83058341  0.04903227  1  0.643495  0.000768  0.310613  0.403425  0.00042  0.908212  0.001
H  H17  1  0.98854286  0.67837085  0.94873772  1  0.660773  0.001041  0.299038  0.402192  0.000706  0.92468  0.001
H  H18  1  0.81135588  0.49597050  0.04788461  1  0.62157  0.000196  0.291335  0.368882  8.7e-05  0.976477  0.0
H  H19  1  0.27322594  0.14783454  0.74259168  1  0.647651  -2.7e-05  0.298229  0.362785  -4.3e-05  0.974528  0.0
H  H20  1  0.52339861  0.58078398  0.84634266  1  0.654352  0.000152  0.294301  0.385116  7e-06  0.956063  0.0
H  H21  1  0.41665530  0.53204885  0.87316818  1  0.618583  0.000269  0.290941  0.36987  0.000397  0.977158  0.0
H  H22  1  0.35653612  0.51324584  0.71077201  1  0.137438  0.001703  0.119298  0.090464  0.000358  1.035179  0.001
H  H23  1  0.34493247  0.56524573  0.59869096  1  0.108571  0.000968  0.10926  0.117953  0.000492  1.028692  0.0
H  H24  1  0.65757554  0.39580343  0.49434605  1  0.048927  0.00102  0.106575  0.107907  0.000484  1.033753  0.0
H  H25  1  0.65970593  0.35519242  0.61536271  1  0.115024  0.001803  0.120822  0.095563  0.00063  0.988453  0.001
H  H26  1  0.42419247  0.44041355  0.05107826  1  0.656411  0.001233  0.293389  0.401813  0.00093  0.928768  0.002
H  H27  1  0.26196169  0.21853122  0.04893790  1  0.657635  0.000729  0.311142  0.404595  0.000416  0.90644  0.001
H  H28  1  0.01172680  0.27022889  0.94869636  1  0.657542  0.001045  0.298753  0.402048  0.00071  0.924938  0.001
H  H29  1  0.18849575  0.55172760  0.04764809  1  0.614222  0.000218  0.291488  0.368665  8.5e-05  0.97682  0.0
H  H30  1  0.27314860  0.40489793  0.25715269  1  0.647318  -2.5e-05  0.298456  0.362878  -4.3e-05  0.974958  0.0
H  H31  1  0.52318280  0.73433149  0.15424181  1  0.671979  -9e-06  0.294919  0.386857  -0.000124  0.953397  0.0
H  H32  1  0.41635564  0.65834031  0.12705051  1  0.628628  0.000204  0.292421  0.371831  0.000227  0.974198  0.0
H  H33  1  0.35802831  0.80232329  0.28920083  1  0.13623  0.001777  0.119576  0.090368  0.000369  1.035108  0.001
H  H34  1  0.34617354  0.96630443  0.40153384  1  0.102829  0.000924  0.109694  0.118621  0.000432  1.027987  0.0
H  H35  1  0.65707033  0.89974317  0.50669395  1  0.082109  0.000893  0.107322  0.109343  0.000409  1.032156  0.0
H  H36  1  0.65934706  0.73823267  0.38506985  1  0.117145  0.001786  0.122082  0.097496  0.000533  0.986555  0.001
H  H37  1  0.42369751  0.38941915  0.94836759  1  0.648075  0.00123  0.293639  0.401537  0.000959  0.928419  0.001
H  H38  1  0.26194209  0.16953034  0.95108956  1  0.640399  0.00077  0.310957  0.403883  0.00041  0.907555  0.001
H  H39  1  0.01163287  0.32165109  0.05137418  1  0.660823  0.001046  0.299004  0.402256  0.000705  0.924698  0.001
H  H40  1  0.18856863  0.50425463  0.95236168  1  0.622641  0.000196  0.291468  0.368734  8.7e-05  0.976412  0.0
H  H41  1  0.72684313  0.85203317  0.25724851  1  0.648353  -2.7e-05  0.298346  0.362863  -4.2e-05  0.974547  0.0
H  H42  1  0.47655157  0.41915532  0.15332338  1  0.652924  0.000194  0.294484  0.385824  3.4e-05  0.955078  0.0
H  H43  1  0.58344882  0.46810663  0.12677134  1  0.616595  0.000269  0.290877  0.369716  0.000396  0.977379  0.0
H  H44  1  0.64247487  0.48684923  0.28901974  1  0.138937  0.001724  0.119303  0.090466  0.000367  1.034568  0.001
H  H45  1  0.65359886  0.43495490  0.40119231  1  0.096464  0.000977  0.109123  0.117826  0.000494  1.028529  0.0
H  H46  1  0.34260595  0.60672148  0.50623883  1  0.036304  0.001037  0.106572  0.108502  0.00049  1.032312  0.0
H  H47  1  0.34066376  0.64663759  0.38484544  1  0.11131  0.001791  0.121108  0.096393  0.000621  0.987541  0.001
H  H48  1  0.57601759  0.55932533  0.94859788  1  0.654946  0.001245  0.293223  0.401835  0.000934  0.928675  0.002
H  H49  1  0.73807488  0.78152934  0.95117462  1  0.657309  0.000723  0.311054  0.404571  0.000411  0.906535  0.001
H  H50  1  0.98831944  0.72993225  0.05140841  1  0.655853  0.001057  0.29873  0.40193  0.000713  0.925131  0.001
H  H51  1  0.81192146  0.44823448  0.95258032  1  0.616386  0.000226  0.291716  0.369697  9.2e-05  0.975305  0.0
H  H52  1  0.22680144  0.90483502  0.25733045  1  0.652939  -2.4e-05  0.297894  0.361876  -3.4e-05  0.976724  0.0
H  H53  1  0.97685040  0.23452704  0.15392390  1  0.669338  0.000314  0.294822  0.38732  0.000227  0.953072  0.001
H  H54  1  0.08450504  0.15905437  0.12705738  1  0.647605  8.4e-05  0.291224  0.370845  0.000102  0.976696  0.0
H  H55  1  0.14298969  0.30176797  0.28972411  1  0.139207  0.001787  0.118322  0.089726  0.00059  1.03637  0.001
H  H56  1  0.15400007  0.46602419  0.40097425  1  0.103304  0.001021  0.108694  0.117641  0.000498  1.029165  0.0
H  H57  1  0.84252857  0.40047296  0.50641512  1  0.032875  0.000953  0.105711  0.107193  0.000469  1.034987  0.0
H  H58  1  0.84092530  0.23831260  0.38577257  1  0.120618  0.00151  0.121106  0.096775  0.000262  0.987721  0.001
H  H59  1  0.07565253  0.88940217  0.94868995  1  0.650859  0.001212  0.294051  0.402238  0.000917  0.92732  0.002
H  H60  1  0.23794828  0.66955863  0.95108637  1  0.641268  0.000809  0.311102  0.404652  0.000437  0.906563  0.001
H  H61  1  0.48813930  0.82156783  0.05125046  1  0.659565  0.001042  0.2992  0.402608  0.000712  0.924095  0.001
H  H62  1  0.31127922  0.00408823  0.95231027  1  0.624553  0.000277  0.29203  0.369251  0.000187  0.975563  0.0
H  H63  1  0.77322080  0.35216435  0.25731337  1  0.648124  -2.3e-05  0.298354  0.362975  -3.4e-05  0.974194  0.0
H  H64  1  0.02322877  0.91939020  0.15394672  1  0.660587  0.000312  0.294812  0.38668  0.000225  0.953973  0.001
H  H65  1  0.91564515  0.96794185  0.12702717  1  0.648895  8.4e-05  0.291451  0.370487  0.0001  0.976985  0.0
H  H66  1  0.85724067  0.98778965  0.28964410  1  0.137515  0.001795  0.118359  0.089624  0.000592  1.035568  0.001
H  H67  1  0.84616919  0.93481032  0.40098302  1  0.09399  0.001024  0.108924  0.117778  0.000499  1.029272  0.0
H  H68  1  0.15742695  0.10577499  0.50623776  1  0.087943  0.00093  0.105738  0.107019  0.00047  1.034109  0.0
H  H69  1  0.15913642  0.14728747  0.38551061  1  0.114569  0.001506  0.120996  0.096623  0.00026  0.988332  0.001
H  H70  1  0.92435281  0.05927042  0.94876402  1  0.65434  0.001207  0.294299  0.402217  0.000916  0.927255  0.002
H  H71  1  0.76215801  0.28163878  0.95118639  1  0.658408  0.000776  0.311046  0.4049  0.000458  0.90637  0.001
H  H72  1  0.51193470  0.22974822  0.05136315  1  0.659042  0.00103  0.298905  0.402132  0.000703  0.924884  0.001
H  H73  1  0.68868939  0.94825980  0.95229122  1  0.614317  0.000311  0.291631  0.368668  0.00019  0.976494  0.0
H  H74  1  0.77356252  0.09492332  0.74257329  1  0.65422  -2.4e-05  0.298119  0.361951  -3.5e-05  0.975695  0.0
H  H75  1  0.02317135  0.76541486  0.84604857  1  0.669015  0.000315  0.294658  0.387195  0.000227  0.95318  0.001
H  H76  1  0.91546245  0.84087517  0.87289485  1  0.647775  8.3e-05  0.291333  0.370996  0.000101  0.9765  0.0
H  H77  1  0.85704516  0.69823217  0.71031855  1  0.139321  0.001788  0.118291  0.089667  0.00059  1.036272  0.001
H  H78  1  0.84597704  0.53398764  0.59903669  1  0.10363  0.00102  0.108631  0.117525  0.000497  1.029418  0.0
H  H79  1  0.15731209  0.59958634  0.49349164  1  0.0758  0.000931  0.105868  0.107187  0.000469  1.034942  0.0
H  H80  1  0.15897658  0.76172771  0.61418014  1  0.111915  0.001509  0.121088  0.096864  0.000262  0.987802  0.001
H  H81  1  0.92431670  0.11056887  0.05130273  1  0.651274  0.001208  0.294148  0.402354  0.000915  0.927183  0.001
H  H82  1  0.76204539  0.33044434  0.04903273  1  0.641906  0.00081  0.310996  0.404501  0.000437  0.906791  0.001
H  H83  1  0.51187023  0.17840109  0.94867730  1  0.658959  0.001044  0.299275  0.402613  0.000712  0.924031  0.001
H  H84  1  0.68873206  0.99589161  0.04762935  1  0.625012  0.000276  0.291701  0.368482  0.000187  0.976523  0.0
H  H85  1  0.22653148  0.64792339  0.74256328  1  0.647135  -2.4e-05  0.298395  0.363122  -3.5e-05  0.973981  0.0
H  H86  1  0.97676585  0.08065516  0.84606575  1  0.660106  0.000312  0.294905  0.38683  0.000226  0.953706  0.001
H  H87  1  0.08438625  0.03207294  0.87293869  1  0.648189  8.3e-05  0.291392  0.370377  9.9e-05  0.977147  0.0
H  H88  1  0.14272243  0.01221707  0.71037116  1  0.137599  0.001795  0.118337  0.089452  0.000592  1.035744  0.001
H  H89  1  0.15382192  0.06517237  0.59901897  1  0.094008  0.001024  0.108907  0.117799  0.000499  1.029659  0.0
H  H90  1  0.84261756  0.89414070  0.49371615  1  0.085009  0.000934  0.105803  0.107189  0.00047  1.034173  0.0
H  H91  1  0.84091595  0.85263622  0.61446421  1  0.114373  0.001508  0.120931  0.096583  0.00026  0.988399  0.001
H  H92  1  0.07563918  0.94070353  0.05123028  1  0.654364  0.001204  0.29425  0.402193  0.000916  0.927335  0.002
H  H93  1  0.23794684  0.71844437  0.04892704  1  0.657453  0.000774  0.311103  0.405099  0.000457  0.906123  0.001
H  H94  1  0.48806523  0.77027754  0.94856340  1  0.658698  0.001035  0.299094  0.402477  0.000704  0.924378  0.001
H  H95  1  0.31126500  0.05173534  0.04764949  1  0.614826  0.000306  0.291744  0.368736  0.000189  0.976381  0.0
C  C96  1  0.82205734  0.53838246  0.80379759  1  1.587397  -0.004528  0.242574  0.618348  -0.005968  4.112376  -0.003
C  C97  1  0.75363634  0.36316473  0.81095811  1  1.603011  -0.001682  0.223921  0.589137  -0.002773  4.184003  -0.001
C  C98  1  0.07424888  0.58130444  0.79456028  1  1.628118  0.000318  0.220906  0.589873  0.000124  4.212731  0.0
C  C99  1  0.91599441  0.46632858  0.79813580  1  -0.033667  0.001102  0.004573  -0.057821  5e-05  3.911028  0.001
C  C100  1  0.88128610  0.37815057  0.79909942  1  0.038217  0.005115  -0.000214  -0.060798  0.002554  3.926147  0.004
C  C101  1  0.03519915  0.48762663  0.79697076  1  0.022331  0.00135  0.000905  -0.055549  0.000586  3.915077  0.001
C  C102  1  0.57687251  0.17268665  0.66221401  1  0.438916  -0.005035  0.050107  0.108262  -0.005884  3.932516  -0.003
C  C103  1  0.58344869  0.08001631  0.59765538  1  0.00837  0.002564  -0.078033  -0.155301  0.001078  3.911708  0.003
C  C104  1  0.49857259  0.04876489  0.53484728  1  -0.005549  -0.008194  0.013575  0.106457  -0.00917  3.966744  -0.005
C  C105  1  0.41022546  0.11627632  0.54141236  1  0.008839  0.002946  -0.081591  -0.170131  0.00118  3.936031  0.003
C  C106  1  0.40889980  0.20747846  0.60813185  1  0.463304  -0.004106  0.046896  0.098898  -0.004915  3.956523  -0.002
C  C107  1  0.17815255  0.26556203  0.80363946  1  1.594072  -0.004641  0.243163  0.619366  -0.006068  4.113907  -0.003
C  C108  1  0.24676364  0.44761070  0.81036371  1  1.591636  -0.000745  0.2232  0.587525  -0.001565  4.18824  0.0
C  C109  1  0.92597699  0.21343840  0.79456862  1  1.603694  0.000341  0.220308  0.590029  0.000134  4.211435  0.0
C  C110  1  0.08424201  0.33195498  0.79803744  1  -0.076662  0.000681  0.004447  -0.05833  -0.000188  3.913305  0.001
C  C111  1  0.11897479  0.42103849  0.79891757  1  0.029898  0.005417  -0.000572  -0.060022  0.002737  3.924259  0.004
C  C112  1  0.96505409  0.30954479  0.79702229  1  0.078156  0.001704  0.001094  -0.055652  0.000789  3.917366  0.001
C  C113  1  0.42271556  0.48945969  0.66222992  1  0.485418  -0.008893  0.048607  0.1066  -0.010113  3.932008  -0.005
C  C114  1  0.41635943  0.51753146  0.59762190  1  -0.046983  0.002577  -0.078375  -0.155511  0.000824  3.914639  0.003
C  C115  1  0.50120798  0.48597589  0.53469066  1  -0.025252  -0.013557  0.012603  0.106121  -0.015009  3.970634  -0.008
C  C116  1  0.58956787  0.42512549  0.54138916  1  0.016868  0.003176  -0.083007  -0.171211  0.001093  3.941541  0.003
C  C117  1  0.59080790  0.40068941  0.60816130  1  0.432602  -0.007063  0.044576  0.095552  -0.007941  3.960369  -0.004
C  C118  1  0.17813605  0.46169292  0.19608905  1  1.588771  -0.004437  0.24284  0.618222  -0.005869  4.112922  -0.003
C  C119  1  0.24627864  0.63700664  0.18911497  1  1.601766  -0.001761  0.223955  0.588878  -0.002864  4.184626  -0.001
C  C120  1  0.92588585  0.41861281  0.20529459  1  1.628957  0.000318  0.220553  0.590131  0.000124  4.211177  0.0
C  C121  1  0.08409303  0.53368406  0.20180676  1  -0.033623  0.001106  0.004022  -0.058448  5.5e-05  3.911804  0.001
C  C122  1  0.11868576  0.62193629  0.20094732  1  0.038414  0.005115  -0.00012  -0.060556  0.002555  3.926014  0.004
C  C123  1  0.96493203  0.51232334  0.20296524  1  0.023521  0.001349  0.001119  -0.055701  0.000584  3.916153  0.001
C  C124  1  0.42402174  0.82701692  0.33783558  1  0.502646  -0.004877  0.049786  0.107135  -0.005679  3.937677  -0.003
C  C125  1  0.41742788  0.91952090  0.40257997  1  -0.025547  0.00241  -0.077806  -0.154742  0.000976  3.911908  0.002
C  C126  1  0.50196407  0.95033986  0.46564340  1  -0.005176  -0.007915  0.013945  0.107984  -0.008908  3.966077  -0.005
C  C127  1  0.58986288  0.88251635  0.45920935  1  -0.025525  0.002886  -0.082308  -0.172597  0.001138  3.938598  0.003
C  C128  1  0.59124918  0.79151782  0.39221696  1  0.440565  -0.003919  0.047117  0.099573  -0.004744  3.956908  -0.002
C  C129  1  0.82177732  0.73425753  0.19622934  1  1.594414  -0.004579  0.243522  0.619549  -0.005987  4.113045  -0.003
C  C130  1  0.75333592  0.55226261  0.18969682  1  1.591845  -0.000688  0.223455  0.587135  -0.001495  4.188649  0.0
C  C131  1  0.07403428  0.78654944  0.20539192  1  1.604298  0.000342  0.22032  0.590382  0.000135  4.210535  0.0
C  C132  1  0.91573950  0.66796948  0.20188930  1  -0.075079  0.000677  0.004465  -0.057941  -0.000187  3.912548  0.001
C  C133  1  0.88109157  0.57890848  0.20109163  1  0.029489  0.005442  -0.000304  -0.059235  0.002751  3.923704  0.004
C  C134  1  0.03487665  0.69047727  0.20296313  1  0.077239  0.00171  0.001109  -0.055649  0.000789  3.917132  0.001
C  C135  1  0.57638036  0.51087363  0.33763914  1  0.483897  -0.009078  0.049041  0.106416  -0.010326  3.933998  -0.005
C  C136  1  0.58252994  0.48299198  0.40233231  1  -0.054258  0.002701  -0.077976  -0.154556  0.000887  3.914465  0.003
C  C137  1  0.49793091  0.51520036  0.46547516  1  0.041181  -0.013838  0.011795  0.104091  -0.015439  3.971395  -0.008
C  C138  1  0.41014177  0.57656810  0.45891625  1  -0.039974  0.003394  -0.082029  -0.170483  0.001193  3.943417  0.003
C  C139  1  0.40900065  0.60066403  0.39195363  1  0.545415  -0.007456  0.043896  0.093795  -0.008208  3.960146  -0.004
C  C140  1  0.32187999  0.96155962  0.19612834  1  1.588737  -0.004337  0.24302  0.618879  -0.005684  4.112619  -0.003
C  C141  1  0.25352048  0.13692783  0.18974567  1  1.578207  0.001258  0.223618  0.588178  0.000202  4.185902  0.001
C  C142  1  0.57412047  0.91855455  0.20511736  1  1.627247  0.000318  0.220549  0.590239  0.000137  4.209305  0.0
C  C143  1  0.41593154  0.03346445  0.20166074  1  -0.034539  0.000899  0.003771  -0.05898  -4.7e-05  3.914641  0.001
C  C144  1  0.38125022  0.12168097  0.20086217  1  0.067449  0.0049  -0.000923  -0.061153  0.002492  3.926685  0.004
C  C145  1  0.53508136  0.01221526  0.20274942  1  0.021028  0.001355  0.000657  -0.056151  0.00055  3.917996  0.001
C  C146  1  0.07677726  0.32636381  0.33826504  1  0.485925  -0.00852  0.047465  0.104918  -0.009369  3.936809  -0.005
C  C147  1  0.08293813  0.41925030  0.40246697  1  -0.019335  0.002858  -0.078882  -0.156158  0.00089  3.916474  0.003
C  C148  1  0.99830821  0.45064277  0.46556859  1  -0.047335  -0.013747  0.011876  0.105533  -0.015224  3.968474  -0.008
C  C149  1  0.91040274  0.38281256  0.45926129  1  0.022708  0.002942  -0.082987  -0.172201  0.001072  3.941862  0.003
C  C150  1  0.90937458  0.29132070  0.39277827  1  0.481361  -0.008393  0.045394  0.096762  -0.009653  3.958656  -0.005
C  C151  1  0.67815854  0.23434421  0.19617414  1  1.594203  -0.004329  0.243035  0.61903  -0.005659  4.113842  -0.003
C  C152  1  0.74652078  0.05254942  0.18970569  1  1.590511  0.001225  0.223567  0.587129  0.000215  4.187326  0.001
C  C153  1  0.42590483  0.28633183  0.20522320  1  1.60239  0.00029  0.220371  0.590103  0.000102  4.21167  0.0
C  C154  1  0.58411809  0.16796802  0.20173527  1  -0.081927  0.000892  0.004532  -0.057561  -5e-05  3.913256  0.001
C  C155  1  0.61879236  0.07890999  0.20084170  1  0.035015  0.004902  -0.000716  -0.060196  0.002488  3.927386  0.004
C  C156  1  0.46496193  0.19032131  0.20286491  1  0.081952  0.001365  0.001173  -0.055229  0.000565  3.917521  0.001
C  C157  1  0.92338525  0.01173801  0.33817528  1  0.483797  -0.008573  0.047376  0.104695  -0.009442  3.936116  -0.005
C  C158  1  0.91718856  0.98307604  0.40242281  1  -0.054054  0.002805  -0.079716  -0.156732  0.000865  3.917809  0.003
C  C159  1  0.00171098  0.01485904  0.46551800  1  0.003058  -0.013877  0.012257  0.105682  -0.015354  3.971401  -0.008
C  C160  1  0.08965245  0.07627040  0.45907988  1  -0.09688  0.002938  -0.083079  -0.17232  0.001054  3.942642  0.003
C  C161  1  0.09071524  0.10127774  0.39257119  1  0.51321  -0.008442  0.045143  0.097018  -0.009731  3.959528  -0.005
C  C162  1  0.67820566  0.03836409  0.80382398  1  1.586533  -0.004381  0.243196  0.619138  -0.005749  4.112082  -0.003
C  C163  1  0.74645579  0.86305636  0.81020342  1  1.578905  0.001248  0.22345  0.587503  0.000194  4.18605  0.001
C  C164  1  0.42584620  0.08135175  0.79474763  1  1.628637  0.000315  0.220221  0.589491  0.000134  4.211621  0.0
C  C165  1  0.58407974  0.96649499  0.79826694  1  -0.035043  0.000897  0.003807  -0.059074  -4.9e-05  3.913835  0.001
C  C166  1  0.61873480  0.87827264  0.79906451  1  0.068211  0.004898  -0.001002  -0.060693  0.00249  3.926611  0.004
C  C167  1  0.46492993  0.98773910  0.79716459  1  0.021064  0.001347  0.000489  -0.055953  0.000546  3.918217  0.001
C  C168  1  0.92321385  0.67363563  0.66174531  1  0.48538  -0.008512  0.047354  0.104787  -0.009362  3.936781  -0.005
C  C169  1  0.91701623  0.58076520  0.59752281  1  -0.029704  0.002856  -0.078665  -0.155722  0.000889  3.916689  0.003
C  C170  1  0.00159454  0.54939607  0.53438696  1  -0.006395  -0.013676  0.011874  0.10491  -0.015219  3.969336  -0.008
C  C171  1  0.08947640  0.61723141  0.54066969  1  -0.01892  0.002959  -0.083063  -0.172012  0.00107  3.942284  0.003
C  C172  1  0.09054830  0.70870502  0.60717755  1  0.490629  -0.008388  0.045265  0.096381  -0.009648  3.959105  -0.005
C  C173  1  0.32178184  0.76568442  0.80379624  1  1.59611  -0.004378  0.243241  0.619109  -0.005716  4.113614  -0.003
C  C174  1  0.25349749  0.94743624  0.81024673  1  1.590254  0.001217  0.223517  0.587044  0.000213  4.18721  0.001
C  C175  1  0.57413796  0.71362689  0.79470308  1  1.604312  0.00029  0.220445  0.59041  0.000102  4.211552  0.0
C  C176  1  0.41588092  0.83201179  0.79822628  1  -0.084734  0.000895  0.004562  -0.057291  -5e-05  3.913322  0.001
C  C177  1  0.38122154  0.92106038  0.79909502  1  0.03433  0.004893  -0.00074  -0.060707  0.002484  3.927614  0.004
C  C178  1  0.53503621  0.80963884  0.79708103  1  0.081259  0.001356  0.001144  -0.055662  0.000559  3.918226  0.001
C  C179  1  0.07659886  0.98825707  0.66182617  1  0.483696  -0.008574  0.047215  0.104678  -0.00944  3.936223  -0.005
C  C180  1  0.08280255  0.01690593  0.59757273  1  -0.053712  0.002806  -0.079717  -0.156896  0.000865  3.918528  0.003
C  C181  1  0.99829064  0.98511491  0.53447461  1  0.039862  -0.013784  0.012271  0.105561  -0.015355  3.97178  -0.008
C  C182  1  0.91037368  0.92366641  0.54088511  1  -0.048641  0.002943  -0.083256  -0.172666  0.001054  3.943116  0.003
C  C183  1  0.90930914  0.89866781  0.60739868  1  0.46684  -0.008447  0.045185  0.096749  -0.009729  3.959594  -0.005
N  N184  1  0.49117203  0.23621727  0.66830030  1  -1.215952  0.059679  -0.330887  -0.264994  0.031449  3.597429  0.051
N  N185  1  0.50833737  0.43192648  0.66835612  1  -1.203635  0.061562  -0.331197  -0.263984  0.032742  3.59423  0.051
N  N186  1  0.50948324  0.76333836  0.33172128  1  -1.208364  0.059793  -0.331247  -0.264574  0.031517  3.60091  0.051
N  N187  1  0.49110961  0.56862551  0.33151158  1  -1.253982  0.06221  -0.332587  -0.263935  0.033045  3.597191  0.051
N  N188  1  0.99168746  0.26236770  0.33257209  1  -1.246433  0.060737  -0.329491  -0.263792  0.031719  3.591149  0.052
N  N189  1  0.00841066  0.07007190  0.33243519  1  -1.212643  0.060744  -0.329455  -0.263266  0.031727  3.591521  0.052
N  N190  1  0.00829228  0.73762884  0.66742033  1  -1.246402  0.060745  -0.329598  -0.263808  0.031723  3.591416  0.052
N  N191  1  0.99157783  0.92991445  0.66755407  1  -1.21401  0.060758  -0.329513  -0.26299  0.031732  3.591539  0.052
O  O192  1  0.77042291  0.58713990  0.87027668  1  -1.159634  0.038022  -0.281322  -0.529903  0.018684  2.364025  0.036
O  O193  1  0.79606918  0.54295284  0.73405655  1  -1.162636  0.00266  -0.310361  -0.476837  0.000773  2.342823  0.002
O  O194  1  0.68180335  0.37213684  0.76034403  1  -1.161624  0.067422  -0.298577  -0.544371  0.03521  2.390404  0.057
O  O195  1  0.72665373  0.34879030  0.87472607  1  -1.170398  0.0035  -0.301044  -0.548241  0.00093  2.194653  0.003
O  O196  1  0.15079865  0.57313730  0.74010082  1  -1.173861  3e-06  -0.311625  -0.533195  -7.4e-05  2.231394  0.0
O  O197  1  0.02658228  0.65937223  0.84597987  1  -1.188927  0.001693  -0.296976  -0.540006  0.000509  2.242057  0.001
O  O198  1  0.49734927  0.33543303  0.85887510  1  -1.271824  0.056487  -0.558525  -0.744138  0.028824  2.213379  0.047
O  O199  1  0.22985831  0.28330741  0.87007153  1  -1.157322  0.038353  -0.281954  -0.530766  0.018848  2.365796  0.037
O  O200  1  0.20402268  0.19117205  0.73394779  1  -1.171614  0.002848  -0.310081  -0.476562  0.000944  2.343037  0.003
O  O201  1  0.31825348  0.38796363  0.75945921  1  -1.170584  0.06216  -0.297971  -0.545476  0.031956  2.38212  0.051
O  O202  1  0.27372651  0.52567869  0.87416239  1  -1.185592  0.003265  -0.301481  -0.548197  0.000973  2.195747  0.002
O  O203  1  0.84934327  0.16733914  0.74018832  1  -1.175205  5.7e-05  -0.311925  -0.533302  -3.7e-05  2.229765  0.0
O  O204  1  0.97366755  0.18659171  0.84583743  1  -1.186717  0.001701  -0.296526  -0.539886  0.000509  2.241035  0.001
O  O205  1  0.50321112  0.52443820  0.86019024  1  -1.247859  0.050879  -0.55894  -0.744144  0.025989  2.208245  0.042
O  O206  1  0.23006727  0.41325248  0.12965349  1  -1.160641  0.038068  -0.28157  -0.529683  0.018717  2.364716  0.036
O  O207  1  0.20391763  0.45686753  0.26574502  1  -1.163586  0.002707  -0.310519  -0.476774  0.000796  2.342576  0.003
O  O208  1  0.31813703  0.62798940  0.23967208  1  -1.16169  0.067265  -0.298794  -0.544971  0.03515  2.392434  0.057
O  O209  1  0.27327613  0.65133228  0.12531233  1  -1.17017  0.003458  -0.300978  -0.547882  0.000904  2.195318  0.003
O  O210  1  0.84914096  0.42675455  0.25963456  1  -1.172279  -1e-06  -0.311082  -0.532802  -7.9e-05  2.230535  0.0
O  O211  1  0.97373707  0.34058793  0.15398231  1  -1.191453  0.001701  -0.29693  -0.540117  0.000512  2.241948  0.001
O  O212  1  0.50254109  0.66441548  0.14119557  1  -1.270916  0.057043  -0.558103  -0.743831  0.029125  2.215096  0.047
O  O213  1  0.76981238  0.71628253  0.12984187  1  -1.15767  0.038391  -0.282215  -0.531132  0.018863  2.365588  0.037
O  O214  1  0.79607969  0.80876636  0.26587542  1  -1.172623  0.002888  -0.310269  -0.476321  0.000963  2.342751  0.003
O  O215  1  0.68180934  0.61189368  0.24056567  1  -1.169158  0.061683  -0.29794  -0.545912  0.031714  2.381914  0.051
O  O216  1  0.72641334  0.47419756  0.12587613  1  -1.18667  0.003243  -0.302098  -0.548631  0.000973  2.196757  0.002
O  O217  1  0.15090524  0.83249581  0.25962693  1  -1.175242  5.4e-05  -0.311758  -0.533566  -4.1e-05  2.229679  0.0
O  O218  1  0.02617125  0.81349949  0.15424187  1  -1.186955  0.001706  -0.296578  -0.539871  0.00051  2.241179  0.001
O  O219  1  0.49684489  0.47558404  0.13962417  1  -1.24492  0.050771  -0.558997  -0.744822  0.025963  2.208085  0.042
O  O220  1  0.62548158  0.58304213  0.00001059  1  -1.265157  0.082757  -0.588925  -0.790834  0.042722  2.168439  0.066
O  O221  1  0.72130672  0.76960020  0.00015674  1  -1.245482  0.053822  -0.561601  -0.758966  0.028145  2.138485  0.042
O  O222  1  0.95034934  0.68198260  0.00010445  1  -1.258837  0.076124  -0.579059  -0.800018  0.039289  2.218168  0.06
O  O223  1  0.84580499  0.50434057  0.00027021  1  -1.198102  0.068351  -0.571751  -0.750622  0.035127  2.180784  0.056
O  O224  1  0.37452454  0.41692765  0.99977964  1  -1.264728  0.08288  -0.589144  -0.791354  0.042767  2.168085  0.066
O  O225  1  0.27876836  0.23047056  0.99996230  1  -1.243067  0.053819  -0.561955  -0.759374  0.02815  2.138182  0.042
O  O226  1  0.04970128  0.31816543  0.99999721  1  -1.260554  0.076119  -0.579198  -0.800224  0.039298  2.218082  0.06
O  O227  1  0.15424553  0.49581387  0.99997332  1  -1.196217  0.068417  -0.571833  -0.749346  0.035148  2.181234  0.056
O  O228  1  0.26954967  0.91339387  0.12982852  1  -1.162075  0.038401  -0.281876  -0.531331  0.01887  2.363953  0.037
O  O229  1  0.29631893  0.95661879  0.26578817  1  -1.171232  0.002597  -0.309897  -0.475531  0.000718  2.342376  0.002
O  O230  1  0.18243941  0.12928892  0.24144062  1  -1.161608  0.060269  -0.297755  -0.545479  0.031135  2.381745  0.051
O  O231  1  0.22614955  0.15113856  0.12596761  1  -1.171652  0.006022  -0.29968  -0.546139  0.0025  2.199179  0.005
O  O232  1  0.65085990  0.92674162  0.25940359  1  -1.171331  0.000149  -0.312044  -0.533838  2.3e-05  2.227281  0.0
O  O233  1  0.52623772  0.84052144  0.15388651  1  -1.192056  0.001508  -0.296902  -0.540357  0.000432  2.239624  0.001
O  O234  1  0.99801722  0.16462109  0.14071585  1  -1.288121  0.056467  -0.558341  -0.745371  0.02909  2.215811  0.047
O  O235  1  0.73042884  0.21630570  0.12981629  1  -1.159027  0.038417  -0.282179  -0.531406  0.018882  2.36395  0.037
O  O236  1  0.70372823  0.30881688  0.26581677  1  -1.171409  0.002575  -0.309624  -0.476028  0.000697  2.342091  0.002
O  O237  1  0.81751436  0.11185259  0.24136832  1  -1.1645  0.060354  -0.29756  -0.54496  0.031076  2.380936  0.05
O  O238  1  0.77397452  0.97458883  0.12593081  1  -1.183398  0.006044  -0.300709  -0.54657  0.002509  2.19845  0.005
O  O239  1  0.34894672  0.33235466  0.25942198  1  -1.177017  0.000127  -0.311909  -0.533821  1e-06  2.228867  0.0
O  O240  1  0.47395513  0.31311740  0.15398719  1  -1.185433  0.001612  -0.296621  -0.539875  0.000474  2.241052  0.001
O  O241  1  0.00211084  0.97604040  0.14065402  1  -1.281286  0.056394  -0.558444  -0.744285  0.029073  2.216784  0.047
O  O242  1  0.73035655  0.08664274  0.87017684  1  -1.159928  0.038423  -0.281954  -0.53122  0.018885  2.364479  0.037
O  O243  1  0.70405027  0.04313661  0.73414094  1  -1.171891  0.002562  -0.309925  -0.476002  0.000696  2.34327  0.002
O  O244  1  0.81753511  0.87072150  0.75851748  1  -1.16163  0.060261  -0.297629  -0.54527  0.031125  2.381634  0.051
O  O245  1  0.77382146  0.84887187  0.87399387  1  -1.172569  0.006007  -0.299837  -0.546027  0.002493  2.199305  0.005
O  O246  1  0.34911026  0.07313190  0.74044718  1  -1.172772  0.000146  -0.311562  -0.533214  2.1e-05  2.229005  0.0
O  O247  1  0.47370094  0.15939215  0.84597495  1  -1.190325  0.001491  -0.29666  -0.539759  0.000424  2.240796  0.001
O  O248  1  0.00196163  0.83531716  0.85926993  1  -1.28831  0.056451  -0.558242  -0.745333  0.029076  2.215402  0.047
O  O249  1  0.26964716  0.78366314  0.87019469  1  -1.158222  0.038467  -0.282302  -0.531619  0.018909  2.363821  0.037
O  O250  1  0.29600040  0.69135607  0.73412247  1  -1.171321  0.002549  -0.309521  -0.476061  0.000681  2.343275  0.002
O  O251  1  0.18249340  0.88812140  0.75859167  1  -1.165178  0.06036  -0.297714  -0.545013  0.031072  2.380775  0.05
O  O252  1  0.22605338  0.02539246  0.87401833  1  -1.182543  0.006032  -0.30053  -0.546465  0.002502  2.198494  0.005
O  O253  1  0.65108732  0.66759751  0.74049066  1  -1.177094  0.000125  -0.311998  -0.534058  -0.0  2.228782  0.0
O  O254  1  0.52612179  0.68683986  0.84594305  1  -1.187059  0.001592  -0.296401  -0.539481  0.000466  2.241043  0.001
O  O255  1  0.99790655  0.02399986  0.85934702  1  -1.280202  0.056357  -0.558517  -0.744315  0.02905  2.216517  0.047
O  O256  1  0.12510455  0.91686960  0.99993203  1  -1.265258  0.081955  -0.588361  -0.791028  0.042309  2.167652  0.065
O  O257  1  0.22125236  0.73052363  0.00000805  1  -1.242403  0.054585  -0.562116  -0.760349  0.028538  2.138243  0.043
O  O258  1  0.45022840  0.81834338  0.99994545  1  -1.259577  0.076876  -0.579243  -0.800391  0.039689  2.216157  0.061
O  O259  1  0.34544248  0.99577395  0.99996912  1  -1.198422  0.068588  -0.571718  -0.749012  0.03518  2.18228  0.056
O  O260  1  0.87487518  0.08308467  0.00005622  1  -1.265768  0.081938  -0.588514  -0.791244  0.042297  2.167642  0.065
O  O261  1  0.77876428  0.26950118  0.00008400  1  -1.24397  0.054609  -0.561909  -0.759867  0.028546  2.138959  0.043
O  O262  1  0.54975030  0.18163651  0.99999150  1  -1.25949  0.076836  -0.57907  -0.799976  0.039666  2.216579  0.061
O  O263  1  0.65453270  0.00421758  0.99998897  1  -1.199229  0.068598  -0.571238  -0.748045  0.03518  2.182831  0.056
