# generated using pymatgen
data_NiH8C10(SN3)2
_symmetry_space_group_name_H-M   'P 1'
_cell_length_a   7.05784339
_cell_length_b   7.05788693
_cell_length_c   6.96427939
_cell_angle_alpha   108.63608845
_cell_angle_beta   108.63436738
_cell_angle_gamma   91.74553417
_symmetry_Int_Tables_number   1
_chemical_formula_structural   NiH8C10(SN3)2
_chemical_formula_sum   'Ni1 H8 C10 S2 N6'
_cell_volume   308.07865920
_cell_formula_units_Z   1
loop_
 _symmetry_equiv_pos_site_id
 _symmetry_equiv_pos_as_xyz
  1  'x, y, z'
loop_
 _atom_site_type_symbol
 _atom_site_label
 _atom_site_symmetry_multiplicity
 _atom_site_fract_x
 _atom_site_fract_y
 _atom_site_fract_z
 _atom_site_occupancy
 _atom_site_pbe_cm5_charge
 _atom_site_pbe_ddec_charge
 _atom_site_pbe_ddec_spin_density
 _atom_site_pbe_ddec_sum_bond_order
 _atom_site_pbe_magmom
Ni  Ni0  1  0.99999944  0.99999871  0.50000295  1  0.703081  0.625201  -1.738624  2.785114  -1.506
H  H1  1  0.56167835  0.77291089  0.18904956  1  0.114328  0.083859  -0.001314  1.053132  -0.002
H  H2  1  0.22708889  0.43833230  0.81094321  1  0.114336  0.083894  -0.001314  1.053105  -0.002
H  H3  1  0.43832268  0.22709033  0.81094161  1  0.114362  0.083902  -0.001314  1.053139  -0.002
H  H4  1  0.77291083  0.56167041  0.18905950  1  0.114349  0.083875  -0.001314  1.053131  -0.002
H  H5  1  0.78691826  0.22419668  0.79410737  1  0.12058  0.102736  -0.001314  1.013381  -0.002
H  H6  1  0.77580966  0.21307700  0.20589074  1  0.120603  0.102825  -0.001314  1.013415  -0.002
H  H7  1  0.21308725  0.77580453  0.20588525  1  0.120595  0.102821  -0.001315  1.013427  -0.002
H  H8  1  0.22419629  0.78692722  0.79410588  1  0.120565  0.102698  -0.001314  1.01346  -0.002
C  C9  1  0.79432657  0.79432346  0.00082509  1  0.132543  0.245545  -0.001354  4.344289  -0.008
C  C10  1  0.20565701  0.20565202  0.99918213  1  0.132654  0.245699  -0.001348  4.342669  -0.008
C  C11  1  0.53598082  0.87483571  0.32987369  1  0.055252  0.050502  -0.000322  3.911734  -0.002
C  C12  1  0.12515847  0.46402636  0.67012095  1  0.055268  0.050498  -0.000324  3.911947  -0.002
C  C13  1  0.46401607  0.12515797  0.67011510  1  0.05516  0.050354  -0.000323  3.911938  -0.002
C  C14  1  0.87484437  0.53598694  0.32988049  1  0.055291  0.050607  -0.000321  3.911876  -0.002
C  C15  1  0.65840546  0.12380231  0.66220292  1  0.056588  0.054372  -3.9e-05  3.909307  -0.002
C  C16  1  0.87619528  0.34158938  0.33779837  1  0.056582  0.054285  -4e-05  3.909187  -0.002
C  C17  1  0.34158187  0.87619744  0.33779047  1  0.056676  0.054356  -3.9e-05  3.909371  -0.002
C  C18  1  0.12380146  0.65841334  0.66220336  1  0.056642  0.054454  -4e-05  3.909278  -0.002
S  S19  1  0.64469597  0.64469196  0.76747340  1  -0.173535  -0.313656  -0.00375  2.34837  -0.008
S  S20  1  0.35534576  0.35534215  0.23260783  1  -0.173623  -0.313824  -0.003735  2.347217  -0.008
N  N21  1  0.90177425  0.90176641  0.17568823  1  -0.410826  -0.492489  -0.032845  3.351569  -0.046
N  N22  1  0.09820673  0.09821077  0.82426557  1  -0.410837  -0.492505  -0.032846  3.351554  -0.046
N  N23  1  0.69547419  0.99807615  0.49212465  1  -0.296647  -0.167439  -0.043385  3.549735  -0.068
N  N24  1  0.00192556  0.30452998  0.50787664  1  -0.296668  -0.167572  -0.043382  3.549906  -0.067
N  N25  1  0.30452569  0.00191751  0.50786510  1  -0.296625  -0.167417  -0.043382  3.549918  -0.067
N  N26  1  0.99807222  0.69546971  0.49212301  1  -0.296693  -0.167582  -0.043387  3.550057  -0.068
