# generated using pymatgen
data_CuH12C14(SN5)2
_symmetry_space_group_name_H-M   'P 1'
_cell_length_a   8.19813969
_cell_length_b   8.91051943
_cell_length_c   12.36508125
_cell_angle_alpha   90.00032015
_cell_angle_beta   110.92798910
_cell_angle_gamma   89.99992910
_symmetry_Int_Tables_number   1
_chemical_formula_structural   CuH12C14(SN5)2
_chemical_formula_sum   'Cu2 H24 C28 S4 N20'
_cell_volume   843.67694214
_cell_formula_units_Z   2
loop_
 _symmetry_equiv_pos_site_id
 _symmetry_equiv_pos_as_xyz
  1  'x, y, z'
loop_
 _atom_site_type_symbol
 _atom_site_label
 _atom_site_symmetry_multiplicity
 _atom_site_fract_x
 _atom_site_fract_y
 _atom_site_fract_z
 _atom_site_occupancy
 _atom_site_hle17_ddec_charge
 _atom_site_hle17_ddec_spin_density
 _atom_site_hle17_ddec_sum_bond_order
 _atom_site_hle17_magmom
 _atom_site_hse06_10hf_ddec_charge
 _atom_site_hse06_10hf_ddec_spin_density
 _atom_site_hse06_10hf_ddec_sum_bond_order
 _atom_site_hse06_10hf_magmom
 _atom_site_hse06_ddec_charge
 _atom_site_hse06_ddec_spin_density
 _atom_site_hse06_ddec_sum_bond_order
 _atom_site_hse06_magmom
 _atom_site_pbe_cm5_charge
 _atom_site_pbe_ddec_charge
 _atom_site_pbe_ddec_spin_density
 _atom_site_pbe_ddec_sum_bond_order
 _atom_site_pbe_magmom
Cu  Cu0  1  0.00000122  0.99999938  0.99999866  1  0.870588  -0.675264  1.898401  -0.465  0.874455  -0.796983  2.293799  -0.614  0.966943  -0.877681  2.219073  -0.704  0.794856  0.816042  -0.733281  2.346266  -0.55
Cu  Cu1  1  0.49999999  0.49999973  0.00000435  1  0.870465  0.675232  1.89844  0.465  0.874448  0.796987  2.293797  0.614  0.966901  0.877682  2.2191  0.704  0.794816  0.816047  0.733287  2.346253  0.55
H  H2  1  0.67277342  0.78207196  0.91480447  1  0.098178  0.000103  0.935836  0.0  0.107899  0.000192  0.9991  0.0  0.109559  0.000162  0.996802  0.0  0.135332  0.106419  0.000196  1.00096  0.0
H  H3  1  0.82723189  0.28207093  0.08520030  1  0.098178  -0.000104  0.935781  0.0  0.107888  -0.000193  0.999057  0.0  0.109549  -0.000162  0.996759  0.0  0.135316  0.106407  -0.000196  1.000919  0.0
H  H4  1  0.32723235  0.21792457  0.08520018  1  0.098228  0.000102  0.935793  0.0  0.107893  0.000193  0.999119  0.0  0.109554  0.000162  0.996821  0.0  0.135321  0.106413  0.000196  1.00098  0.0
H  H5  1  0.17277219  0.71793234  0.91479832  1  0.098195  -0.000104  0.935775  0.0  0.107881  -0.000193  0.999092  0.0  0.109542  -0.000161  0.996793  0.0  0.135329  0.1064  -0.000196  1.000949  0.0
H  H6  1  0.61219176  0.07133922  0.37760592  1  0.123988  3.4e-05  0.97108  0.0  0.133404  -1.8e-05  1.031793  0.0  0.137513  -2.1e-05  1.030937  0.0  0.106644  0.130234  -1.3e-05  1.032995  0.0
H  H7  1  0.88779494  0.57133441  0.62239244  1  0.124016  -3.3e-05  0.971059  0.0  0.133415  1.8e-05  1.031797  0.0  0.137523  2e-05  1.030943  0.0  0.106668  0.130247  1.3e-05  1.032997  0.0
H  H8  1  0.38780216  0.92866517  0.62239461  1  0.124009  3.4e-05  0.971082  0.0  0.133417  -1.8e-05  1.031806  0.0  0.137525  -2.1e-05  1.030951  0.0  0.106652  0.130248  -1.3e-05  1.033008  0.0
H  H9  1  0.11220630  0.42866213  0.37760235  1  0.123996  -3.4e-05  0.971019  0.0  0.133392  1.8e-05  1.031775  0.0  0.137501  2e-05  1.030919  0.0  0.106644  0.130225  1.3e-05  1.032974  0.0
H  H10  1  0.72738607  0.13680387  0.21970133  1  0.108445  1.1e-05  0.943739  0.0  0.118341  0.000117  1.008571  0.0  0.120994  9.3e-05  1.006074  0.0  0.129193  0.116322  0.000121  1.010408  0.0
H  H11  1  0.77261267  0.63680152  0.78030308  1  0.108452  -9e-06  0.943775  0.0  0.118373  -0.000117  1.008571  0.0  0.121025  -9.3e-05  1.006077  0.0  0.129217  0.116354  -0.000121  1.010406  0.0
H  H12  1  0.27261703  0.86319603  0.78030195  1  0.108455  9e-06  0.943728  0.0  0.118352  0.000117  1.008563  0.0  0.121007  9.3e-05  1.006058  0.0  0.129201  0.116332  0.00012  1.010396  0.0
H  H13  1  0.22739005  0.36320063  0.21969445  1  0.10845  -8e-06  0.943816  0.0  0.118357  -0.000117  1.00861  0.0  0.12101  -9.3e-05  1.006114  0.0  0.129225  0.116339  -0.000121  1.010446  0.0
H  H14  1  0.41851406  0.68689049  0.39065162  1  0.120069  0.000413  0.972305  0.0  0.1357  0.000268  1.041129  0.0  0.13804  0.000161  1.040752  0.0  0.085471  0.133907  0.000371  1.041607  0.0
H  H15  1  0.08148914  0.18689598  0.60934648  1  0.120027  -0.000414  0.972346  0.0  0.135685  -0.000268  1.041141  0.0  0.138026  -0.000161  1.040762  0.0  0.08544  0.133891  -0.000371  1.041618  0.0
H  H16  1  0.58148110  0.31311279  0.60934837  1  0.120073  0.000413  0.972309  0.0  0.135708  0.000268  1.041131  0.0  0.138048  0.000161  1.040754  0.0  0.085444  0.133915  0.000371  1.041609  0.0
H  H17  1  0.91851085  0.81310281  0.39064886  1  0.120019  -0.000415  0.97229  0.0  0.135682  -0.000267  1.041076  0.0  0.138024  -0.000161  1.040696  0.0  0.085451  0.133887  -0.000371  1.041557  0.0
H  H18  1  0.33862958  0.87426570  0.39230584  1  0.124699  0.000106  0.965167  0.0  0.143456  3.3e-05  1.030485  0.0  0.145299  2.4e-05  1.030596  0.0  0.089192  0.142077  3.5e-05  1.030457  0.0
H  H19  1  0.16136894  0.37427557  0.60769690  1  0.12475  -0.000106  0.965191  0.0  0.143504  -3.3e-05  1.030482  0.0  0.145346  -2.3e-05  1.030594  0.0  0.089208  0.142125  -3.5e-05  1.030453  0.0
H  H20  1  0.66136298  0.12573645  0.60769360  1  0.124685  0.000107  0.965148  0.0  0.143456  3.3e-05  1.030446  0.0  0.145301  2.3e-05  1.030556  0.0  0.089205  0.142078  3.5e-05  1.030419  0.0
H  H21  1  0.83863230  0.62572209  0.39229789  1  0.124759  -0.000105  0.965212  0.0  0.1435  -3.3e-05  1.030518  0.0  0.145342  -2.3e-05  1.030631  0.0  0.08921  0.14212  -3.5e-05  1.030491  0.0
H  H22  1  0.55403489  0.82716204  0.48343943  1  0.114396  -0.000738  0.975279  0.0  0.132857  -0.000278  1.043939  0.0  0.135369  -0.000158  1.043253  0.0  0.084003  0.13096  -0.000413  1.044468  0.0
H  H23  1  0.94596372  0.32716863  0.51656088  1  0.114415  0.000739  0.97531  0.0  0.132873  0.000279  1.043968  0.0  0.135385  0.000158  1.043283  0.0  0.084008  0.130976  0.000413  1.044497  0.0
H  H24  1  0.44595903  0.17284011  0.51656111  1  0.114431  -0.000738  0.975265  0.0  0.132899  -0.000278  1.043911  0.0  0.13541  -0.000158  1.043226  0.0  0.084026  0.131002  -0.000413  1.044438  0.0
H  H25  1  0.05403650  0.67282790  0.48343775  1  0.114386  0.00074  0.975275  0.0  0.132839  0.000278  1.043942  0.0  0.135351  0.000158  1.043256  0.0  0.083988  0.130941  0.000413  1.044468  0.0
C  C26  1  0.88304131  0.91573009  0.75035492  1  0.284165  0.007478  4.034605  0.006  0.282065  -0.007751  4.362143  -0.011  0.311547  -0.006982  4.378036  -0.01  0.142826  0.261874  -0.008546  4.349936  -0.011
C  C27  1  0.61695903  0.41572943  0.24965098  1  0.28428  -0.007476  4.034604  -0.006  0.282179  0.00775  4.362121  0.011  0.311657  0.006981  4.378006  0.01  0.142894  0.261989  0.008546  4.349925  0.011
C  C28  1  0.11696255  0.08426757  0.24964043  1  0.284298  0.007476  4.034499  0.005  0.282201  -0.007749  4.362021  -0.011  0.31168  -0.00698  4.37791  -0.01  0.142916  0.262008  -0.008545  4.349822  -0.011
C  C29  1  0.38303475  0.58427160  0.75036653  1  0.284283  -0.007466  4.034509  -0.005  0.282188  0.007747  4.362026  0.011  0.311662  0.006979  4.377908  0.01  0.142908  0.261997  0.008543  4.349824  0.011
C  C30  1  0.64948516  0.80877891  0.99360909  1  0.24119  -0.002345  3.700508  -0.002  0.183217  -0.000138  4.010818  0.0  0.200305  -0.00059  4.023266  -0.001  0.155977  0.172539  0.000183  4.002048  0.0
C  C31  1  0.85051751  0.30878174  0.00639443  1  0.241214  0.002345  3.700409  0.002  0.183253  0.000138  4.010717  0.0  0.200346  0.000591  4.02315  0.001  0.156025  0.172575  -0.000184  4.001948  0.0
C  C32  1  0.35051931  0.19121875  0.00639529  1  0.24115  -0.002341  3.700461  -0.002  0.183233  -0.000138  4.010745  0.0  0.200325  -0.00059  4.023179  -0.001  0.156023  0.172553  0.000183  4.001975  0.0
C  C33  1  0.14948521  0.69121817  0.99360310  1  0.241181  0.002346  3.700298  0.002  0.183226  0.000138  4.01059  0.0  0.200317  0.000591  4.023024  0.001  0.15604  0.17255  -0.000184  4.001814  0.0
C  C34  1  0.56992187  0.79008769  0.14076773  1  0.470649  -0.000696  3.769088  -0.001  0.422412  0.000892  4.036598  0.001  0.444687  0.000241  4.048154  0.0  0.344927  0.40824  0.001356  4.02817  0.001
C  C35  1  0.93008067  0.29009018  0.85923406  1  0.470598  0.00069  3.768981  0.001  0.422394  -0.000892  4.036467  -0.001  0.444664  -0.000238  4.048031  0.0  0.344904  0.408223  -0.001356  4.028035  -0.001
C  C36  1  0.43007993  0.20991333  0.85923528  1  0.470627  -0.000686  3.769116  -0.001  0.422458  0.000892  4.036585  0.001  0.444733  0.000241  4.048143  0.0  0.344935  0.408286  0.001357  4.028154  0.001
C  C37  1  0.06992205  0.70990973  0.14076347  1  0.470609  0.000683  3.769079  0.001  0.422391  -0.000893  4.036618  -0.001  0.444668  -0.000239  4.048174  0.0  0.344897  0.40822  -0.001357  4.028188  -0.001
C  C38  1  0.52050895  0.84947209  0.30517234  1  0.381999  -0.000722  3.670222  -0.001  0.388854  -0.000419  3.916944  0.0  0.405496  -0.000437  3.928781  0.0  0.149432  0.377872  -0.0004  3.908648  0.0
C  C39  1  0.97948300  0.34947439  0.69482423  1  0.381976  0.000714  3.670446  0.001  0.388932  0.000421  3.916981  0.0  0.405574  0.000436  3.928818  0.0  0.149445  0.37795  0.0004  3.908684  0.0
C  C40  1  0.47948497  0.15053006  0.69482820  1  0.382092  -0.000711  3.67012  -0.001  0.388937  -0.000419  3.916844  0.0  0.405581  -0.000437  3.928679  0.0  0.149443  0.377953  -0.0004  3.908549  0.0
C  C41  1  0.02051842  0.65052103  0.30517302  1  0.381815  0.000708  3.670651  0.001  0.388805  0.000421  3.917137  0.0  0.405448  0.000435  3.928971  0.0  0.149377  0.377823  0.0004  3.908841  0.0
C  C42  1  0.60090005  0.99170058  0.30868777  1  -0.230694  -0.001324  3.694977  -0.001  -0.245222  -0.000525  3.946041  0.0  -0.257191  -0.000244  3.964983  0.0  -0.085734  -0.237942  -0.000814  3.934006  -0.001
C  C43  1  0.89909221  0.49170070  0.69131188  1  -0.230695  0.001326  3.694984  0.001  -0.245241  0.000525  3.945991  0.0  -0.257209  0.000246  3.964933  0.0  -0.085751  -0.237962  0.000814  3.933958  0.001
C  C44  1  0.39909517  0.00830269  0.69131304  1  -0.230792  -0.001332  3.695046  -0.001  -0.245295  -0.000526  3.946094  0.0  -0.257264  -0.000245  3.965036  0.0  -0.085758  -0.238018  -0.000814  3.93406  -0.001
C  C45  1  0.10091045  0.50829584  0.30868483  1  -0.230568  0.001344  3.695019  0.001  -0.245161  0.000524  3.946035  0.0  -0.257123  0.000245  3.96496  0.0  -0.085684  -0.237885  0.000814  3.934007  0.001
C  C46  1  0.66483715  0.03077307  0.22417940  1  0.112975  -0.000149  3.64585  0.0  0.052745  0.000104  3.899524  0.0  0.063213  5.3e-05  3.91283  0.0  0.067632  0.046234  9.9e-05  3.890515  0.0
C  C47  1  0.83515615  0.53076949  0.77582181  1  0.112888  0.000143  3.645908  0.0  0.052661  -0.000104  3.899584  0.0  0.063124  -5.3e-05  3.912891  0.0  0.067571  0.046151  -9.9e-05  3.890575  0.0
C  C48  1  0.33516205  0.96922796  0.77582306  1  0.112961  -0.000139  3.645758  0.0  0.052747  0.000105  3.899455  0.0  0.063214  5.4e-05  3.912762  0.0  0.06764  0.046239  9.9e-05  3.890437  0.0
C  C49  1  0.16485037  0.46923154  0.22417491  1  0.112823  0.000123  3.645944  0.0  0.052658  -0.000104  3.899598  0.0  0.063127  -5.3e-05  3.912899  0.0  0.067533  0.046148  -9.9e-05  3.890591  0.0
C  C50  1  0.45341708  0.80597446  0.39791181  1  -0.386595  -0.000559  3.683138  -0.001  -0.462764  -0.000161  3.907016  0.0  -0.467512  -6.7e-05  3.910538  0.0  -0.248514  -0.459162  -0.000287  3.90461  0.0
C  C51  1  0.04658239  0.30597881  0.60208680  1  -0.38662  0.00056  3.68327  0.001  -0.462827  0.00016  3.907101  0.0  -0.467572  6.6e-05  3.910623  0.0  -0.24849  -0.459223  0.000287  3.904696  0.0
C  C52  1  0.54657684  0.19402881  0.60208872  1  -0.386649  -0.000562  3.683074  -0.001  -0.462859  -0.000161  3.907012  0.0  -0.467608  -6.7e-05  3.910533  0.0  -0.248536  -0.459255  -0.000287  3.904607  0.0
C  C53  1  0.95341896  0.69401772  0.39790964  1  -0.386528  0.000558  3.683271  0.001  -0.462732  0.00016  3.907121  0.0  -0.46748  6.7e-05  3.910644  0.0  -0.248452  -0.459127  0.000287  3.904718  0.0
S  S54  1  0.89806952  0.89253006  0.62521023  1  -0.276036  -0.076464  2.026188  -0.069  -0.281722  -0.023635  2.327541  -0.023  -0.304961  -0.012935  2.327341  -0.013  -0.117172  -0.263708  -0.034059  2.326144  -0.031
S  S55  1  0.60192286  0.39252813  0.37479228  1  -0.276025  0.07647  2.026289  0.069  -0.281719  0.023632  2.327615  0.023  -0.304957  0.012934  2.327415  0.013  -0.117167  -0.263705  0.034054  2.32622  0.031
S  S56  1  0.10192793  0.10747097  0.37478538  1  -0.276201  -0.07646  2.026187  -0.069  -0.28188  -0.023631  2.327532  -0.023  -0.305119  -0.012932  2.327331  -0.013  -0.117267  -0.263863  -0.034053  2.326138  -0.031
S  S57  1  0.39807569  0.60747963  0.62521976  1  -0.276174  0.076477  2.026054  0.069  -0.281864  0.023628  2.327369  0.023  -0.305105  0.01293  2.327167  0.013  -0.117257  -0.263845  0.034053  2.325972  0.031
N  N58  1  0.86631213  0.92967464  0.84196739  1  -0.5518  -0.06474  2.973722  -0.074  -0.553766  -0.040062  3.30268  -0.05  -0.591147  -0.031756  3.309447  -0.041  -0.438656  -0.529035  -0.045128  3.298736  -0.054
N  N59  1  0.63368284  0.42967102  0.15803501  1  -0.551926  0.064747  2.973713  0.074  -0.553914  0.040065  3.302679  0.05  -0.591283  0.031757  3.309433  0.041  -0.438697  -0.529174  0.045129  3.298718  0.054
N  N60  1  0.13368667  0.07032639  0.15802932  1  -0.551852  -0.064724  2.973737  -0.074  -0.553807  -0.040061  3.302683  -0.05  -0.591183  -0.031756  3.309439  -0.041  -0.438696  -0.52908  -0.045124  3.298753  -0.054
N  N61  1  0.36631419  0.57032552  0.84197347  1  -0.551791  0.064708  2.973817  0.074  -0.55376  0.040061  3.302782  0.05  -0.591119  0.031756  3.309527  0.041  -0.438679  -0.529038  0.045123  3.298852  0.054
N  N62  1  0.69826436  0.94057231  0.04634574  1  -0.287471  0.005252  2.864291  0.005  -0.303663  0.003873  3.164556  0.004  -0.318618  0.002877  3.177486  0.003  -0.2258  -0.293749  0.004734  3.156265  0.005
N  N63  1  0.80173579  0.44057455  0.95365697  1  -0.287541  -0.005248  2.864278  -0.005  -0.303728  -0.003872  3.164586  -0.004  -0.318678  -0.002878  3.177499  -0.003  -0.225856  -0.293815  -0.004734  3.156298  -0.005
N  N64  1  0.30174011  0.05942535  0.95365863  1  -0.287527  0.005249  2.864306  0.005  -0.303677  0.003873  3.16456  0.004  -0.318632  0.002877  3.177485  0.003  -0.225813  -0.293765  0.004734  3.156268  0.005
N  N65  1  0.19826823  0.55942648  0.04634083  1  -0.28749  -0.005249  2.864369  -0.005  -0.30362  -0.003872  3.164611  -0.004  -0.318565  -0.002878  3.17753  -0.003  -0.225816  -0.293707  -0.004733  3.156317  -0.005
N  N66  1  0.57248817  0.71376069  0.04667190  1  -0.470749  0.0598  3.225047  0.071  -0.427875  0.052514  3.539597  0.068  -0.465032  0.044191  3.554991  0.061  -0.36049  -0.404997  0.05593  3.530473  0.07
N  N67  1  0.92751298  0.21376278  0.95332928  1  -0.470738  -0.059796  3.225045  -0.071  -0.427838  -0.052515  3.539544  -0.068  -0.465004  -0.044192  3.554952  -0.061  -0.360493  -0.404957  -0.05593  3.530416  -0.07
N  N68  1  0.42751505  0.28623809  0.95333302  1  -0.470744  0.059797  3.22494  0.071  -0.427895  0.052514  3.539475  0.068  -0.465054  0.044191  3.554875  0.061  -0.360549  -0.405017  0.05593  3.530349  0.07
N  N69  1  0.07248713  0.78623713  0.04666770  1  -0.470768  -0.059797  3.224829  -0.071  -0.427871  -0.052514  3.539345  -0.068  -0.465034  -0.044192  3.554747  -0.061  -0.360552  -0.404991  -0.05593  3.530217  -0.07
N  N70  1  0.50478992  0.75032829  0.22082802  1  -0.417618  9.5e-05  2.989581  0.0  -0.390782  7.9e-05  3.258822  0.0  -0.409156  3.6e-05  3.271431  0.0  -0.302598  -0.378693  0.000131  3.250023  0.0
N  N71  1  0.99520969  0.25033121  0.77916894  1  -0.417619  -9e-05  2.98967  0.0  -0.390822  -7.9e-05  3.258881  0.0  -0.409201  -3.5e-05  3.271497  0.0  -0.302578  -0.378729  -0.000131  3.250079  0.0
N  N72  1  0.49520791  0.24967386  0.77917334  1  -0.417666  8.6e-05  2.989599  0.0  -0.390852  7.9e-05  3.258865  0.0  -0.409231  3.7e-05  3.271477  0.0  -0.302594  -0.378761  0.000131  3.250066  0.0
N  N73  1  0.00479303  0.74966421  0.22082859  1  -0.417555  -7.9e-05  2.989702  0.0  -0.390757  -8e-05  3.258914  0.0  -0.409134  -3.6e-05  3.271525  0.0  -0.30253  -0.378663  -0.000131  3.250114  0.0
N  N74  1  0.64826152  0.92798982  0.13996129  1  0.00499  0.002551  3.628072  0.003  0.127678  0.002329  3.796408  0.003  0.118186  0.001857  3.816839  0.002  -0.109064  0.132641  0.002613  3.784529  0.003
N  N75  1  0.85173595  0.42798904  0.86004000  1  0.005106  -0.002547  3.628014  -0.003  0.127699  -0.002331  3.796454  -0.003  0.118221  -0.00186  3.816855  -0.002  -0.10904  0.132662  -0.002613  3.784575  -0.003
N  N76  1  0.35173893  0.07201121  0.86004062  1  0.005097  0.002545  3.627897  0.003  0.127664  0.00233  3.796372  0.003  0.118178  0.001857  3.81679  0.002  -0.109059  0.132627  0.002613  3.784487  0.003
N  N77  1  0.14826404  0.57201087  0.13995534  1  0.005114  -0.00254  3.628071  -0.003  0.127648  -0.00233  3.796548  -0.003  0.118132  -0.001859  3.817018  -0.002  -0.109062  0.13261  -0.002613  3.784669  -0.003
