# generated using pymatgen
data_InH10C16(NO4)2
_symmetry_space_group_name_H-M   'P 1'
_cell_length_a   15.40521957
_cell_length_b   15.20329317
_cell_length_c   18.01934032
_cell_angle_alpha   77.49006631
_cell_angle_beta   64.69688943
_cell_angle_gamma   59.55316294
_symmetry_Int_Tables_number   1
_chemical_formula_structural   InH10C16(NO4)2
_chemical_formula_sum   'In4 H40 C64 N8 O32'
_cell_volume   3289.26523158
_cell_formula_units_Z   4
loop_
 _symmetry_equiv_pos_site_id
 _symmetry_equiv_pos_as_xyz
  1  'x, y, z'
loop_
 _atom_site_type_symbol
 _atom_site_label
 _atom_site_symmetry_multiplicity
 _atom_site_fract_x
 _atom_site_fract_y
 _atom_site_fract_z
 _atom_site_occupancy
 _atom_site_pbe_bader_charge
 _atom_site_pbe_bader_spin_density
 _atom_site_pbe_cm5_charge
 _atom_site_pbe_ddec_charge
 _atom_site_pbe_ddec_spin_density
 _atom_site_pbe_ddec_sum_bond_order
 _atom_site_pbe_magmom
In  In0  1  0.43587893  0.74992489  0.12846690  1  1.876196  0  0.730375  1.358188  0  2.576996  0
In  In1  1  0.81419754  0.75001798  0.37146500  1  1.875844  0  0.730263  1.357886  0  2.578016  0
In  In2  1  0.56413171  0.25006194  0.87150514  1  1.876174  0  0.730265  1.358084  0  2.577591  0
In  In3  1  0.18581090  0.25005582  0.62854247  1  1.875555  0  0.730184  1.357906  0  2.577265  0
H  H4  1  0.23084899  0.88805431  0.95842398  1  0.136203  0  0.117438  0.125614  0  0.980111  0
H  H5  1  0.81091031  0.61200352  0.95857712  1  0.115255  0  0.117176  0.125358  0  0.978555  0
H  H6  1  0.88117259  0.88800307  0.54156588  1  0.119914  0  0.117436  0.125699  0  0.97953  0
H  H7  1  0.57716524  0.61198281  0.54138201  1  0.120198  0  0.117057  0.125218  0  0.979235  0
H  H8  1  0.76915002  0.11198516  0.04154710  1  0.135907  0  0.117397  0.125496  0  0.979605  0
H  H9  1  0.18909444  0.38801306  0.04144294  1  0.113958  0  0.117213  0.125361  0  0.978693  0
H  H10  1  0.11885845  0.11202419  0.45845006  1  0.120934  0  0.117494  0.125557  0  0.979844  0
H  H11  1  0.42291850  0.38799486  0.45857520  1  0.120092  0  0.117172  0.125307  0  0.978607  0
H  H12  1  0.47933402  0.07479877  0.89012982  1  0.523682  0  0.311617  0.321858  0  0.965323  0
H  H13  1  0.63089969  0.42523348  0.88992342  1  0.515431  0  0.311434  0.321722  0  0.96397  0
H  H14  1  0.44583802  0.07471962  0.60991813  1  0.524085  0  0.311678  0.322109  0  0.964972  0
H  H15  1  0.94395460  0.42512718  0.61001660  1  0.529535  0  0.311635  0.322025  0  0.963923  0
H  H16  1  0.52054924  0.92527579  0.10995639  1  0.522875  0  0.311741  0.322082  0  0.965065  0
H  H17  1  0.36908459  0.57481438  0.11007153  1  0.515631  0  0.311508  0.321934  0  0.964102  0
H  H18  1  0.55418659  0.92517336  0.39007852  1  0.524272  0  0.311701  0.322055  0  0.964968  0
H  H19  1  0.05612809  0.57476733  0.38990437  1  0.529595  0  0.311489  0.321937  0  0.964157  0
H  H20  1  0.47538117  0.97602345  0.96607088  1  0.510642  0  0.306357  0.306779  0  0.992861  0
H  H21  1  0.55889204  0.52388604  0.96600381  1  0.512106  0  0.306706  0.307802  0  0.991837  0
H  H22  1  0.54864160  0.97590813  0.53398103  1  0.513265  0  0.306215  0.30666  0  0.992356  0
H  H23  1  0.91733655  0.52374771  0.53394705  1  0.509412  0  0.306951  0.307786  0  0.992147  0
H  H24  1  0.52447962  0.02409537  0.03400712  1  0.510035  0  0.306177  0.306594  0  0.992553  0
H  H25  1  0.44113900  0.47618089  0.03398053  1  0.512375  0  0.306826  0.307835  0  0.99219  0
H  H26  1  0.45143929  0.02397188  0.46601710  1  0.510824  0  0.306177  0.306629  0  0.992617  0
H  H27  1  0.08275284  0.47611323  0.46596253  1  0.508466  0  0.306774  0.307803  0  0.991855  0
H  H28  1  0.17680761  0.99294342  0.84190594  1  0.105702  0  0.115834  0.122047  0  0.981886  0
H  H29  1  0.98156778  0.50707138  0.84209470  1  0.099943  0  0.116076  0.123225  0  0.981894  0
H  H30  1  0.83023047  0.99297598  0.65809600  1  0.106532  0  0.115887  0.122093  0  0.982082  0
H  H31  1  0.51134286  0.50709185  0.65786553  1  0.100956  0  0.116054  0.123162  0  0.981013  0
H  H32  1  0.82321614  0.00702662  0.15807070  1  0.105328  0  0.11596  0.122266  0  0.981912  0
H  H33  1  0.01841259  0.49289485  0.15792580  1  0.099221  0  0.116112  0.123296  0  0.980961  0
H  H34  1  0.16969180  0.00709477  0.34194587  1  0.106123  0  0.115898  0.122126  0  0.98188  0
H  H35  1  0.48863690  0.49294915  0.34212731  1  0.100676  0  0.116052  0.123232  0  0.981407  0
H  H36  1  0.37797096  0.12864472  0.80729942  1  0.140385  0  0.118378  0.134905  0  1.016407  0
H  H37  1  0.81514613  0.37153836  0.80709611  1  0.135644  0  0.118174  0.135215  0  1.015223  0
H  H38  1  0.49329548  0.12859981  0.69273417  1  0.14488  0  0.118547  0.135103  0  1.015743  0
H  H39  1  0.81343691  0.37141280  0.69283383  1  0.133134  0  0.118008  0.135036  0  1.014855  0
H  H40  1  0.62191844  0.87140162  0.19275979  1  0.13982  0  0.118469  0.134927  0  1.015895  0
H  H41  1  0.18483364  0.62851561  0.19289531  1  0.135408  0  0.118043  0.13518  0  1.015229  0
H  H42  1  0.50663910  0.87130768  0.30725721  1  0.137996  0  0.118336  0.134834  0  1.015964  0
H  H43  1  0.18662116  0.62851146  0.30710882  1  0.133461  0  0.118104  0.135207  0  1.014936  0
C  C44  1  0.36757700  0.88076238  0.01474450  1  1.502663  0  0.212423  0.558848  0  4.20516  0
C  C45  1  0.61801618  0.61919378  0.01471008  1  1.509395  0  0.211711  0.557798  0  4.208115  0
C  C46  1  0.75174799  0.88068075  0.48529922  1  1.516303  0  0.212458  0.558971  0  4.205099  0
C  C47  1  0.76286044  0.61921142  0.48518926  1  1.514287  0  0.211564  0.558078  0  4.208182  0
C  C48  1  0.63235813  0.11931295  0.98531090  1  1.503169  0  0.212535  0.558666  0  4.205464  0
C  C49  1  0.38208105  0.38079457  0.98519094  1  1.509336  0  0.211539  0.557789  0  4.207952  0
C  C50  1  0.24830421  0.11930377  0.51476101  1  1.517122  0  0.21248  0.558703  0  4.20447  0
C  C51  1  0.23722108  0.38072962  0.51474764  1  1.514082  0  0.21196  0.558293  0  4.207085  0
C  C52  1  0.33595104  0.94638604  0.94723525  1  -0.016924  0  -0.009369  -0.124084  0  3.896103  0
C  C53  1  0.71709812  0.55363642  0.94717889  1  0.020673  0  -0.009066  -0.123508  0  3.892885  0
C  C54  1  0.71767470  0.94632188  0.55281857  1  -0.047987  0  -0.009476  -0.124193  0  3.896139  0
C  C55  1  0.72931025  0.55361010  0.55272981  1  0.038848  0  -0.009088  -0.123793  0  3.890885  0
C  C56  1  0.66394663  0.05368166  0.05282380  1  -0.017716  0  -0.009584  -0.123973  0  3.895936  0
C  C57  1  0.28295168  0.44634048  0.05276305  1  0.021942  0  -0.009143  -0.123695  0  3.890977  0
C  C58  1  0.28234505  0.05366112  0.44722172  1  -0.047869  0  -0.009573  -0.124489  0  3.894937  0
C  C59  1  0.27074306  0.44631492  0.44719155  1  0.039366  0  -0.009036  -0.123621  0  3.89189  0
C  C60  1  0.37915822  0.01554723  0.90374258  1  0.489209  0  0.138524  0.314495  0  4.01656  0
C  C61  1  0.71738712  0.48455996  0.90363401  1  0.518426  0  0.139063  0.314743  0  4.014869  0
C  C62  1  0.60530179  0.01547577  0.59630047  1  0.499163  0  0.138187  0.314485  0  4.016371  0
C  C63  1  0.79814157  0.48447386  0.59630881  1  0.489927  0  0.138958  0.314713  0  4.012135  0
C  C64  1  0.62075493  0.98452428  0.09631003  1  0.487159  0  0.138275  0.314243  0  4.016798  0
C  C65  1  0.28263741  0.51546730  0.09634783  1  0.516366  0  0.139035  0.314868  0  4.011855  0
C  C66  1  0.39470924  0.98447062  0.40370317  1  0.500375  0  0.138359  0.314687  0  4.015864  0
C  C67  1  0.20193806  0.51543667  0.40363644  1  0.490204  0  0.138824  0.314685  0  4.013507  0
C  C68  1  0.26341247  0.94018187  0.92421167  1  -0.003908  0  -0.068532  -0.070279  0  3.979168  0
C  C69  1  0.81263627  0.55987973  0.92426558  1  -0.055885  0  -0.067644  -0.069006  0  3.975444  0
C  C70  1  0.79644155  0.94013626  0.57581850  1  -0.020997  0  -0.068445  -0.070542  0  3.977836  0
C  C71  1  0.62753738  0.55983746  0.57567385  1  -0.047274  0  -0.067607  -0.068712  0  3.975451  0
C  C72  1  0.73654751  0.05985989  0.07580594  1  -0.003804  0  -0.068326  -0.069993  0  3.977656  0
C  C73  1  0.18737880  0.44012540  0.07573503  1  -0.056487  0  -0.067757  -0.068867  0  3.975436  0
C  C74  1  0.20356972  0.05986887  0.42421713  1  -0.023366  0  -0.068543  -0.070079  0  3.978054  0
C  C75  1  0.37250929  0.44012419  0.42426518  1  -0.048228  0  -0.067761  -0.069013  0  3.975241  0
C  C76  1  0.23361130  0.99792673  0.85948573  1  -0.024179  0  -0.067131  -0.083103  0  3.914082  0
C  C77  1  0.90722041  0.50212699  0.85959222  1  0.034472  0  -0.068015  -0.08714  0  3.916467  0
C  C78  1  0.76845745  0.99791886  0.64054102  1  0.027339  0  -0.067176  -0.082826  0  3.913862  0
C  C79  1  0.59071134  0.50209174  0.64037590  1  0.007639  0  -0.06795  -0.086013  0  3.914845  0
C  C80  1  0.76639356  0.00207841  0.14050787  1  -0.022924  0  -0.067353  -0.083488  0  3.914238  0
C  C81  1  0.09278743  0.49787738  0.14043224  1  0.037995  0  -0.068057  -0.08741  0  3.914515  0
C  C82  1  0.23149815  0.00209849  0.35949861  1  0.028095  0  -0.067337  -0.083319  0  3.913677  0
C  C83  1  0.40931829  0.49790805  0.35960520  1  0.008384  0  -0.067999  -0.086113  0  3.916096  0
C  C84  1  0.34714683  0.07463962  0.83850831  1  -0.008419  0  -0.070154  -0.179834  0  3.845336  0
C  C85  1  0.81465538  0.42552075  0.83843162  1  -0.067702  0  -0.068851  -0.180772  0  3.843913  0
C  C86  1  0.57817993  0.07460029  0.66152228  1  -0.036032  0  -0.070203  -0.179795  0  3.844322  0
C  C87  1  0.75987764  0.42542816  0.66154362  1  -0.063251  0  -0.068583  -0.179434  0  3.843385  0
C  C88  1  0.65279499  0.92539451  0.16151742  1  -0.008706  0  -0.070192  -0.179719  0  3.844788  0
C  C89  1  0.18530687  0.57451872  0.16158133  1  -0.064833  0  -0.068691  -0.180929  0  3.842554  0
C  C90  1  0.42176847  0.92535068  0.33847889  1  -0.02989  0  -0.070327  -0.180034  0  3.844507  0
C  C91  1  0.24015464  0.57451136  0.33843609  1  -0.062846  0  -0.068764  -0.179906  0  3.844043  0
C  C92  1  0.27758081  0.06425432  0.81576717  1  -0.009915  0  -0.003266  -0.000128  0  3.994805  0
C  C93  1  0.90694621  0.43586888  0.81583313  1  0.012319  0  -0.003745  0.004006  0  3.991498  0
C  C94  1  0.65815061  0.06424056  0.68423716  1  0.009486  0  -0.003379  -0.000675  0  3.994565  0
C  C95  1  0.65721236  0.43580370  0.68419608  1  0.034349  0  -0.003888  0.000592  0  3.994346  0
C  C96  1  0.72240771  0.93576149  0.18421095  1  -0.009709  0  -0.003351  -0.000371  0  3.994934  0
C  C97  1  0.09298656  0.56417822  0.18423991  1  0.008542  0  -0.004143  0.003786  0  3.989581  0
C  C98  1  0.34179352  0.93572948  0.31575741  1  0.011902  0  -0.00329  -0.000288  0  3.9934  0
C  C99  1  0.34280335  0.56418312  0.31581007  1  0.03379  0  -0.003852  0.000896  0  3.994096  0
C  C100  1  0.24969498  0.12440190  0.74469635  1  1.537606  0  0.217911  0.554293  0  4.202319  0
C  C101  1  0.00592627  0.37570851  0.74479231  1  1.548769  0  0.216376  0.552125  0  4.202484  0
C  C102  1  0.62586559  0.12442711  0.75530105  1  1.527406  0  0.217812  0.554555  0  4.202531  0
C  C103  1  0.61838417  0.37568044  0.75529259  1  1.548215  0  0.215917  0.552064  0  4.202264  0
C  C104  1  0.75031789  0.87559484  0.25527289  1  1.539478  0  0.218111  0.554548  0  4.202589  0
C  C105  1  0.99400524  0.62434850  0.25531048  1  1.549958  0  0.216226  0.551349  0  4.201144  0
C  C106  1  0.37403159  0.87555743  0.24467856  1  1.524433  0  0.217583  0.553971  0  4.202365  0
C  C107  1  0.38162808  0.62434987  0.24472898  1  1.548091  0  0.216095  0.551981  0  4.202216  0
N  N108  1  0.44929666  0.02535670  0.92249031  1  -1.249999  0  -0.526114  -0.502246  0  3.293845  0
N  N109  1  0.62857078  0.47464898  0.92234093  1  -1.246741  0  -0.527118  -0.503732  0  3.287618  0
N  N110  1  0.52535050  0.02528138  0.57755336  1  -1.247193  0  -0.525954  -0.502397  0  3.292365  0
N  N111  1  0.89686949  0.47456224  0.57761689  1  -1.258928  0  -0.527409  -0.5039  0  3.288881  0
N  N112  1  0.55061304  0.97470490  0.07756346  1  -1.246953  0  -0.526077  -0.502379  0  3.292508  0
N  N113  1  0.37146010  0.52538286  0.07764521  1  -1.245623  0  -0.527355  -0.504231  0  3.28842  0
N  N114  1  0.47469249  0.97463449  0.42243100  1  -1.245683  0  -0.525954  -0.502366  0  3.292429  0
N  N115  1  0.10320341  0.52535210  0.42233168  1  -1.258214  0  -0.527166  -0.503935  0  3.287998  0
O  O116  1  0.32581226  0.82221810  0.05358714  1  -1.130183  0  -0.286307  -0.520299  0  2.136129  0
O  O117  1  0.62091615  0.67773409  0.05354702  1  -1.134888  0  -0.286389  -0.519929  0  2.140654  0
O  O118  1  0.85205257  0.82216096  0.44646151  1  -1.133319  0  -0.286075  -0.52009  0  2.136334  0
O  O119  1  0.70140185  0.67778935  0.44635769  1  -1.139857  0  -0.286257  -0.519913  0  2.140872  0
O  O120  1  0.67414015  0.17783433  0.94646820  1  -1.130171  0  -0.286296  -0.520306  0  2.136242  0
O  O121  1  0.37919711  0.32223900  0.94633506  1  -1.13417  0  -0.286259  -0.519906  0  2.140723  0
O  O122  1  0.14800836  0.17784492  0.55361302  1  -1.133846  0  -0.286259  -0.519974  0  2.136659  0
O  O123  1  0.29867205  0.32218221  0.55359800  1  -1.139674  0  -0.286472  -0.520068  0  2.140259  0
O  O124  1  0.43968770  0.88131956  0.03309815  1  -1.155475  0  -0.297423  -0.564468  0  2.210278  0
O  O125  1  0.52758177  0.61855874  0.03306632  1  -1.159229  0  -0.297582  -0.564758  0  2.207727  0
O  O126  1  0.67907473  0.88124590  0.46692698  1  -1.15571  0  -0.297699  -0.564752  0  2.20972  0
O  O127  1  0.85392529  0.61856239  0.46686156  1  -1.158664  0  -0.297503  -0.564773  0  2.208126  0
O  O128  1  0.56025837  0.11875271  0.96693093  1  -1.155525  0  -0.297498  -0.56441  0  2.21028  0
O  O129  1  0.47252204  0.38143571  0.96683160  1  -1.161173  0  -0.29732  -0.564468  0  2.208313  0
O  O130  1  0.32099866  0.11873100  0.53310904  1  -1.156017  0  -0.297468  -0.564515  0  2.209699  0
O  O131  1  0.14614436  0.38137866  0.53310551  1  -1.158555  0  -0.297583  -0.564818  0  2.207898  0
O  O132  1  0.16676945  0.13678975  0.73535435  1  -1.123353  0  -0.287321  -0.527662  0  2.136226  0
O  O133  1  0.09816120  0.36334701  0.73546051  1  -1.132574  0  -0.285175  -0.525468  0  2.132325  0
O  O134  1  0.69642601  0.13679521  0.76462267  1  -1.127263  0  -0.287488  -0.528058  0  2.135912  0
O  O135  1  0.53852053  0.36329135  0.76462255  1  -1.132669  0  -0.284939  -0.525139  0  2.133083  0
O  O136  1  0.83323785  0.86324591  0.26459836  1  -1.123258  0  -0.287518  -0.527945  0  2.136236  0
O  O137  1  0.90173759  0.63674967  0.26466563  1  -1.133915  0  -0.284947  -0.525031  0  2.13313  0
O  O138  1  0.30348752  0.86318400  0.23534917  1  -1.125818  0  -0.287046  -0.527506  0  2.136834  0
O  O139  1  0.46150767  0.63670234  0.23538073  1  -1.132699  0  -0.285112  -0.525101  0  2.132763  0
O  O140  1  0.30972039  0.16381946  0.69416470  1  -1.15982  0  -0.287415  -0.545132  0  2.192692  0
O  O141  1  0.99641560  0.33623957  0.69430960  1  -1.164033  0  -0.288494  -0.547054  0  2.195877  0
O  O142  1  0.52642113  0.16386661  0.80580922  1  -1.157836  0  -0.287409  -0.545061  0  2.192534  0
O  O143  1  0.66732491  0.33624029  0.80581760  1  -1.164439  0  -0.288118  -0.546094  0  2.194643  0
O  O144  1  0.69033767  0.83615058  0.30579168  1  -1.161492  0  -0.287506  -0.545045  0  2.193185  0
O  O145  1  0.00353513  0.66380753  0.30580618  1  -1.163683  0  -0.288149  -0.546283  0  2.195089  0
O  O146  1  0.47347722  0.83613015  0.19414901  1  -1.158071  0  -0.287457  -0.544953  0  2.192479  0
O  O147  1  0.33265742  0.66381443  0.19422709  1  -1.164387  0  -0.288039  -0.546056  0  2.195261  0
