# generated using pymatgen
data_ZnH6C7N5Cl
_symmetry_space_group_name_H-M   'P 1'
_cell_length_a   7.04063385
_cell_length_b   8.58434901
_cell_length_c   8.70158433
_cell_angle_alpha   85.69186604
_cell_angle_beta   66.14988190
_cell_angle_gamma   79.33285196
_symmetry_Int_Tables_number   1
_chemical_formula_structural   ZnH6C7N5Cl
_chemical_formula_sum   'Zn2 H12 C14 N10 Cl2'
_cell_volume   472.69502718
_cell_formula_units_Z   2
loop_
 _symmetry_equiv_pos_site_id
 _symmetry_equiv_pos_as_xyz
  1  'x, y, z'
loop_
 _atom_site_type_symbol
 _atom_site_label
 _atom_site_symmetry_multiplicity
 _atom_site_fract_x
 _atom_site_fract_y
 _atom_site_fract_z
 _atom_site_occupancy
 _atom_site_pbe_bader_spin_density
 _atom_site_pbe_cm5_charge
 _atom_site_pbe_ddec_charge
 _atom_site_pbe_ddec_spin_density
 _atom_site_pbe_ddec_sum_bond_order
 _atom_site_pbe_magmom
Zn  Zn0  1  0.86272557  0.65273354  0.71751052  1  0  0.652393  0.624737  0  2.639066  0
Zn  Zn1  1  0.58000897  0.15283906  0.28253261  1  0  0.652468  0.625721  0  2.637755  0
H  H2  1  0.49807202  0.55497740  0.37352234  1  0  0.106522  0.125245  0  1.029368  0
H  H3  1  0.87170276  0.05468249  0.62671107  1  0  0.106319  0.124988  0  1.030462  0
H  H4  1  0.24986936  0.67464945  0.41899594  1  0  0.106104  0.125544  0  0.984815  0
H  H5  1  0.66904225  0.17446359  0.58107422  1  0  0.10632  0.126016  0  0.983546  0
H  H6  1  0.67167463  0.64366780  0.08996214  1  0  0.112801  0.087663  0  1.036866  0
H  H7  1  0.76139681  0.14358165  0.91019021  1  0  0.113133  0.087892  0  1.037466  0
H  H8  1  0.50857389  0.52173468  0.71184364  1  0  0.116691  0.088971  0  0.991681  0
H  H9  1  0.21998665  0.02174560  0.28809166  1  0  0.116712  0.089079  0  0.99187  0
H  H10  1  0.17962445  0.43146441  0.92283627  1  0  0.104942  0.118963  0  1.001845  0
H  H11  1  0.10253481  0.93102982  0.07697653  1  0  0.104749  0.119342  0  1.001776  0
H  H12  1  0.09861754  0.45147274  0.22653711  1  0  0.097616  0.113201  0  1.033994  0
H  H13  1  0.32557073  0.95073835  0.77332240  1  0  0.097614  0.113826  0  1.033417  0
C  C14  1  0.23959884  0.43131963  0.47354837  1  0  0.231657  0.329433  0  3.967854  0
C  C15  1  0.71324786  0.93120631  0.52645806  1  0  0.231794  0.329837  0  3.969694  0
C  C16  1  0.34490478  0.55944827  0.36613173  1  0  -0.145309  -0.293578  0  3.956978  0
C  C17  1  0.71118633  0.05920348  0.63394768  1  0  -0.145412  -0.293974  0  3.957995  0
C  C18  1  0.38028875  0.54766290  0.18361029  1  0  -0.002956  0.091725  0  3.937452  0
C  C19  1  0.56395710  0.04728314  0.81642870  1  0  -0.002037  0.092736  0  3.937907  0
C  C20  1  0.55907199  0.59521592  0.05849518  1  0  0.048604  0.040972  0  3.891781  0
C  C21  1  0.61737028  0.09507808  0.94159893  1  0  0.047386  0.04024  0  3.894218  0
C  C22  1  0.46700731  0.52667356  0.84667516  1  0  0.04376  0.082075  0  3.928711  0
C  C23  1  0.31346362  0.02654484  0.15330055  1  0  0.043981  0.083321  0  3.931432  0
C  C24  1  0.28578061  0.47765420  0.96343335  1  0  -0.081052  -0.097545  0  3.966776  0
C  C25  1  0.24922828  0.97729522  0.03648649  1  0  -0.080795  -0.097851  0  3.969073  0
C  C26  1  0.24158898  0.48879586  0.13391920  1  0  -0.0675  -0.080701  0  3.894467  0
C  C27  1  0.37566331  0.98831150  0.86602060  1  0  -0.067555  -0.081762  0  3.894853  0
N  N28  1  0.05340645  0.45186416  0.60584193  1  0  -0.245703  -0.256685  0  3.519642  0
N  N29  1  0.65917519  0.95186613  0.39419647  1  0  -0.24653  -0.258055  0  3.520926  0
N  N30  1  0.01504056  0.30600238  0.66884963  1  0  -0.087087  -0.061431  0  3.224664  0
N  N31  1  0.68378606  0.80605809  0.33114314  1  0  -0.08674  -0.060917  0  3.224732  0
N  N32  1  0.17118743  0.20007288  0.57803614  1  0  -0.091603  -0.07358  0  3.229774  0
N  N33  1  0.74928336  0.70004304  0.42187791  1  0  -0.091009  -0.072647  0  3.230521  0
N  N34  1  0.31475393  0.27513348  0.45476682  1  0  -0.248712  -0.263525  0  3.513864  0
N  N35  1  0.76973662  0.77499450  0.54513463  1  0  -0.249198  -0.264111  0  3.515106  0
N  N36  1  0.60020597  0.58526404  0.89414848  1  0  -0.338656  -0.212792  0  3.628707  0
N  N37  1  0.49406361  0.08521771  0.10590705  1  0  -0.338763  -0.214495  0  3.631016  0
Cl  Cl38  1  0.03075312  0.79168151  0.80839805  1  0  -0.312219  -0.48867  0  1.24959  0
Cl  Cl39  1  0.83907016  0.29165069  0.19154039  1  0  -0.312727  -0.489209  0  1.248816  0
