# generated using pymatgen
data_MgH12C17NO5
_symmetry_space_group_name_H-M   'P 1'
_cell_length_a   11.36655003
_cell_length_b   11.36656089
_cell_length_c   14.25402678
_cell_angle_alpha   71.25694258
_cell_angle_beta   71.25720866
_cell_angle_gamma   88.87956999
_symmetry_Int_Tables_number   1
_chemical_formula_structural   MgH12C17NO5
_chemical_formula_sum   'Mg4 H48 C68 N4 O20'
_cell_volume   1644.24993772
_cell_formula_units_Z   4
loop_
 _symmetry_equiv_pos_site_id
 _symmetry_equiv_pos_as_xyz
  1  'x, y, z'
loop_
 _atom_site_type_symbol
 _atom_site_label
 _atom_site_symmetry_multiplicity
 _atom_site_fract_x
 _atom_site_fract_y
 _atom_site_fract_z
 _atom_site_occupancy
 _atom_site_pbe_bader_charge
 _atom_site_pbe_bader_spin_density
 _atom_site_pbe_cm5_charge
 _atom_site_pbe_ddec_charge
 _atom_site_pbe_ddec_spin_density
 _atom_site_pbe_ddec_sum_bond_order
 _atom_site_pbe_magmom
Mg  Mg0  1  0.99717876  0.00282952  0.24999744  1  1.692188  0  0.815096  1.38644  0  1.40606  0
Mg  Mg1  1  0.00282386  0.99717444  0.74999904  1  1.692271  0  0.815097  1.386429  0  1.406066  0
Mg  Mg2  1  0.99999999  0.99999817  0.49999969  1  1.68697  0  0.821664  1.375366  0  1.448026  0
Mg  Mg3  1  0.99999999  0.99999999  0.99999860  1  1.687  0  0.82166  1.375297  0  1.448169  0
H  H4  1  0.85767255  0.84067619  0.46930369  1  0.648159  0  0.299479  0.357846  0  0.991122  0
H  H5  1  0.15931928  0.14233131  0.03069663  1  0.648159  0  0.299462  0.357797  0  0.991191  0
H  H6  1  0.14232585  0.15932119  0.53069628  1  0.648181  0  0.299451  0.357821  0  0.991169  0
H  H7  1  0.84067769  0.85767163  0.96930087  1  0.648175  0  0.299455  0.357806  0  0.991181  0
H  H8  1  0.82572499  0.97946129  0.42578862  1  0.624681  0  0.343196  0.41752  0  0.851471  0
H  H9  1  0.02053234  0.17428138  0.07420350  1  0.624569  0  0.34323  0.417606  0  0.851219  0
H  H10  1  0.17427914  0.02053805  0.57421007  1  0.624621  0  0.343179  0.417507  0  0.851524  0
H  H11  1  0.97946374  0.82572245  0.92578909  1  0.624651  0  0.343227  0.417556  0  0.851442  0
H  H12  1  0.39252045  0.14771098  0.14450989  1  0.085948  0  0.100015  0.099714  0  1.024608  0
H  H13  1  0.85230228  0.60749039  0.35548375  1  0.085978  0  0.100048  0.099767  0  1.02459  0
H  H14  1  0.60748495  0.85229302  0.85548305  1  0.085921  0  0.100021  0.099714  0  1.024654  0
H  H15  1  0.14770121  0.39251267  0.64451344  1  0.085956  0  0.10004  0.099725  0  1.024645  0
H  H16  1  0.62621032  0.15706438  0.08660966  1  0.061188  0  0.100597  0.101801  0  1.039676  0
H  H17  1  0.84293808  0.37380112  0.41338774  1  0.06123  0  0.100602  0.101794  0  1.0397  0
H  H18  1  0.37379567  0.84293498  0.91338854  1  0.061214  0  0.100619  0.101827  0  1.039675  0
H  H19  1  0.15706372  0.62620380  0.58661432  1  0.061287  0  0.100615  0.101821  0  1.039676  0
H  H20  1  0.71782412  0.79783047  0.32884766  1  0.056358  0  0.104376  0.111225  0  1.021606  0
H  H21  1  0.20216345  0.28216809  0.17115450  1  0.056232  0  0.104316  0.111138  0  1.021608  0
H  H22  1  0.28217365  0.20217063  0.67115222  1  0.056323  0  0.104364  0.111212  0  1.021652  0
H  H23  1  0.79783649  0.71782470  0.82885468  1  0.056266  0  0.10434  0.111243  0  1.021578  0
H  H24  1  0.59105181  0.61485852  0.47444922  1  0.058147  0  0.092652  0.087089  0  1.034094  0
H  H25  1  0.38514104  0.40893086  0.02555615  1  0.058007  0  0.092675  0.08713  0  1.034037  0
H  H26  1  0.40894340  0.38514536  0.52555481  1  0.058082  0  0.09268  0.08714  0  1.034052  0
H  H27  1  0.61485944  0.59105725  0.97444919  1  0.058097  0  0.092632  0.08707  0  1.034074  0
H  H28  1  0.35941645  0.60653960  0.53527583  1  0.035571  0  0.093202  0.086262  0  1.030246  0
H  H29  1  0.39347008  0.64056749  0.96472582  1  0.035685  0  0.093174  0.086244  0  1.030178  0
H  H30  1  0.64057804  0.39346705  0.46472557  1  0.035555  0  0.093219  0.086244  0  1.030206  0
H  H31  1  0.60653045  0.35942152  0.03527227  1  0.035522  0  0.093216  0.086214  0  1.030244  0
H  H32  1  0.25288992  0.78027995  0.44856565  1  0.058784  0  0.103491  0.112091  0  1.026217  0
H  H33  1  0.21973565  0.74710350  0.05143046  1  0.058836  0  0.103455  0.111967  0  1.026022  0
H  H34  1  0.74710626  0.21972484  0.55143088  1  0.058824  0  0.103436  0.11199  0  1.026062  0
H  H35  1  0.78026702  0.25288927  0.94856610  1  0.058754  0  0.10344  0.11198  0  1.026125  0
H  H36  1  0.63786403  0.83728546  0.60450302  1  0.092761  0  0.11856  0.088863  0  0.988138  0
H  H37  1  0.16271168  0.36212992  0.89550147  1  0.092701  0  0.118565  0.088837  0  0.988154  0
H  H38  1  0.36213174  0.16271375  0.39549996  1  0.092678  0  0.118558  0.088845  0  0.988169  0
H  H39  1  0.83728844  0.63786563  0.10449994  1  0.092791  0  0.118563  0.088853  0  0.988183  0
H  H40  1  0.47224696  0.67526613  0.73743842  1  0.076491  0  0.110301  0.117958  0  1.001145  0
H  H41  1  0.32473357  0.52775324  0.76257080  1  0.076634  0  0.110308  0.117971  0  1.001203  0
H  H42  1  0.52774983  0.32473404  0.26256616  1  0.076537  0  0.110316  0.118  0  1.001178  0
H  H43  1  0.67526522  0.47224883  0.23743277  1  0.076623  0  0.110322  0.118003  0  1.001195  0
H  H44  1  0.71888882  0.39804409  0.66510162  1  0.100126  0  0.111163  0.12027  0  1.00347  0
H  H45  1  0.60195439  0.28110977  0.83491281  1  0.10011  0  0.111139  0.120168  0  1.003589  0
H  H46  1  0.28111154  0.60195428  0.33490390  1  0.100103  0  0.11115  0.120225  0  1.003546  0
H  H47  1  0.39804897  0.71889144  0.16508910  1  0.100122  0  0.111147  0.120192  0  1.003588  0
H  H48  1  0.87553189  0.57291105  0.53668477  1  0.08682  0  0.120491  0.091621  0  0.975931  0
H  H49  1  0.42708497  0.12446264  0.96332360  1  0.086703  0  0.12049  0.091556  0  0.975966  0
H  H50  1  0.12446762  0.42708824  0.46332073  1  0.086807  0  0.120488  0.091604  0  0.975945  0
H  H51  1  0.57291899  0.87553481  0.03667141  1  0.08676  0  0.120491  0.091562  0  0.975919  0
C  C52  1  0.22857099  0.99032435  0.31149431  1  1.622208  0  0.226468  0.638378  0  4.205178  0
C  C53  1  0.00970510  0.77143899  0.18848998  1  1.621646  0  0.226538  0.638328  0  4.205319  0
C  C54  1  0.77143308  0.00968616  0.68850080  1  1.622006  0  0.226463  0.638186  0  4.205442  0
C  C55  1  0.99030372  0.22856133  0.81150163  1  1.622931  0  0.226511  0.638305  0  4.205312  0
C  C56  1  0.36692316  0.98384608  0.27793470  1  -0.031567  0  -0.014639  -0.076189  0  3.948948  0
C  C57  1  0.01616812  0.63307896  0.22205864  1  -0.03152  0  -0.014621  -0.075933  0  3.948738  0
C  C58  1  0.63307674  0.01615877  0.72206155  1  -0.031762  0  -0.014617  -0.075899  0  3.94891  0
C  C59  1  0.98383327  0.36692125  0.77793632  1  -0.031575  0  -0.014597  -0.075947  0  3.948858  0
C  C60  1  0.43902264  0.07739750  0.18872758  1  -0.050924  0  -0.094818  -0.117565  0  4.044556  0
C  C61  1  0.92261205  0.56098645  0.31126629  1  -0.051072  0  -0.094926  -0.117743  0  4.044503  0
C  C62  1  0.56097898  0.92260552  0.81126870  1  -0.050828  0  -0.094869  -0.117657  0  4.04464  0
C  C63  1  0.07738957  0.43901657  0.68872999  1  -0.051313  0  -0.094865  -0.117585  0  4.044482  0
C  C64  1  0.56977612  0.08305679  0.15663438  1  -0.051497  0  -0.095705  -0.119415  0  4.030901  0
C  C65  1  0.91694619  0.43023447  0.34336383  1  -0.051613  0  -0.095716  -0.119464  0  4.030906  0
C  C66  1  0.43022829  0.91694627  0.84336186  1  -0.051414  0  -0.09573  -0.119514  0  4.030976  0
C  C67  1  0.08305366  0.56976947  0.65663758  1  -0.051453  0  -0.095717  -0.119555  0  4.030946  0
C  C68  1  0.62875086  0.99504243  0.21357627  1  -0.002425  0  -0.011624  -0.0643  0  3.947579  0
C  C69  1  0.00495388  0.37124945  0.28642475  1  -0.002392  0  -0.011564  -0.064077  0  3.947456  0
C  C70  1  0.37124969  0.00495871  0.78642288  1  -0.002405  0  -0.011613  -0.064179  0  3.947336  0
C  C71  1  0.99504569  0.62875076  0.71357770  1  -0.002371  0  -0.011619  -0.06408  0  3.947321  0
C  C72  1  0.55816861  0.89288508  0.30214778  1  -0.014341  0  -0.004423  0.052976  0  3.963821  0
C  C73  1  0.10711669  0.44182731  0.19785302  1  -0.014112  0  -0.004496  0.05283  0  3.963907  0
C  C74  1  0.44183130  0.10711978  0.69784987  1  -0.01449  0  -0.004434  0.052945  0  3.963708  0
C  C75  1  0.89288087  0.55817101  0.80215044  1  -0.014392  0  -0.004484  0.052821  0  3.963693  0
C  C76  1  0.61624871  0.79305034  0.35445513  1  -0.035061  0  -0.092202  -0.128748  0  3.968307  0
C  C77  1  0.20694597  0.38374137  0.14554748  1  -0.035343  0  -0.092083  -0.128544  0  3.968258  0
C  C78  1  0.38374741  0.20695352  0.64554376  1  -0.034928  0  -0.092182  -0.128727  0  3.968375  0
C  C79  1  0.79305023  0.61625134  0.85445919  1  -0.035002  0  -0.092149  -0.12872  0  3.9684  0
C  C80  1  0.54555066  0.69165052  0.43578453  1  -0.033888  0  -0.102257  -0.090676  0  4.053483  0
C  C81  1  0.30834826  0.45443486  0.06421939  1  -0.033753  0  -0.102334  -0.090852  0  4.053674  0
C  C82  1  0.45444734  0.30835339  0.56421737  1  -0.033934  0  -0.102293  -0.090761  0  4.053594  0
C  C83  1  0.69164950  0.54555413  0.93578433  1  -0.033918  0  -0.102269  -0.090687  0  4.053615  0
C  C84  1  0.41389911  0.68708138  0.47010177  1  -0.063167  0  -0.101792  -0.095627  0  4.056183  0
C  C85  1  0.31292664  0.58608717  0.02989862  1  -0.063256  0  -0.101792  -0.095624  0  4.05626  0
C  C86  1  0.58609724  0.31292529  0.52989844  1  -0.063078  0  -0.101829  -0.095651  0  4.056192  0
C  C87  1  0.68707296  0.41390183  0.97010111  1  -0.062982  0  -0.101828  -0.095609  0  4.056197  0
C  C88  1  0.35442985  0.78289477  0.42183992  1  -0.052957  0  -0.095064  -0.139217  0  3.978164  0
C  C89  1  0.21711537  0.64556100  0.07815775  1  -0.05296  0  -0.094992  -0.138945  0  3.977934  0
C  C90  1  0.64556454  0.21711093  0.57815824  1  -0.053058  0  -0.094945  -0.138929  0  3.977908  0
C  C91  1  0.78288452  0.35443173  0.92184024  1  -0.053389  0  -0.094965  -0.138997  0  3.977967  0
C  C92  1  0.42431563  0.88739388  0.33562139  1  0.012037  0  -0.004767  0.053561  0  3.965473  0
C  C93  1  0.11261395  0.57568024  0.16437550  1  0.012023  0  -0.004672  0.053471  0  3.96573  0
C  C94  1  0.57568421  0.11261005  0.66437721  1  0.012066  0  -0.00477  0.053396  0  3.965755  0
C  C95  1  0.88738636  0.42431808  0.83561953  1  0.012555  0  -0.004685  0.0535  0  3.96566  0
C  C96  1  0.76819755  0.00654938  0.17789247  1  1.592184  0  0.226474  0.640464  0  4.200623  0
C  C97  1  0.99343894  0.23180650  0.32210684  1  1.592203  0  0.226374  0.64024  0  4.200708  0
C  C98  1  0.23180450  0.99344712  0.82210609  1  1.592148  0  0.226383  0.640311  0  4.200799  0
C  C99  1  0.00655958  0.76819185  0.67790197  1  1.591806  0  0.226426  0.640311  0  4.200594  0
C  C100  1  0.65219035  0.73855919  0.61936882  1  0.459484  0  0.051402  0.09663  0  3.963419  0
C  C101  1  0.26143909  0.34780509  0.88063730  1  0.459223  0  0.05146  0.096788  0  3.963367  0
C  C102  1  0.34781007  0.26144010  0.38063364  1  0.459552  0  0.051381  0.096665  0  3.963376  0
C  C103  1  0.73856117  0.65219232  0.11936219  1  0.459226  0  0.051456  0.096729  0  3.963512  0
C  C104  1  0.55922240  0.64699911  0.69387795  1  0.039236  0  -0.079648  -0.176504  0  3.944035  0
C  C105  1  0.35300097  0.44077597  0.80613116  1  0.039266  0  -0.079684  -0.176562  0  3.944187  0
C  C106  1  0.44077809  0.35300111  0.30612425  1  0.039234  0  -0.079653  -0.176568  0  3.944073  0
C  C107  1  0.64700039  0.55922334  0.19387246  1  0.039224  0  -0.079703  -0.176595  0  3.944153  0
C  C108  1  0.57902228  0.52037626  0.71219672  1  -0.065134  0  0.014816  0.104732  0  3.963055  0
C  C109  1  0.47962246  0.42097401  0.78781566  1  -0.038318  0  0.014821  0.104629  0  3.963096  0
C  C110  1  0.42097443  0.47962298  0.28780742  1  -0.054243  0  0.014788  0.104641  0  3.963154  0
C  C111  1  0.52037690  0.57902341  0.21218897  1  -0.049167  0  0.014823  0.104667  0  3.96299  0
C  C112  1  0.69637749  0.49393758  0.65510356  1  -0.04831  0  -0.077087  -0.170192  0  3.931666  0
C  C113  1  0.50605958  0.30361944  0.84490862  1  -0.048296  0  -0.076991  -0.169891  0  3.931562  0
C  C114  1  0.30362194  0.50606078  0.34490221  1  -0.048204  0  -0.077046  -0.170029  0  3.931713  0
C  C115  1  0.49393991  0.69637983  0.15509269  1  -0.04839  0  -0.077011  -0.169941  0  3.931507  0
C  C116  1  0.78411611  0.59173346  0.58205763  1  0.512703  0  0.051993  0.093867  0  3.958528  0
C  C117  1  0.40826174  0.21587821  0.91795221  1  0.512683  0  0.051972  0.093847  0  3.958404  0
C  C118  1  0.21588325  0.40826396  0.41794700  1  0.512693  0  0.052073  0.093936  0  3.958493  0
C  C119  1  0.59173838  0.78411733  0.08204780  1  0.512703  0  0.051983  0.093891  0  3.95825  0
N  N120  1  0.76272530  0.71263471  0.56248321  1  -1.205047  0  -0.295587  -0.229257  0  3.386963  0
N  N121  1  0.28736239  0.23726868  0.93752245  1  -1.204908  0  -0.295613  -0.229322  0  3.386824  0
N  N122  1  0.23727519  0.28736551  0.43751689  1  -1.205086  0  -0.295611  -0.229306  0  3.386993  0
N  N123  1  0.71263773  0.76272686  0.06247756  1  -1.205004  0  -0.295628  -0.229353  0  3.386892  0
O  O124  1  0.17737805  0.00323179  0.24230104  1  -1.243299  0  -0.363032  -0.646392  0  2.231178  0
O  O125  1  0.99682632  0.82263417  0.25768541  1  -1.24285  0  -0.363045  -0.64656  0  2.23093  0
O  O126  1  0.82262687  0.99678991  0.75768745  1  -1.243349  0  -0.362978  -0.646391  0  2.231568  0
O  O127  1  0.00319111  0.17736909  0.74230531  1  -1.242886  0  -0.363028  -0.64651  0  2.231129  0
O  O128  1  0.17444050  0.98693540  0.40534606  1  -1.240662  0  -0.357492  -0.662828  0  2.286208  0
O  O129  1  0.01306365  0.82555407  0.09465700  1  -1.24027  0  -0.35752  -0.662697  0  2.286491  0
O  O130  1  0.82555852  0.01305824  0.59465051  1  -1.240306  0  -0.357516  -0.662753  0  2.2861  0
O  O131  1  0.98693180  0.17444138  0.90534143  1  -1.241603  0  -0.357561  -0.662756  0  2.286381  0
O  O132  1  0.82294714  0.01088772  0.08405211  1  -1.237657  0  -0.361351  -0.645955  0  2.26576  0
O  O133  1  0.98911290  0.17705340  0.41595483  1  -1.237636  0  -0.361361  -0.645943  0  2.265385  0
O  O134  1  0.17705220  0.98910969  0.91594972  1  -1.237629  0  -0.361326  -0.645923  0  2.265699  0
O  O135  1  0.01088581  0.82294773  0.58404830  1  -1.237447  0  -0.361412  -0.646018  0  2.265214  0
O  O136  1  0.82029207  0.01241181  0.24301235  1  -1.243013  0  -0.361742  -0.665813  0  2.264749  0
O  O137  1  0.98755974  0.17971149  0.25699993  1  -1.243095  0  -0.36171  -0.665679  0  2.264958  0
O  O138  1  0.17971014  0.98758658  0.75698988  1  -1.243002  0  -0.361664  -0.665695  0  2.26487  0
O  O139  1  0.01243582  0.82028494  0.74300524  1  -1.242859  0  -0.361666  -0.665631  0  2.265091  0
O  O140  1  0.89707872  0.92966938  0.42241421  1  -1.306911  0  -0.573895  -0.825129  0  2.183234  0
O  O141  1  0.07032403  0.10292663  0.07758477  1  -1.306773  0  -0.57387  -0.82516  0  2.183126  0
O  O142  1  0.10292240  0.07032711  0.57758460  1  -1.306832  0  -0.57383  -0.825095  0  2.183409  0
O  O143  1  0.92967207  0.89707723  0.92241202  1  -1.30687  0  -0.573874  -0.825106  0  2.183302  0
