# generated using pymatgen
data_CdH30C33N4O7
_symmetry_space_group_name_H-M   'P 1'
_cell_length_a   11.08864304
_cell_length_b   11.60302663
_cell_length_c   13.06931468
_cell_angle_alpha   70.94358809
_cell_angle_beta   87.21484135
_cell_angle_gamma   69.49002805
_symmetry_Int_Tables_number   1
_chemical_formula_structural   CdH30C33N4O7
_chemical_formula_sum   'Cd2 H60 C66 N8 O14'
_cell_volume   1484.50394063
_cell_formula_units_Z   2
loop_
 _symmetry_equiv_pos_site_id
 _symmetry_equiv_pos_as_xyz
  1  'x, y, z'
loop_
 _atom_site_type_symbol
 _atom_site_label
 _atom_site_symmetry_multiplicity
 _atom_site_fract_x
 _atom_site_fract_y
 _atom_site_fract_z
 _atom_site_occupancy
 _atom_site_hle17_bader_spin_density
 _atom_site_hle17_ddec_charge
 _atom_site_hle17_ddec_spin_density
 _atom_site_hle17_ddec_sum_bond_order
 _atom_site_hle17_magmom
 _atom_site_hse06_10hf_bader_spin_density
 _atom_site_hse06_10hf_ddec_charge
 _atom_site_hse06_10hf_ddec_spin_density
 _atom_site_hse06_10hf_ddec_sum_bond_order
 _atom_site_hse06_10hf_magmom
 _atom_site_hse06_bader_spin_density
 _atom_site_hse06_ddec_charge
 _atom_site_hse06_ddec_spin_density
 _atom_site_hse06_ddec_sum_bond_order
 _atom_site_hse06_magmom
 _atom_site_pbe_bader_spin_density
 _atom_site_pbe_cm5_charge
 _atom_site_pbe_ddec_charge
 _atom_site_pbe_ddec_spin_density
 _atom_site_pbe_ddec_sum_bond_order
 _atom_site_pbe_magmom
Cd  Cd0  1  0.48598902  0.20827141  0.14095355  1  0  1.125431  0  1.696739  0  0  0.936478  0  2.140694  0  0  0.991909  0  2.088775  0  0  0.778183  0.897283  0  2.176073  0
Cd  Cd1  1  0.51401007  0.79172923  0.85904683  1  0  1.125446  0  1.696714  0  0  0.936501  0  2.140661  0  0  0.991933  0  2.08874  0  0  0.778186  0.897307  0  2.176031  0
H  H2  1  0.77077887  0.42186498  0.87042585  1  0  0.369289  0  0.922627  0  0  0.341198  0  0.999645  0  0  0.352828  0  0.98677  0  0  0.29558  0.333109  0  1.008403  0
H  H3  1  0.22922022  0.57813565  0.12957452  1  0  0.369287  0  0.922639  0  0  0.341187  0  0.999666  0  0  0.352821  0  0.986787  0  0  0.295586  0.333099  0  1.008424  0
H  H4  1  0.18868608  0.06601148  0.68525854  1  0  0.380572  0  0.907894  0  0  0.35519  0  0.978752  0  0  0.367415  0  0.965431  0  0  0.296097  0.346633  0  0.987912  0
H  H5  1  0.81131606  0.93398817  0.31474122  1  0  0.380619  0  0.907841  0  0  0.35521  0  0.978738  0  0  0.367435  0  0.965415  0  0  0.29611  0.346651  0  0.987899  0
H  H6  1  0.59513577  0.39242263  0.06024614  1  0  0.410112  0  0.907144  0  0  0.374706  0  0.977752  0  0  0.386571  0  0.960611  0  0  0.283844  0.366381  0  0.989751  0
H  H7  1  0.40486366  0.60757703  0.93975374  1  0  0.410114  0  0.907142  0  0  0.374699  0  0.977767  0  0  0.386568  0  0.96062  0  0  0.283843  0.366374  0  0.989765  0
H  H8  1  0.46194281  0.47167878  0.09984776  1  0  0.40582  0  0.902549  0  0  0.373488  0  0.968625  0  0  0.383803  0  0.953658  0  0  0.288928  0.366236  0  0.979145  0
H  H9  1  0.53805662  0.52832088  0.90015212  1  0  0.405853  0  0.902516  0  0  0.373522  0  0.96859  0  0  0.383835  0  0.953625  0  0  0.288935  0.366266  0  0.979116  0
H  H10  1  0.61835572  0.13794538  0.82015032  1  0  0.110169  0  0.967398  0  0  0.11548  0  1.041129  0  0  0.119387  0  1.03693  0  0  0.10372  0.112387  0  1.044951  0
H  H11  1  0.38164461  0.86205427  0.17984952  1  0  0.110177  0  0.96739  0  0  0.115472  0  1.041135  0  0  0.119379  0  1.036934  0  0  0.103722  0.112381  0  1.04496  0
H  H12  1  0.92537400  0.26459082  0.48213151  1  0  0.084964  0  0.997552  0  0  0.094252  0  1.063317  0  0  0.096794  0  1.062978  0  0  0.093302  0.092446  0  1.063642  0
H  H13  1  0.07462475  0.73541079  0.51786783  1  0  0.084968  0  0.997526  0  0  0.094265  0  1.063285  0  0  0.09681  0  1.062943  0  0  0.093305  0.092457  0  1.063604  0
H  H14  1  0.85371430  0.13250319  0.40536320  1  0  0.090413  0  0.943304  0  0  0.104266  0  0.996366  0  0  0.107011  0  0.995181  0  0  0.100914  0.102317  0  0.997145  0
H  H15  1  0.14628569  0.86749744  0.59463561  1  0  0.090413  0  0.943295  0  0  0.104267  0  0.996351  0  0  0.107011  0  0.995168  0  0  0.10092  0.102316  0  0.997132  0
H  H16  1  0.69736838  0.02825302  0.49677401  1  0  0.091245  0  0.95853  0  0  0.101124  0  1.020096  0  0  0.104224  0  1.019153  0  0  0.097463  0.098906  0  1.020871  0
H  H17  1  0.30263105  0.97174664  0.50322510  1  0  0.091258  0  0.958532  0  0  0.10114  0  1.02009  0  0  0.104239  0  1.019146  0  0  0.097472  0.098917  0  1.020866  0
H  H18  1  0.62048705  0.05214403  0.67488652  1  0  0.095937  0  0.9605  0  0  0.105543  0  1.024221  0  0  0.108362  0  1.022963  0  0  0.098701  0.103643  0  1.024953  0
H  H19  1  0.37951295  0.94785660  0.32511229  1  0  0.095945  0  0.960476  0  0  0.105552  0  1.024195  0  0  0.108375  0  1.022929  0  0  0.098693  0.10365  0  1.024933  0
H  H20  1  0.94768021  0.39243571  0.53210081  1  0  0.082974  0  0.954926  0  0  0.100673  0  1.017589  0  0  0.10138  0  1.017472  0  0  0.096607  0.100152  0  1.017752  0
H  H21  1  0.05232048  0.60756296  0.46790083  1  0  0.082975  0  0.954902  0  0  0.100678  0  1.017545  0  0  0.101382  0  1.01743  0  0  0.096626  0.100156  0  1.017706  0
H  H22  1  0.87618194  0.50364539  0.60087645  1  0  0.077167  0  0.9688  0  0  0.092645  0  1.036434  0  0  0.093743  0  1.035829  0  0  0.094537  0.091875  0  1.037013  0
H  H23  1  0.12381783  0.49635329  0.39912446  1  0  0.077165  0  0.968771  0  0  0.092651  0  1.036382  0  0  0.093749  0  1.035776  0  0  0.094548  0.09188  0  1.03696  0
H  H24  1  0.40467459  0.24623143  0.81927030  1  0  0.104089  0  0.956667  0  0  0.112909  0  1.024767  0  0  0.11584  0  1.022222  0  0  0.104376  0.110094  0  1.028129  0
H  H25  1  0.59532540  0.75376920  0.18072927  1  0  0.104118  0  0.956646  0  0  0.112917  0  1.024766  0  0  0.115844  0  1.022224  0  0  0.104395  0.110106  0  1.02813  0
H  H26  1  0.91330479  0.61140642  0.66713075  1  0  0.078669  0  1.018801  0  0  0.085412  0  1.089987  0  0  0.088175  0  1.089361  0  0  0.09047  0.083482  0  1.090521  0
H  H27  1  0.08669555  0.38859323  0.33286909  1  0  0.078691  0  1.018835  0  0  0.08543  0  1.090019  0  0  0.088193  0  1.089394  0  0  0.090467  0.083502  0  1.090551  0
H  H28  1  0.98280486  0.75636515  0.72917005  1  0  0.081744  0  0.946378  0  0  0.094007  0  1.002338  0  0  0.096874  0  1.001215  0  0  0.098002  0.091984  0  1.003126  0
H  H29  1  0.01719513  0.24363548  0.27082876  1  0  0.081781  0  0.9464  0  0  0.094049  0  1.002345  0  0  0.096915  0  1.001223  0  0  0.098017  0.092029  0  1.003134  0
H  H30  1  0.20820639  0.68522645  0.80982211  1  0  0.09422  0  0.949541  0  0  0.106139  0  1.007244  0  0  0.109554  0  1.005357  0  0  0.097895  0.103749  0  1.008571  0
H  H31  1  0.79179271  0.31477418  0.19017750  1  0  0.094201  0  0.949554  0  0  0.106121  0  1.007258  0  0  0.109537  0  1.005371  0  0  0.097886  0.103734  0  1.008585  0
H  H32  1  0.36017216  0.46180372  0.83138597  1  0  0.090186  0  0.962515  0  0  0.100126  0  1.02557  0  0  0.103114  0  1.023836  0  0  0.094833  0.098005  0  1.026871  0
H  H33  1  0.63982874  0.53819691  0.16861433  1  0  0.090176  0  0.962551  0  0  0.100104  0  1.025618  0  0  0.103092  0  1.023885  0  0  0.09482  0.097983  0  1.026924  0
H  H34  1  0.52927370  0.34702508  0.31756783  1  0  0.09997  0  0.951537  0  0  0.109838  0  1.015712  0  0  0.111977  0  1.013131  0  0  0.136558  0.108296  0  1.017432  0
H  H35  1  0.47072630  0.65297555  0.68243098  1  0  0.099977  0  0.95155  0  0  0.109848  0  1.015719  0  0  0.111988  0  1.013137  0  0  0.136562  0.108307  0  1.017425  0
H  H36  1  0.26483808  0.15565629  0.33851585  1  0  0.098125  0  0.968693  0  0  0.109254  0  1.027932  0  0  0.110863  0  1.028037  0  0  0.117551  0.108063  0  1.027957  0
H  H37  1  0.73515977  0.84434532  0.66148353  1  0  0.098039  0  0.968855  0  0  0.109279  0  1.027958  0  0  0.11089  0  1.028062  0  0  0.117541  0.108074  0  1.027991  0
H  H38  1  0.24318142  0.24416790  0.51449926  1  0  0.11577  0  0.991147  0  0  0.121527  0  1.058744  0  0  0.124243  0  1.057781  0  0  0.119077  0.119497  0  1.059609  0
H  H39  1  0.75681790  0.75583468  0.48549978  1  0  0.115778  0  0.991119  0  0  0.121538  0  1.058713  0  0  0.124252  0  1.057749  0  0  0.119081  0.119513  0  1.059571  0
H  H40  1  0.31614742  0.44132011  0.52546839  1  0  0.079228  0  0.91716  0  0  0.096298  0  0.977565  0  0  0.09601  0  0.979113  0  0  0.111603  0.096458  0  0.976452  0
H  H41  1  0.68385258  0.55868052  0.47453118  1  0  0.079229  0  0.917188  0  0  0.096289  0  0.977601  0  0  0.096002  0  0.979143  0  0  0.111607  0.096453  0  0.976494  0
H  H42  1  0.45743558  0.30662223  0.58805575  1  0  0.073283  0  0.939564  0  0  0.088518  0  1.004022  0  0  0.087585  0  1.00625  0  0  0.105941  0.088748  0  1.003278  0
H  H43  1  0.54256441  0.69337840  0.41194382  1  0  0.073274  0  0.939586  0  0  0.088508  0  1.004033  0  0  0.087574  0  1.006262  0  0  0.105935  0.088743  0  1.003291  0
H  H44  1  0.44964445  0.53446623  0.38245652  1  0  0.070307  0  0.947158  0  0  0.08482  0  1.01349  0  0  0.084397  0  1.016332  0  0  0.091675  0.084988  0  1.011734  0
H  H45  1  0.55035555  0.46553440  0.61754305  1  0  0.070319  0  0.947147  0  0  0.084833  0  1.013476  0  0  0.084409  0  1.016317  0  0  0.091682  0.085001  0  1.011715  0
H  H46  1  0.59074384  0.40178220  0.45035125  1  0  0.072052  0  0.94754  0  0  0.08874  0  1.010563  0  0  0.088519  0  1.013093  0  0  0.093767  0.088857  0  1.008787  0
H  H47  1  0.40925650  0.59821746  0.54964782  1  0  0.072053  0  0.947539  0  0  0.088739  0  1.010566  0  0  0.088517  0  1.013096  0  0  0.093768  0.088856  0  1.008779  0
H  H48  1  0.35613970  0.06553638  0.01845364  1  0  0.114321  0  0.927096  0  0  0.122695  0  0.991051  0  0  0.12541  0  0.987662  0  0  0.141364  0.120651  0  0.993539  0
H  H49  1  0.64386097  0.93446230  0.98154570  1  0  0.114253  0  0.927179  0  0  0.122638  0  0.991108  0  0  0.125353  0  0.98772  0  0  0.141334  0.120602  0  0.993595  0
H  H50  1  0.97983410  0.34027712  0.00067485  1  0  0.115805  0  0.95365  0  0  0.125602  0  1.01527  0  0  0.128626  0  1.013501  0  0  0.124015  0.12346  0  1.016581  0
H  H51  1  0.02016658  0.65972156  0.99932526  1  0  0.115774  0  0.953705  0  0  0.125622  0  1.015267  0  0  0.128646  0  1.013497  0  0  0.124032  0.123483  0  1.016575  0
H  H52  1  0.15473003  0.41016709  0.09028874  1  0  0.105861  0  0.955089  0  0  0.11818  0  1.010905  0  0  0.120369  0  1.01048  0  0  0.118467  0.116566  0  1.011342  0
H  H53  1  0.84526975  0.58983160  0.90971140  1  0  0.105848  0  0.955072  0  0  0.118156  0  1.010907  0  0  0.120345  0  1.010482  0  0  0.118457  0.11655  0  1.011337  0
H  H54  1  0.18749974  0.03306704  0.93327025  1  0  0.082442  0  0.927823  0  0  0.098178  0  0.989565  0  0  0.098339  0  0.990237  0  0  0.11408  0.097957  0  0.989181  0
H  H55  1  0.81250026  0.96693359  0.06672933  1  0  0.082429  0  0.927817  0  0  0.098177  0  0.989557  0  0  0.098337  0  0.99023  0  0  0.114086  0.09796  0  0.989179  0
H  H56  1  0.04925549  0.17306061  0.87287328  1  0  0.078488  0  0.943935  0  0  0.090497  0  1.011118  0  0  0.090772  0  1.012235  0  0  0.108439  0.090057  0  1.010725  0
H  H57  1  0.95074394  0.82693904  0.12712660  1  0  0.078487  0  0.943929  0  0  0.090503  0  1.011112  0  0  0.090779  0  1.012227  0  0  0.108438  0.090065  0  1.010719  0
H  H58  1  0.93254294  0.11675858  0.03944746  1  0  0.07074  0  0.926113  0  0  0.091763  0  0.980945  0  0  0.092306  0  0.981394  0  0  0.093336  0.091305  0  0.98069  0
H  H59  1  0.06745683  0.88324010  0.96055192  1  0  0.070774  0  0.926116  0  0  0.091813  0  0.980939  0  0  0.092352  0  0.981388  0  0  0.093362  0.091358  0  0.98068  0
H  H60  1  0.07269639  0.98241551  0.10483288  1  0  0.076004  0  0.938252  0  0  0.09401  0  0.998443  0  0  0.094181  0  1.000322  0  0  0.093347  0.093865  0  0.997116  0
H  H61  1  0.92730429  0.01758317  0.89516723  1  0  0.076047  0  0.938238  0  0  0.094045  0  0.998451  0  0  0.094217  0  1.000328  0  0  0.093359  0.093901  0  0.997125  0
C  C62  1  0.65891623  0.28523977  0.92536025  1  0  0.663098  0  3.879738  0  0  0.609684  0  4.171362  0  0  0.644957  0  4.163745  0  0  0.209352  0.585886  0  4.175691  0
C  C63  1  0.34108445  0.71475891  0.07464062  1  0  0.66288  0  3.879919  0  0  0.609517  0  4.171468  0  0  0.644797  0  4.16385  0  0  0.20927  0.585727  0  4.175799  0
C  C64  1  0.84717831  0.32246266  0.66924790  1  0  -0.060804  0  3.656785  0  0  -0.051436  0  3.908502  0  0  -0.056872  0  3.930584  0  0  -0.024796  -0.047846  0  3.893902  0
C  C65  1  0.15282293  0.67753699  0.33075267  1  0  -0.06089  0  3.6568  0  0  -0.051541  0  3.908524  0  0  -0.056977  0  3.930605  0  0  -0.024848  -0.047939  0  3.893911  0
C  C66  1  0.79579974  0.33775846  0.76571114  1  0  0.261251  0  3.793587  0  0  0.238096  0  4.067895  0  0  0.250551  0  4.084409  0  0  0.077552  0.229749  0  4.056631  0
C  C67  1  0.20420003  0.66224023  0.23428901  1  0  0.261334  0  3.793668  0  0  0.238189  0  4.067959  0  0  0.250644  0  4.084472  0  0  0.077592  0.229841  0  4.056701  0
C  C68  1  0.71360595  0.26922826  0.82219969  1  0  -0.218037  0  3.810321  0  0  -0.19962  0  4.061483  0  0  -0.212556  0  4.084046  0  0  -0.045144  -0.191328  0  4.046638  0
C  C69  1  0.28639417  0.73076944  0.17780226  1  0  -0.218012  0  3.810357  0  0  -0.199611  0  4.061487  0  0  -0.21254  0  4.084039  0  0  -0.045116  -0.191343  0  4.04667  0
C  C70  1  0.68149827  0.18933488  0.77802659  1  0  -0.090763  0  3.740745  0  0  -0.129019  0  4.001224  0  0  -0.123813  0  4.017023  0  0  -0.085078  -0.132642  0  3.991967  0
C  C71  1  0.31850116  0.81066478  0.22197252  1  0  -0.090803  0  3.740667  0  0  -0.129042  0  4.001174  0  0  -0.123835  0  4.016966  0  0  -0.085102  -0.132657  0  3.991927  0
C  C72  1  0.72705700  0.17494988  0.67875621  1  0  0.032444  0  3.81237  0  0  0.050464  0  4.042258  0  0  0.046805  0  4.066667  0  0  -0.01913  0.052836  0  4.025713  0
C  C73  1  0.27294334  0.82504977  0.32124440  1  0  0.032554  0  3.812323  0  0  0.050538  0  4.04225  0  0  0.046878  0  4.066661  0  0  -0.019099  0.052906  0  4.025711  0
C  C74  1  0.81279310  0.24054484  0.62400228  1  0  0.040719  0  3.740352  0  0  0.049214  0  3.970554  0  0  0.052877  0  3.992573  0  0  -0.003302  0.046942  0  3.955407  0
C  C75  1  0.18720689  0.75945579  0.37599653  1  0  0.040698  0  3.740401  0  0  0.049223  0  3.970585  0  0  0.052885  0  3.992605  0  0  -0.003289  0.046945  0  3.955435  0
C  C76  1  0.85756770  0.22061749  0.52497171  1  0  -0.110172  0  3.740099  0  0  -0.133507  0  3.993268  0  0  -0.13663  0  4.013089  0  0  -0.095453  -0.131399  0  3.979573  0
C  C77  1  0.14243230  0.77938314  0.47502863  1  0  -0.110139  0  3.740036  0  0  -0.133492  0  3.993197  0  0  -0.136615  0  4.013018  0  0  -0.095427  -0.13137  0  3.979485  0
C  C78  1  0.81733918  0.14558790  0.48139640  1  0  -0.059454  0  3.776702  0  0  -0.07333  0  4.029212  0  0  -0.073559  0  4.049531  0  0  -0.09136  -0.072823  0  4.01485  0
C  C79  1  0.18266048  0.85441371  0.51860291  1  0  -0.059454  0  3.776683  0  0  -0.073329  0  4.029196  0  0  -0.073559  0  4.049518  0  0  -0.091382  -0.07283  0  4.014833  0
C  C80  1  0.72989515  0.08493508  0.53384969  1  0  -0.091357  0  3.804952  0  0  -0.109228  0  4.062142  0  0  -0.11189  0  4.082763  0  0  -0.104562  -0.107426  0  4.047908  0
C  C81  1  0.27010394  0.91506555  0.46614992  1  0  -0.091369  0  3.804982  0  0  -0.109235  0  4.06216  0  0  -0.111897  0  4.082781  0  0  -0.10456  -0.107431  0  4.047925  0
C  C82  1  0.68711063  0.09839032  0.63152479  1  0  -0.115129  0  3.75115  0  0  -0.133086  0  3.999052  0  0  -0.133685  0  4.019308  0  0  -0.094637  -0.132377  0  3.984968  0
C  C83  1  0.31288970  0.90160933  0.36847429  1  0  -0.115193  0  3.751127  0  0  -0.133141  0  3.999039  0  0  -0.133739  0  4.019295  0  0  -0.094651  -0.132434  0  3.984961  0
C  C84  1  0.93098481  0.40037714  0.61341478  1  0  -0.133483  0  3.704735  0  0  -0.182135  0  3.945017  0  0  -0.179811  0  3.955663  0  0  -0.155211  -0.183923  0  3.938512  0
C  C85  1  0.06901463  0.59962251  0.38658587  1  0  -0.133467  0  3.704615  0  0  -0.182109  0  3.944922  0  0  -0.179781  0  3.955565  0  0  -0.155248  -0.1839  0  3.938411  0
C  C86  1  0.35901635  0.05444669  0.77603753  1  0  0.633671  0  3.931447  0  0  0.584531  0  4.221005  0  0  0.619732  0  4.214358  0  0  0.188719  0.56091  0  4.224338  0
C  C87  1  0.64098580  0.94555296  0.22396376  1  0  0.633695  0  3.931346  0  0  0.584551  0  4.22089  0  0  0.619753  0  4.214241  0  0  0.188686  0.560932  0  4.224223  0
C  C88  1  0.06094732  0.36264804  0.67199245  1  0  -0.070329  0  3.668875  0  0  -0.06141  0  3.922774  0  0  -0.067709  0  3.945643  0  0  -0.027884  -0.057187  0  3.907496  0
C  C89  1  0.93905245  0.63735065  0.32800770  1  0  -0.070363  0  3.668896  0  0  -0.061471  0  3.922787  0  0  -0.067773  0  3.945656  0  0  -0.027881  -0.057244  0  3.907508  0
C  C90  1  0.14940804  0.23678102  0.68954693  1  0  0.251216  0  3.83049  0  0  0.228866  0  4.104645  0  0  0.241773  0  4.12051  0  0  0.075641  0.220411  0  4.093576  0
C  C91  1  0.85059321  0.76321863  0.31045364  1  0  0.251325  0  3.830685  0  0  0.228989  0  4.104782  0  0  0.241895  0  4.120649  0  0  0.075692  0.220529  0  4.093716  0
C  C92  1  0.27403924  0.19351470  0.74462882  1  0  -0.214585  0  3.830156  0  0  -0.200459  0  4.086304  0  0  -0.213301  0  4.108061  0  0  -0.044327  -0.192151  0  4.071511  0
C  C93  1  0.72596110  0.80648496  0.25537179  1  0  -0.214767  0  3.830409  0  0  -0.200626  0  4.086525  0  0  -0.213468  0  4.108281  0  0  -0.044382  -0.192319  0  4.07174  0
C  C94  1  0.31026368  0.28001416  0.77651406  1  0  -0.08144  0  3.743817  0  0  -0.118715  0  4.004415  0  0  -0.11298  0  4.020394  0  0  -0.081696  -0.122548  0  3.994849  0
C  C95  1  0.68973756  0.71998550  0.22348575  1  0  -0.081442  0  3.743873  0  0  -0.118713  0  4.004466  0  0  -0.112975  0  4.020439  0  0  -0.081705  -0.122548  0  3.994913  0
C  C96  1  0.22530136  0.40870271  0.75881586  1  0  0.029179  0  3.815104  0  0  0.045317  0  4.0481  0  0  0.041319  0  4.073084  0  0  -0.019161  0.047963  0  4.030967  0
C  C97  1  0.77469864  0.59129792  0.24118371  1  0  0.029201  0  3.81516  0  0  0.045353  0  4.048111  0  0  0.041354  0  4.073095  0  0  -0.019148  0.047996  0  4.030988  0
C  C98  1  0.09739318  0.44999173  0.70859091  1  0  0.043245  0  3.745378  0  0  0.049205  0  3.981091  0  0  0.052916  0  4.003549  0  0  -0.004789  0.046841  0  3.96567  0
C  C99  1  0.90260681  0.55000891  0.29140790  1  0  0.043242  0  3.745415  0  0  0.049227  0  3.981083  0  0  0.052939  0  4.003543  0  0  -0.004809  0.046865  0  3.965662  0
C  C100  1  0.01235677  0.57778503  0.70018256  1  0  -0.126054  0  3.754226  0  0  -0.14754  0  4.009219  0  0  -0.150807  0  4.028027  0  0  -0.100679  -0.145365  0  3.996444  0
C  C101  1  0.98764391  0.42221365  0.29981755  1  0  -0.126117  0  3.75419  0  0  -0.147605  0  4.009167  0  0  -0.150871  0  4.027974  0  0  -0.100691  -0.145424  0  3.996387  0
C  C102  1  0.05132989  0.65942937  0.73620225  1  0  -0.061997  0  3.800952  0  0  -0.074464  0  4.054255  0  0  -0.074185  0  4.074495  0  0  -0.090853  -0.074502  0  4.040335  0
C  C103  1  0.94867044  0.34057029  0.26379683  1  0  -0.062043  0  3.800982  0  0  -0.074519  0  4.054298  0  0  -0.07424  0  4.074535  0  0  -0.09086  -0.074559  0  4.040379  0
C  C104  1  0.17806961  0.61947507  0.78258902  1  0  -0.094421  0  3.807361  0  0  -0.114655  0  4.068417  0  0  -0.118308  0  4.090415  0  0  -0.105067  -0.112204  0  4.053301  0
C  C105  1  0.82193072  0.38052459  0.21741082  1  0  -0.094404  0  3.807361  0  0  -0.114638  0  4.068425  0  0  -0.118292  0  4.090421  0  0  -0.105064  -0.112181  0  4.053305  0
C  C106  1  0.26276474  0.49575789  0.79390370  1  0  -0.098317  0  3.751552  0  0  -0.116657  0  4.001165  0  0  -0.117245  0  4.022629  0  0  -0.09307  -0.115932  0  3.986302  0
C  C107  1  0.73723526  0.50424274  0.20609587  1  0  -0.098284  0  3.751558  0  0  -0.116619  0  4.00116  0  0  -0.117208  0  4.022624  0  0  -0.09304  -0.115892  0  3.986303  0
C  C108  1  0.45478202  0.30669169  0.34679945  1  0  0.171833  0  3.659212  0  0  0.109869  0  3.922652  0  0  0.124003  0  3.93619  0  0  0.140293  0.100792  0  3.91308  0
C  C109  1  0.54521798  0.69330894  0.65320012  1  0  0.17179  0  3.659251  0  0  0.109817  0  3.922694  0  0  0.12395  0  3.936232  0  0  0.14026  0.10074  0  3.913113  0
C  C110  1  0.31757467  0.20774048  0.36082778  1  0  0.0099  0  3.767961  0  0  -0.022547  0  4.031603  0  0  -0.019652  0  4.051095  0  0  -0.00133  -0.024601  0  4.01856  0
C  C111  1  0.68242318  0.79226114  0.63917160  1  0  0.009978  0  3.768092  0  0  -0.022564  0  4.031699  0  0  -0.019669  0  4.05119  0  0  -0.001323  -0.024603  0  4.018636  0
C  C112  1  0.30530835  0.25150836  0.44802948  1  0  -0.070197  0  3.666664  0  0  -0.108644  0  3.922801  0  0  -0.107062  0  3.939754  0  0  -0.00112  -0.10972  0  3.911673  0
C  C113  1  0.69469041  0.74849325  0.55196986  1  0  -0.070263  0  3.666601  0  0  -0.108716  0  3.922763  0  0  -0.107133  0  3.939715  0  0  -0.001138  -0.109794  0  3.911633  0
C  C114  1  0.41184107  0.38076727  0.51005850  1  0  0.008574  0  3.619928  0  0  -0.054168  0  3.87782  0  0  -0.049545  0  3.890051  0  0  -0.050401  -0.057166  0  3.869614  0
C  C115  1  0.58815893  0.61923337  0.48994031  1  0  0.008594  0  3.619993  0  0  -0.054136  0  3.877878  0  0  -0.049507  0  3.890104  0  0  -0.050372  -0.057145  0  3.869692  0
C  C116  1  0.49388596  0.46381445  0.46241048  1  0  -0.128785  0  3.695481  0  0  -0.166925  0  3.951316  0  0  -0.168242  0  3.965276  0  0  -0.161985  -0.165884  0  3.941694  0
C  C117  1  0.50611494  0.53618618  0.53758906  1  0  -0.128834  0  3.695577  0  0  -0.166986  0  3.951429  0  0  -0.168299  0  3.965382  0  0  -0.162016  -0.165935  0  3.941788  0
C  C118  1  0.27935606  0.15047340  0.02637697  1  0  0.172622  0  3.650226  0  0  0.111506  0  3.915881  0  0  0.125003  0  3.930286  0  0  0.145423  0.102864  0  3.905562  0
C  C119  1  0.72064462  0.84952528  0.97362314  1  0  0.172666  0  3.650272  0  0  0.111547  0  3.915924  0  0  0.125045  0  3.930327  0  0  0.145472  0.102892  0  3.905615  0
C  C120  1  0.08345720  0.29515813  0.01790300  1  0  -0.054143  0  3.661062  0  0  -0.093985  0  3.917654  0  0  -0.092689  0  3.936586  0  0  0.004923  -0.094998  0  3.9051  0
C  C121  1  0.91654257  0.70484055  0.98209714  1  0  -0.054134  0  3.661101  0  0  -0.094021  0  3.917686  0  0  -0.092723  0  3.936618  0  0  0.004916  -0.095025  0  3.905125  0
C  C122  1  0.17141084  0.32910014  0.06085777  1  0  0.000964  0  3.769169  0  0  -0.031534  0  4.034338  0  0  -0.02981  0  4.056036  0  0  -0.003585  -0.032615  0  4.019582  0
C  C123  1  0.82858859  0.67089952  0.93914211  1  0  0.000963  0  3.769185  0  0  -0.031531  0  4.034367  0  0  -0.029808  0  4.056067  0  0  -0.003595  -0.032619  0  4.019606  0
C  C124  1  0.10351629  0.10738428  0.95049851  1  0  0.000817  0  3.627808  0  0  -0.059985  0  3.886584  0  0  -0.055829  0  3.898437  0  0  -0.051894  -0.062645  0  3.878604  0
C  C125  1  0.89648348  0.89261441  0.04950087  1  0  0.000871  0  3.62777  0  0  -0.059958  0  3.886614  0  0  -0.0558  0  3.898465  0  0  -0.051874  -0.06262  0  3.878643  0
C  C126  1  0.01952788  0.04227198  0.02526300  1  0  -0.121782  0  3.683688  0  0  -0.163096  0  3.946767  0  0  -0.164427  0  3.960268  0  0  -0.161965  -0.162012  0  3.937316  0
C  C127  1  0.98047279  0.95772670  0.97473634  1  0  -0.121896  0  3.683719  0  0  -0.163259  0  3.946859  0  0  -0.164591  0  3.960367  0  0  -0.162017  -0.162171  0  3.937405  0
N  N128  1  0.41094108  0.24260598  0.29859228  1  0  -0.40005  0  3.273343  0  0  -0.326063  0  3.560357  0  0  -0.348015  0  3.577399  0  0  -0.3673  -0.311066  0  3.548281  0
N  N129  1  0.58905802  0.75739466  0.70140734  1  0  -0.400052  0  3.273351  0  0  -0.326064  0  3.560396  0  0  -0.348017  0  3.577437  0  0  -0.367296  -0.311063  0  3.548306  0
N  N130  1  0.39251743  0.31481369  0.43742388  1  0  -0.060939  0  3.559798  0  0  0.034527  0  3.777608  0  0  0.019891  0  3.803694  0  0  -0.240985  0.044198  0  3.759876  0
N  N131  1  0.60748132  0.68518792  0.56257546  1  0  -0.060854  0  3.559774  0  0  0.03462  0  3.777564  0  0  0.019983  0  3.803646  0  0  -0.240949  0.04429  0  3.759843  0
N  N132  1  0.29324614  0.23829699  0.06536470  1  0  -0.408228  0  3.283551  0  0  -0.329784  0  3.57053  0  0  -0.35242  0  3.588467  0  0  -0.367418  -0.314224  0  3.557625  0
N  N133  1  0.70675419  0.76170266  0.93463514  1  0  -0.408222  0  3.283556  0  0  -0.329775  0  3.570534  0  0  -0.352412  0  3.588467  0  0  -0.367429  -0.314211  0  3.557624  0
N  N134  1  0.15357655  0.18174461  0.99681617  1  0  -0.060041  0  3.576093  0  0  0.034303  0  3.793772  0  0  0.019499  0  3.820972  0  0  -0.241371  0.044119  0  3.775257  0
N  N135  1  0.84642288  0.81825504  0.00318370  1  0  -0.060021  0  3.576079  0  0  0.034333  0  3.793773  0  0  0.019528  0  3.820973  0  0  -0.241376  0.044144  0  3.775268  0
O  O136  1  0.60179481  0.21113427  0.98015749  1  0  -0.614776  0  1.976782  0  0  -0.553936  0  2.228092  0  0  -0.580978  0  2.216534  0  0  -0.317765  -0.535096  0  2.235389  0
O  O137  1  0.39820553  0.78886538  0.01984312  1  0  -0.614732  0  1.976848  0  0  -0.553911  0  2.228131  0  0  -0.580952  0  2.216569  0  0  -0.31777  -0.53507  0  2.235424  0
O  O138  1  0.67261926  0.37899122  0.95312364  1  0  -0.6768  0  2.024691  0  0  -0.598413  0  2.228831  0  0  -0.624383  0  2.215256  0  0  -0.324599  -0.58051  0  2.237635  0
O  O139  1  0.32737927  0.62100844  0.04687627  1  0  -0.676658  0  2.024739  0  0  -0.598265  0  2.228838  0  0  -0.62426  0  2.215278  0  0  -0.32453  -0.580364  0  2.237642  0
O  O140  1  0.82483383  0.41995982  0.80589276  1  0  -0.508943  0  2.120701  0  0  -0.461548  0  2.348197  0  0  -0.481256  0  2.341203  0  0  -0.354939  -0.447368  0  2.352504  0
O  O141  1  0.17516617  0.58004081  0.19410758  1  0  -0.508973  0  2.120744  0  0  -0.461587  0  2.348256  0  0  -0.481296  0  2.34126  0  0  -0.354978  -0.447406  0  2.352563  0
O  O142  1  0.31882337  0.97356637  0.75210451  1  0  -0.64737  0  1.946539  0  0  -0.581489  0  2.165374  0  0  -0.60805  0  2.152945  0  0  -0.332535  -0.563063  0  2.173222  0
O  O143  1  0.68117969  0.02643327  0.24789675  1  0  -0.64735  0  1.946508  0  0  -0.581461  0  2.16534  0  0  -0.608022  0  2.152911  0  0  -0.332516  -0.563033  0  2.173186  0
O  O144  1  0.46657775  0.01611104  0.82966639  1  0  -0.626616  0  1.969738  0  0  -0.564142  0  2.214155  0  0  -0.592596  0  2.204549  0  0  -0.324865  -0.544003  0  2.219689  0
O  O145  1  0.53342136  0.98388958  0.17033705  1  0  -0.626645  0  1.969741  0  0  -0.564143  0  2.214116  0  0  -0.592605  0  2.204528  0  0  -0.324845  -0.543999  0  2.219651  0
O  O146  1  0.11550003  0.15394571  0.65430612  1  0  -0.511101  0  2.120264  0  0  -0.45722  0  2.332364  0  0  -0.477853  0  2.325285  0  0  -0.3497  -0.442401  0  2.33663  0
O  O147  1  0.88450155  0.84605297  0.34569395  1  0  -0.511101  0  2.120334  0  0  -0.457213  0  2.332462  0  0  -0.477847  0  2.325382  0  0  -0.349687  -0.442395  0  2.336728  0
O  O148  1  0.53909950  0.39105772  0.12329934  1  0  -0.82878  0  1.912394  0  0  -0.76037  0  2.112234  0  0  -0.783717  0  2.078398  0  0  -0.584629  -0.743931  0  2.135532  0
O  O149  1  0.46090083  0.60894194  0.87670050  1  0  -0.828817  0  1.912363  0  0  -0.760398  0  2.11221  0  0  -0.783749  0  2.078368  0  0  -0.584635  -0.74396  0  2.135509  0
