# generated using pymatgen
data_CuH13C23(NO2)2
_symmetry_space_group_name_H-M   'P 1'
_cell_length_a   11.87626466
_cell_length_b   11.87623401
_cell_length_c   16.63990539
_cell_angle_alpha   73.12079248
_cell_angle_beta   73.12087921
_cell_angle_gamma   80.23459637
_symmetry_Int_Tables_number   1
_chemical_formula_structural   CuH13C23(NO2)2
_chemical_formula_sum   'Cu4 H52 C92 N8 O16'
_cell_volume   2139.77008480
_cell_formula_units_Z   4
loop_
 _symmetry_equiv_pos_site_id
 _symmetry_equiv_pos_as_xyz
  1  'x, y, z'
loop_
 _atom_site_type_symbol
 _atom_site_label
 _atom_site_symmetry_multiplicity
 _atom_site_fract_x
 _atom_site_fract_y
 _atom_site_fract_z
 _atom_site_occupancy
 _atom_site_pbe_bader_charge
 _atom_site_pbe_bader_spin_density
 _atom_site_pbe_cm5_charge
 _atom_site_pbe_ddec_charge
 _atom_site_pbe_ddec_spin_density
 _atom_site_pbe_ddec_sum_bond_order
 _atom_site_pbe_magmom
Cu  Cu0  1  0.60553729  0.81360048  0.53048675  1  1.099624  0.577239  0.742485  0.815967  0.749823  2.218136  0.575
Cu  Cu1  1  0.18639894  0.39445588  0.96951409  1  1.099684  0.577093  0.742413  0.815782  0.749666  2.218355  0.575
Cu  Cu2  1  0.39446376  0.18640017  0.46951293  1  1.099627  -0.577076  0.742474  0.815949  -0.794814  2.218181  -0.575
Cu  Cu3  1  0.81360388  0.60554373  0.03048604  1  1.099673  0.577162  0.742426  0.815781  0.749753  2.218428  0.575
H  H4  1  0.47931246  0.79053322  0.22751080  1  0.09881  -4.9e-05  0.099521  0.104492  -2.2e-05  1.013495  0.0
H  H5  1  0.20946622  0.52068876  0.27248905  1  0.098813  6.5e-05  0.099518  0.104504  3.4e-05  1.013487  0.0
H  H6  1  0.52068242  0.20946448  0.77249014  1  0.098671  7.6e-05  0.099542  0.104545  1.2e-05  1.013557  0.0
H  H7  1  0.79053484  0.47931102  0.72751020  1  0.098914  5.9e-05  0.099529  0.104508  1e-06  1.013538  0.0
H  H8  1  0.42003355  0.91683704  0.33406189  1  0.072994  0.000158  0.104704  0.111095  0.000103  0.983524  0.0
H  H9  1  0.08316397  0.57996376  0.16593839  1  0.073034  -0.000165  0.104738  0.111162  -0.000113  0.983453  0.0
H  H10  1  0.57996132  0.08316153  0.66594007  1  0.072967  0.000323  0.104744  0.11116  0.000149  0.983474  0.0
H  H11  1  0.91683887  0.42003147  0.83406083  1  0.073023  0.000264  0.104698  0.111117  0.000109  0.983465  0.0
H  H12  1  0.82870093  0.90174946  0.14378537  1  0.095294  0.000462  0.103499  0.113313  0.000431  1.006016  0.0
H  H13  1  0.09825072  0.17129770  0.35621792  1  0.095275  -0.000462  0.10348  0.113313  -0.000458  1.005977  0.0
H  H14  1  0.17129395  0.09825088  0.85621503  1  0.095229  0.00069  0.103516  0.113378  0.000524  1.005929  0.0
H  H15  1  0.90174945  0.82870127  0.64378348  1  0.095311  0.000686  0.103496  0.113351  0.000523  1.005913  0.0
H  H16  1  0.66212680  0.20391904  0.24766113  1  0.061544  4.4e-05  0.100572  0.099062  7e-06  1.029462  0.0
H  H17  1  0.79608446  0.33787356  0.25234006  1  0.061523  -1.8e-05  0.100582  0.099041  1.3e-05  1.02942  0.0
H  H18  1  0.33786982  0.79608465  0.75233943  1  0.061638  -2.1e-05  0.100595  0.099086  -1e-06  1.029397  0.0
H  H19  1  0.20391480  0.66212724  0.74766235  1  0.061589  -5.6e-05  0.100587  0.099051  -2.8e-05  1.029418  0.0
H  H20  1  0.94260828  0.92227428  0.24754142  1  0.052128  2.3e-05  0.098128  0.095704  4e-06  1.013575  0.0
H  H21  1  0.07772374  0.05738735  0.25245994  1  0.052106  1.4e-05  0.098149  0.095748  2.1e-05  1.013584  0.0
H  H22  1  0.05738572  0.07772704  0.75245716  1  0.05205  -8e-06  0.098117  0.09571  -2.3e-05  1.013581  0.0
H  H23  1  0.92227202  0.94261203  0.74753987  1  0.05211  2.4e-05  0.098121  0.095687  1e-06  1.013594  0.0
H  H24  1  0.86459997  0.77461093  0.42854345  1  0.110302  0.002862  0.125636  0.100328  0.001355  0.976256  0.002
H  H25  1  0.22539071  0.13540106  0.07145789  1  0.110264  0.002859  0.125616  0.100262  0.001352  0.976209  0.002
H  H26  1  0.13540020  0.22539157  0.57145482  1  0.110219  -0.002849  0.125637  0.100361  -0.001431  0.976255  -0.002
H  H27  1  0.77461387  0.86460014  0.92854216  1  0.11029  0.002865  0.125626  0.100299  0.001357  0.976274  0.002
H  H28  1  0.96688087  0.65837563  0.31741160  1  0.063763  0.001318  0.107402  0.112046  0.000672  1.003799  0.001
H  H29  1  0.34162128  0.03312180  0.18259284  1  0.063881  0.001297  0.107394  0.112065  0.000662  1.00374  0.001
H  H30  1  0.03311754  0.34162439  0.68258755  1  0.063744  -0.001298  0.107391  0.11203  -0.0007  1.003762  -0.001
H  H31  1  0.65838242  0.96687948  0.81740738  1  0.063833  0.001317  0.107384  0.112031  0.000668  1.003737  0.001
H  H32  1  0.84539383  0.55214567  0.26787083  1  0.124504  0.000275  0.108024  0.116108  0.000294  1.03826  0.0
H  H33  1  0.44784970  0.15461302  0.23213306  1  0.124349  -0.000108  0.108018  0.116118  -0.000234  1.038305  0.0
H  H34  1  0.15460544  0.44785337  0.73213194  1  0.124411  0.000103  0.108023  0.116083  0.000218  1.038312  0.0
H  H35  1  0.55215133  0.84539026  0.76786909  1  0.124447  0.000272  0.108035  0.11611  0.000288  1.038299  0.0
H  H36  1  0.32137366  0.83225142  0.58128400  1  0.165931  0.002516  0.120049  0.102701  0.001206  1.032135  0.002
H  H37  1  0.16775095  0.67863217  0.91871479  1  0.165991  0.002507  0.120044  0.102704  0.001235  1.032059  0.002
H  H38  1  0.67862562  0.16774409  0.41872070  1  0.166078  -0.002517  0.1201  0.102704  -0.001284  1.032072  -0.002
H  H39  1  0.83225364  0.32136905  0.08128285  1  0.165979  0.00251  0.120081  0.102747  0.00124  1.03204  0.002
H  H40  1  0.17656078  0.72578040  0.55480006  1  0.06069  0.001084  0.110638  0.118956  0.000556  0.992534  0.001
H  H41  1  0.27422289  0.82344913  0.94519770  1  0.060529  0.001076  0.110611  0.11893  0.000547  0.992527  0.001
H  H42  1  0.82344115  0.27421400  0.44520252  1  0.060665  -0.001083  0.110611  0.118912  -0.000589  0.992485  -0.001
H  H43  1  0.72578170  0.17655473  0.05479940  1  0.06057  0.001075  0.110629  0.118923  0.00055  0.992564  0.001
H  H44  1  0.25087439  0.58961849  0.45497832  1  0.066875  4.1e-05  0.115941  0.123241  2.6e-05  0.97012  0.0
H  H45  1  0.41038369  0.74912997  0.04502032  1  0.066775  8e-06  0.115907  0.123203  8e-06  0.970086  0.0
H  H46  1  0.74912578  0.41038048  0.54502248  1  0.066855  -4e-05  0.115903  0.123151  -3.1e-05  0.970204  0.0
H  H47  1  0.58962001  0.25087220  0.95497911  1  0.066845  9e-06  0.115933  0.123221  7e-06  0.970139  0.0
H  H48  1  0.42631074  0.50267662  0.35480603  1  0.162744  0.000431  0.110484  0.141169  0.000178  1.043246  0.0
H  H49  1  0.49732282  0.57369324  0.14519452  1  0.163012  0.000498  0.11049  0.141151  0.000306  1.043214  0.0
H  H50  1  0.57368855  0.49732508  0.64519319  1  0.162678  -0.000426  0.110494  0.141221  -0.000186  1.043169  0.0
H  H51  1  0.50267734  0.42630924  0.85480617  1  0.162696  0.000498  0.110494  0.141203  0.000305  1.04317  0.0
H  H52  1  0.64159783  0.49186195  0.28480427  1  0.095071  0.000665  0.110425  0.119785  0.000338  0.982917  0.0
H  H53  1  0.50813269  0.35840631  0.21519788  1  0.094997  0.000704  0.110381  0.119744  0.000367  0.982993  0.0
H  H54  1  0.35840234  0.50813702  0.71519653  1  0.095073  -0.000694  0.110424  0.119806  -0.000384  0.98294  0.0
H  H55  1  0.49186481  0.64159641  0.78480330  1  0.095008  0.000663  0.1104  0.11979  0.000331  0.982916  0.0
C  C56  1  0.69260620  0.75174538  0.12515210  1  1.573252  -0.002052  0.187852  0.549506  -0.000546  4.239862  -0.004
C  C57  1  0.24825275  0.30739362  0.37485016  1  1.573161  0.00205  0.187805  0.549396  0.000205  4.240098  0.004
C  C58  1  0.30739132  0.24825119  0.87484972  1  1.572989  -0.001812  0.187915  0.549499  -0.000387  4.239866  -0.004
C  C59  1  0.75174831  0.69260440  0.62514945  1  1.573146  -0.001837  0.187831  0.549458  -0.00041  4.240104  -0.004
C  C60  1  0.65761328  0.83750571  0.18102426  1  -0.028912  0.005838  -0.023278  -0.027775  0.004187  3.992922  0.005
C  C61  1  0.16249528  0.34238469  0.31897537  1  -0.028921  -0.00588  -0.023277  -0.027726  -0.004539  3.99299  -0.005
C  C62  1  0.34238512  0.16249077  0.81897801  1  -0.028701  0.012976  -0.023255  -0.027572  0.008873  3.992746  0.01
C  C63  1  0.83750757  0.65761231  0.68102168  1  -0.028937  0.012886  -0.023321  -0.027773  0.008815  3.99293  0.009
C  C64  1  0.54143355  0.84423825  0.23271211  1  -0.06744  0.001275  -0.092009  -0.108681  0.000809  4.010704  0.001
C  C65  1  0.15576302  0.45856510  0.26728669  1  -0.067371  -0.001175  -0.091986  -0.108693  -0.000796  4.010808  -0.001
C  C66  1  0.45856221  0.15576202  0.76728752  1  -0.06718  2e-06  -0.092038  -0.10883  1e-05  4.010956  0.0
C  C67  1  0.84423716  0.54143301  0.73271188  1  -0.067514  -6.3e-05  -0.09201  -0.108693  -5.3e-05  4.01069  0.0
C  C68  1  0.50944064  0.91356405  0.29180303  1  -0.009587  -0.00209  -0.09308  -0.11197  -0.001431  4.008649  -0.001
C  C69  1  0.08643854  0.49055624  0.20819643  1  -0.009638  0.001971  -0.093141  -0.112065  0.001243  4.008815  0.001
C  C70  1  0.49055334  0.08643813  0.70819718  1  -0.009524  0.003746  -0.093118  -0.112004  0.002452  4.008748  0.002
C  C71  1  0.91356252  0.50944178  0.79180257  1  -0.009645  0.003472  -0.093048  -0.111972  0.002223  4.008657  0.002
C  C72  1  0.59310845  0.97631018  0.30056198  1  -0.091397  -0.008619  -0.011238  -0.06299  -0.006407  3.919792  -0.007
C  C73  1  0.02369323  0.40689036  0.19943573  1  -0.091384  0.008528  -0.011217  -0.062995  0.005986  3.919814  0.007
C  C74  1  0.40688644  0.02369194  0.69943565  1  -0.092133  0.007578  -0.01124  -0.062969  0.005319  3.919617  0.006
C  C75  1  0.97630695  0.59310774  0.80056404  1  -0.09134  0.007451  -0.011242  -0.063022  0.005248  3.919743  0.006
C  C76  1  0.70862369  0.97594247  0.24517435  1  0.009175  -0.00323  -0.007012  0.038756  -0.002231  3.989351  -0.002
C  C77  1  0.02406148  0.29137375  0.25482595  1  0.009016  0.00313  -0.006996  0.038787  0.00205  3.989354  0.002
C  C78  1  0.29137118  0.02405964  0.75482448  1  0.009275  0.003519  -0.006979  0.038905  0.002189  3.989021  0.002
C  C79  1  0.97593868  0.70862610  0.74517467  1  0.009264  0.003374  -0.006956  0.038826  0.002112  3.989353  0.002
C  C80  1  0.73957435  0.90520074  0.18634441  1  -0.074968  0.000363  -0.085795  -0.147678  0.000305  3.952521  0.0
C  C81  1  0.09480191  0.26042401  0.31365541  1  -0.075046  -0.000338  -0.085785  -0.147701  -0.000352  3.952616  0.0
C  C82  1  0.26042229  0.09480032  0.81365609  1  -0.075007  -0.000337  -0.085823  -0.147931  -9e-05  3.952434  0.0
C  C83  1  0.90519915  0.73957313  0.68634438  1  -0.075018  -0.000383  -0.085808  -0.14777  -0.000131  3.952513  0.0
C  C84  1  0.79248076  0.05311395  0.24750628  1  -0.043127  0.00062  -0.00871  0.070653  0.000404  4.00528  0.0
C  C85  1  0.94688550  0.20751816  0.25249491  1  -0.042823  -0.000672  -0.008701  0.070627  -0.000464  4.00521  0.0
C  C86  1  0.20751588  0.94688711  0.75249301  1  -0.043162  0.000607  -0.008682  0.070722  0.000362  4.005075  0.0
C  C87  1  0.05311202  0.79248106  0.74750578  1  -0.043109  0.00061  -0.008719  0.070627  0.00037  4.00529  0.0
C  C88  1  0.75329879  0.17117126  0.24876160  1  -0.061185  -0.000158  -0.092094  -0.130097  -6.8e-05  3.996061  0.0
C  C89  1  0.82883043  0.24670262  0.25124038  1  -0.009129  0.000174  -0.091979  -0.129803  7.6e-05  3.995863  0.0
C  C90  1  0.24669784  0.82883067  0.75123871  1  -0.061192  0.000221  -0.092177  -0.130175  0.00013  3.995994  0.0
C  C91  1  0.17116797  0.75329915  0.74876021  1  -0.009194  0.000172  -0.091961  -0.129811  0.000101  3.995823  0.0
C  C92  1  0.91059400  0.01376823  0.24834489  1  -0.006918  -0.000664  -0.090206  -0.120942  -0.000472  3.978684  0.0
C  C93  1  0.98623069  0.08940222  0.25165639  1  -0.05751  0.000684  -0.090192  -0.120977  0.000462  3.978626  0.0
C  C94  1  0.08940088  0.98623212  0.75165430  1  -0.057634  0.000531  -0.090229  -0.121046  0.000336  3.978622  0.0
C  C95  1  0.01376596  0.91059709  0.74834326  1  -0.006803  0.000459  -0.090131  -0.120877  0.000291  3.978615  0.0
C  C96  1  0.56165885  0.03446390  0.37462837  1  1.598613  -0.000771  0.206623  0.576187  -0.002094  4.226038  0.001
C  C97  1  0.96553813  0.43833868  0.12536951  1  1.598654  -0.000441  0.206651  0.576373  0.000926  4.226021  -0.001
C  C98  1  0.43833603  0.96553734  0.62536944  1  1.599303  0.000754  0.206589  0.576162  0.001834  4.226408  -0.001
C  C99  1  0.03446382  0.56166014  0.87462915  1  1.598461  -0.000451  0.206707  0.576443  0.000931  4.225849  -0.001
C  C100  1  0.81593202  0.72562005  0.40564683  1  0.507413  -0.002218  0.063162  0.11237  -0.000735  3.923398  -0.002
C  C101  1  0.27438276  0.18407033  0.09435280  1  0.507496  -0.002349  0.063213  0.112463  -0.000824  3.923351  -0.002
C  C102  1  0.18406815  0.27438070  0.59435180  1  0.507686  0.00227  0.063161  0.112352  0.000464  3.923362  0.002
C  C103  1  0.72562271  0.81593080  0.90564588  1  0.507258  -0.002293  0.063195  0.112433  -0.000788  3.923444  -0.002
C  C104  1  0.87145769  0.66047997  0.34410712  1  -0.02219  0.006331  -0.083853  -0.133462  0.004356  3.982325  0.005
C  C105  1  0.33952160  0.12854514  0.15589390  1  -0.022139  0.006317  -0.083825  -0.133451  0.004355  3.982222  0.005
C  C106  1  0.12854336  0.33952156  0.65589177  1  -0.022132  -0.006279  -0.083847  -0.133473  -0.004594  3.982153  -0.005
C  C107  1  0.66048386  0.87145598  0.84410599  1  -0.021861  0.006365  -0.083813  -0.133395  0.004374  3.982184  0.005
C  C108  1  0.80477063  0.59987862  0.31771488  1  0.028378  -0.003912  -0.057264  -0.058591  -0.002811  3.884543  -0.002
C  C109  1  0.40012150  0.19523156  0.18228717  1  0.02846  -0.004511  -0.057313  -0.058665  -0.003159  3.884607  -0.003
C  C110  1  0.19522865  0.40012042  0.68228669  1  0.028433  0.004418  -0.057264  -0.058533  0.002928  3.884463  0.003
C  C111  1  0.59988307  0.80476965  0.81771288  1  0.028273  -0.003999  -0.057301  -0.058596  -0.002868  3.884562  -0.002
C  C112  1  0.68147532  0.60309291  0.35418744  1  -0.017571  0.003866  0.003313  0.049423  0.002786  4.000702  0.003
C  C113  1  0.39691133  0.31852700  0.14581130  1  -0.017817  0.003846  0.00331  0.049396  0.002783  4.000552  0.003
C  C114  1  0.31852396  0.39690791  0.64581316  1  -0.017685  -0.00385  0.003317  0.049386  -0.002961  4.000625  -0.003
C  C115  1  0.60309414  0.68147326  0.85418695  1  -0.017648  0.003856  0.003352  0.049357  0.002775  4.000681  0.003
C  C116  1  0.63285866  0.67137649  0.41531339  1  0.480112  0.000882  0.118731  0.119495  0.001246  3.985009  0.001
C  C117  1  0.32862613  0.36714606  0.08468336  1  0.480213  0.000789  0.118714  0.119575  0.001179  3.984749  0.001
C  C118  1  0.36714062  0.32862167  0.58468835  1  0.480138  -0.000839  0.11877  0.119591  -0.001468  3.984923  -0.001
C  C119  1  0.67137934  0.63285596  0.91531393  1  0.480112  0.000831  0.11869  0.11954  0.001203  3.984956  0.001
C  C120  1  0.50817171  0.68248004  0.45279892  1  0.494413  0.00093  0.114936  0.113913  0.001131  4.006176  0.001
C  C121  1  0.31752190  0.49183471  0.04719759  1  0.494851  0.000986  0.114965  0.113923  0.001175  4.006208  0.001
C  C122  1  0.49182934  0.31751709  0.54720268  1  0.494421  -0.00095  0.114918  0.113878  -0.001357  4.006184  -0.001
C  C123  1  0.68248358  0.50816819  0.95279892  1  0.494569  0.000962  0.114979  0.11391  0.00116  4.006229  0.001
C  C124  1  0.35109444  0.77000078  0.54099227  1  0.513867  -0.002671  0.060261  0.119138  -0.001198  3.902923  -0.002
C  C125  1  0.23000164  0.64890927  0.95900696  1  0.513939  -0.002616  0.060267  0.119139  -0.001158  3.902806  -0.002
C  C126  1  0.64890573  0.22999554  0.45901027  1  0.513741  0.002651  0.060234  0.119179  0.000919  3.902836  0.002
C  C127  1  0.77000295  0.35109018  0.04099164  1  0.513882  -0.002627  0.060177  0.119013  -0.001163  3.902754  -0.002
C  C128  1  0.27038336  0.71139456  0.52393228  1  -0.024465  0.005023  -0.08179  -0.129469  0.003403  3.976556  0.004
C  C129  1  0.28860891  0.72962240  0.97606692  1  -0.024192  0.00506  -0.081802  -0.12942  0.003421  3.976404  0.004
C  C130  1  0.72961414  0.28860199  0.47607196  1  -0.024406  -0.005012  -0.081734  -0.129399  -0.003602  3.9765  -0.004
C  C131  1  0.71139479  0.27037977  0.02393191  1  -0.024446  0.005073  -0.081765  -0.129378  0.003429  3.976476  0.004
C  C132  1  0.31105211  0.63691180  0.46909342  1  0.007214  -0.004018  -0.060149  -0.075014  -0.002829  3.92314  -0.002
C  C133  1  0.36309134  0.68895243  0.03090619  1  0.006916  -0.003987  -0.060105  -0.075032  -0.002816  3.923009  -0.002
C  C134  1  0.68894628  0.36308733  0.53090891  1  0.007244  0.004003  -0.060133  -0.074945  0.002662  3.923347  0.002
C  C135  1  0.63691235  0.31104974  0.96909263  1  0.007187  -0.004004  -0.060168  -0.075064  -0.002828  3.923172  -0.002
C  C136  1  0.43354954  0.62175892  0.43046950  1  -0.020083  0.002883  0.000365  0.04966  0.002072  3.99949  0.002
C  C137  1  0.37824119  0.56645478  0.06952901  1  -0.020388  0.002975  0.000438  0.049792  0.002127  3.999444  0.002
C  C138  1  0.56645062  0.37824005  0.56953190  1  -0.02009  -0.00288  0.000396  0.049721  -0.002198  3.999591  -0.002
C  C139  1  0.62176074  0.43354667  0.93046972  1  -0.020073  0.002982  0.000435  0.04982  0.002135  3.99938  0.002
C  C140  1  0.48477789  0.55064037  0.37006334  1  -0.062824  0.000818  -0.081487  -0.123394  0.00058  3.924065  0.001
C  C141  1  0.44935898  0.51522664  0.12993592  1  -0.063226  0.001205  -0.08161  -0.123528  0.0008  3.924074  0.001
C  C142  1  0.51522051  0.44935964  0.62993761  1  -0.062811  -0.00092  -0.08152  -0.12352  -0.000685  3.924119  -0.001
C  C143  1  0.55064295  0.48477570  0.87006324  1  -0.062876  0.001097  -0.08159  -0.123582  0.000727  3.924114  0.001
C  C144  1  0.60379269  0.54293130  0.33279179  1  -0.026731  0.001071  -0.075448  -0.099139  0.00075  3.948329  0.001
C  C145  1  0.45706749  0.39621170  0.16720944  1  -0.026458  0.001083  -0.075373  -0.09907  0.000739  3.94827  0.001
C  C146  1  0.39620924  0.45706839  0.66720850  1  -0.026605  -0.001055  -0.07544  -0.09913  -0.000782  3.948349  -0.001
C  C147  1  0.54293355  0.60378895  0.83279144  1  -0.026558  0.001099  -0.075425  -0.099109  0.000748  3.948387  0.001
N  N148  1  0.46728757  0.75481208  0.50724476  1  -1.211014  0.071902  -0.329624  -0.277164  0.048752  3.582852  0.063
N  N149  1  0.24518974  0.53271685  0.99275449  1  -1.21118  0.071869  -0.329587  -0.27716  0.048731  3.582921  0.063
N  N150  1  0.53271082  0.24518615  0.49275896  1  -1.211033  -0.071875  -0.329632  -0.277184  -0.051724  3.582823  -0.063
N  N151  1  0.75481574  0.46728430  0.00724238  1  -1.211181  0.071916  -0.329552  -0.277041  0.048765  3.582786  0.063
N  N152  1  0.69963045  0.73098907  0.43966377  1  -1.20745  0.090323  -0.335553  -0.248396  0.060816  3.624304  0.078
N  N153  1  0.26901387  0.30037235  0.06033391  1  -1.207462  0.0904  -0.335549  -0.248393  0.060864  3.62428  0.078
N  N154  1  0.30037059  0.26900893  0.56033825  1  -1.207643  -0.090303  -0.335583  -0.248461  -0.064484  3.624307  -0.077
N  N155  1  0.73099071  0.69962797  0.93966572  1  -1.207456  0.090403  -0.335596  -0.248482  0.060864  3.62436  0.078
O  O156  1  0.61594253  0.99646532  0.43294518  1  -1.177904  -0.001061  -0.316132  -0.567022  -0.000327  2.293673  0.001
O  O157  1  0.00354142  0.38405288  0.06705314  1  -1.177942  0.002364  -0.316118  -0.567074  0.001409  2.293686  0.003
O  O158  1  0.38405234  0.00353679  0.56705365  1  -1.177997  0.000982  -0.316087  -0.567003  0.000103  2.293835  -0.001
O  O159  1  0.99646583  0.61594635  0.93294376  1  -1.17783  0.002227  -0.316145  -0.567059  0.001322  2.293614  0.003
O  O160  1  0.47898844  0.12007318  0.37074892  1  -1.100365  -0.089111  -0.326047  -0.537793  -0.061724  2.356967  -0.081
O  O161  1  0.87992629  0.52100468  0.12924974  1  -1.10051  0.089933  -0.326082  -0.537877  0.058743  2.357089  0.081
O  O162  1  0.52100644  0.87992805  0.62924949  1  -1.100333  0.089234  -0.326098  -0.537859  0.058243  2.357177  0.081
O  O163  1  0.12007833  0.47899479  0.87074584  1  -1.10045  0.089884  -0.32607  -0.537904  0.058704  2.356897  0.081
O  O164  1  0.79906720  0.75085767  0.07549203  1  -1.101126  0.119902  -0.329447  -0.527609  0.077437  2.218372  0.107
O  O165  1  0.24914315  0.20093342  0.42450955  1  -1.101313  -0.119823  -0.329414  -0.527581  -0.082095  2.218493  -0.107
O  O166  1  0.20092944  0.24914603  0.92450672  1  -1.101177  0.120652  -0.32946  -0.52758  0.077903  2.21832  0.108
O  O167  1  0.75085170  0.79906778  0.57549428  1  -1.101216  0.120555  -0.329462  -0.527619  0.077827  2.218476  0.108
O  O168  1  0.61901748  0.68326763  0.13098996  1  -1.188127  0.000991  -0.332595  -0.585922  0.000235  2.211922  0.002
O  O169  1  0.31672928  0.38098516  0.36901258  1  -1.187885  -0.000847  -0.332604  -0.58595  -0.000327  2.211958  -0.002
O  O170  1  0.38098005  0.31673072  0.86900910  1  -1.188019  0.001965  -0.332665  -0.586009  0.000854  2.212088  0.003
O  O171  1  0.68327267  0.61901190  0.63098705  1  -1.187894  0.001853  -0.332583  -0.585962  0.000781  2.212014  0.003
