# generated using pymatgen
data_HgH14C13N4Cl2O
_symmetry_space_group_name_H-M   'P 1'
_cell_length_a   4.44512562
_cell_length_b   14.41445206
_cell_length_c   15.13380629
_cell_angle_alpha   106.26909469
_cell_angle_beta   90.00005301
_cell_angle_gamma   89.99993424
_symmetry_Int_Tables_number   1
_chemical_formula_structural   HgH14C13N4Cl2O
_chemical_formula_sum   'Hg2 H28 C26 N8 Cl4 O2'
_cell_volume   930.85475464
_cell_formula_units_Z   2
loop_
 _symmetry_equiv_pos_site_id
 _symmetry_equiv_pos_as_xyz
  1  'x, y, z'
loop_
 _atom_site_type_symbol
 _atom_site_label
 _atom_site_symmetry_multiplicity
 _atom_site_fract_x
 _atom_site_fract_y
 _atom_site_fract_z
 _atom_site_occupancy
 _atom_site_hle17_bader_spin_density
 _atom_site_hle17_ddec_charge
 _atom_site_hle17_ddec_spin_density
 _atom_site_hle17_ddec_sum_bond_order
 _atom_site_hle17_magmom
 _atom_site_hse06_10hf_bader_spin_density
 _atom_site_hse06_10hf_ddec_charge
 _atom_site_hse06_10hf_ddec_spin_density
 _atom_site_hse06_10hf_ddec_sum_bond_order
 _atom_site_hse06_10hf_magmom
 _atom_site_hse06_bader_spin_density
 _atom_site_hse06_ddec_charge
 _atom_site_hse06_ddec_spin_density
 _atom_site_hse06_ddec_sum_bond_order
 _atom_site_hse06_magmom
 _atom_site_pbe_bader_spin_density
 _atom_site_pbe_cm5_charge
 _atom_site_pbe_ddec_charge
 _atom_site_pbe_ddec_spin_density
 _atom_site_pbe_ddec_sum_bond_order
 _atom_site_pbe_magmom
Hg  Hg0  1  0.30026816  0.25000009  0.24999999  1  0  0.777059  0  2.009946  0  0  0.599235  0  2.500428  0  0  0.650028  0  2.468107  0  0  0.551794  0.564442  0  2.521833  0
Hg  Hg1  1  0.69973478  0.75000030  0.74999996  1  0  0.777044  0  2.00995  0  0  0.599231  0  2.500432  0  0  0.65002  0  2.46811  0  0  0.551807  0.564437  0  2.521845  0
H  H2  1  0.94097484  0.16015300  0.38760251  1  0  0.087563  0  0.965926  0  0  0.09647  0  1.029283  0  0  0.099243  0  1.025987  0  0  0.10479  0.094364  0  1.031701  0
H  H3  1  0.94097408  0.33984699  0.11239694  1  0  0.087541  0  0.96592  0  0  0.096445  0  1.029285  0  0  0.099218  0  1.02599  0  0  0.104779  0.094341  0  1.031706  0
H  H4  1  0.05902810  0.83984667  0.61239725  1  0  0.087548  0  0.965937  0  0  0.096438  0  1.029306  0  0  0.099211  0  1.026011  0  0  0.104775  0.094333  0  1.031725  0
H  H5  1  0.05902661  0.66015413  0.88760123  1  0  0.087523  0  0.965967  0  0  0.096409  0  1.029343  0  0  0.099182  0  1.026049  0  0  0.104756  0.094305  0  1.031763  0
H  H6  1  0.77298201  0.20672463  0.55244482  1  0  0.116459  0  0.933999  0  0  0.128234  0  0.986351  0  0  0.131472  0  0.985912  0  0  0.112447  0.125898  0  0.98684  0
H  H7  1  0.77297796  0.29327583  0.94755594  1  0  0.116492  0  0.934066  0  0  0.128267  0  0.986413  0  0  0.131505  0  0.985975  0  0  0.112465  0.125933  0  0.986905  0
H  H8  1  0.22701868  0.79327504  0.44755494  1  0  0.11644  0  0.934049  0  0  0.128212  0  0.986405  0  0  0.131451  0  0.985965  0  0  0.112444  0.125877  0  0.986894  0
H  H9  1  0.22702498  0.70672528  0.05244355  1  0  0.116461  0  0.93403  0  0  0.128236  0  0.986383  0  0  0.131474  0  0.985944  0  0  0.112449  0.125903  0  0.986874  0
H  H10  1  0.21020331  0.48170544  0.58719635  1  0  0.110217  0  0.99174  0  0  0.118675  0  1.05762  0  0  0.121917  0  1.056769  0  0  0.092886  0.116194  0  1.058576  0
H  H11  1  0.21020242  0.01829590  0.91280516  1  0  0.110247  0  0.991753  0  0  0.11872  0  1.05759  0  0  0.121964  0  1.056737  0  0  0.092903  0.116239  0  1.058547  0
H  H12  1  0.78979963  0.51829422  0.41280407  1  0  0.110213  0  0.99175  0  0  0.118675  0  1.057609  0  0  0.121922  0  1.056751  0  0  0.09289  0.116192  0  1.058568  0
H  H13  1  0.78979602  0.98170520  0.08719632  1  0  0.110192  0  0.991758  0  0  0.118647  0  1.057637  0  0  0.121898  0  1.056775  0  0  0.09288  0.116164  0  1.058591  0
H  H14  1  0.36460824  0.42310115  0.42013935  1  0  0.078327  0  0.968506  0  0  0.087071  0  1.034944  0  0  0.089216  0  1.032936  0  0  0.104109  0.085427  0  1.036477  0
H  H15  1  0.36459710  0.07689828  0.07986177  1  0  0.078359  0  0.968495  0  0  0.087153  0  1.034877  0  0  0.089314  0  1.032847  0  0  0.1041  0.08546  0  1.036461  0
H  H16  1  0.63539695  0.57689851  0.57986107  1  0  0.078334  0  0.968524  0  0  0.087109  0  1.034927  0  0  0.089256  0  1.032915  0  0  0.104109  0.085443  0  1.036482  0
H  H17  1  0.63539234  0.92310210  0.92013950  1  0  0.078322  0  0.968553  0  0  0.087076  0  1.034978  0  0  0.089222  0  1.03297  0  0  0.104111  0.085432  0  1.036511  0
H  H18  1  0.06588826  0.41698839  0.72523785  1  0  0.086537  0  0.918763  0  0  0.103271  0  0.977443  0  0  0.104466  0  0.976109  0  0  0.108448  0.102326  0  0.978527  0
H  H19  1  0.06589345  0.08301156  0.77476258  1  0  0.086511  0  0.918802  0  0  0.103255  0  0.977474  0  0  0.104462  0  0.97615  0  0  0.108451  0.10231  0  0.978556  0
H  H20  1  0.93411018  0.58301128  0.27476125  1  0  0.086494  0  0.918767  0  0  0.103226  0  0.977446  0  0  0.104429  0  0.976117  0  0  0.108431  0.102282  0  0.97853  0
H  H21  1  0.93410724  0.91698810  0.22523784  1  0  0.086522  0  0.918776  0  0  0.103265  0  0.977443  0  0  0.104478  0  0.976122  0  0  0.108442  0.102319  0  0.978525  0
H  H22  1  0.71377085  0.44558864  0.68828898  1  0  0.087547  0  0.940589  0  0  0.10297  0  1.006569  0  0  0.103994  0  1.005634  0  0  0.102743  0.102143  0  1.007322  0
H  H23  1  0.71377177  0.05441112  0.81171026  1  0  0.087534  0  0.940577  0  0  0.10295  0  1.006564  0  0  0.103987  0  1.005638  0  0  0.102731  0.102122  0  1.007316  0
H  H24  1  0.28623209  0.55441031  0.31170993  1  0  0.087505  0  0.940598  0  0  0.102918  0  1.006588  0  0  0.103951  0  1.005656  0  0  0.102719  0.102091  0  1.00734  0
H  H25  1  0.28622892  0.94558854  0.18828950  1  0  0.087571  0  0.940565  0  0  0.102984  0  1.006557  0  0  0.104027  0  1.005632  0  0  0.102738  0.102156  0  1.007308  0
H  H26  1  0.49685940  0.30922965  0.72036093  1  0  0.304156  0  0.94463  0  0  0.28318  0  1.013536  0  0  0.291952  0  1.005805  0  0  0.301697  0.277016  0  1.018955  0
H  H27  1  0.49685971  0.19076946  0.77963807  1  0  0.304149  0  0.944643  0  0  0.283178  0  1.013553  0  0  0.29195  0  1.00582  0  0  0.301688  0.277013  0  1.018972  0
H  H28  1  0.50314354  0.69077002  0.27963817  1  0  0.304138  0  0.944623  0  0  0.283167  0  1.013536  0  0  0.291938  0  1.005806  0  0  0.301692  0.277003  0  1.018955  0
H  H29  1  0.50314098  0.80922949  0.22036150  1  0  0.304153  0  0.944676  0  0  0.283171  0  1.013586  0  0  0.291944  0  1.005852  0  0  0.301664  0.277006  0  1.019005  0
C  C30  1  0.99874593  0.23001432  0.43488328  1  0  0.126414  0  3.704875  0  0  0.092458  0  3.952137  0  0  0.101201  0  3.970867  0  0  0.044807  0.086847  0  3.939423  0
C  C31  1  0.99874528  0.26998493  0.06511665  1  0  0.126482  0  3.704806  0  0  0.09252  0  3.952064  0  0  0.101263  0  3.970796  0  0  0.044841  0.086908  0  3.939358  0
C  C32  1  0.00125926  0.76998535  0.56511648  1  0  0.126408  0  3.704837  0  0  0.092478  0  3.95208  0  0  0.10122  0  3.970811  0  0  0.044781  0.086868  0  3.93937  0
C  C33  1  0.00125091  0.73001473  0.93488377  1  0  0.126472  0  3.704846  0  0  0.09254  0  3.952094  0  0  0.101282  0  3.970825  0  0  0.044853  0.086929  0  3.939388  0
C  C34  1  0.90447872  0.25712661  0.52621861  1  0  -0.159462  0  3.700727  0  0  -0.177742  0  3.947386  0  0  -0.186392  0  3.968599  0  0  -0.084206  -0.172236  0  3.933221  0
C  C35  1  0.90447269  0.24287310  0.97378000  1  0  -0.159569  0  3.700764  0  0  -0.177831  0  3.94744  0  0  -0.186479  0  3.968647  0  0  -0.084261  -0.172327  0  3.933284  0
C  C36  1  0.09552647  0.74287233  0.47378029  1  0  -0.159398  0  3.700795  0  0  -0.177674  0  3.947444  0  0  -0.186323  0  3.968654  0  0  -0.084145  -0.172167  0  3.93328  0
C  C37  1  0.09552350  0.75712657  0.02621910  1  0  -0.159504  0  3.700798  0  0  -0.177777  0  3.947464  0  0  -0.186425  0  3.968671  0  0  -0.084222  -0.172273  0  3.933306  0
C  C38  1  0.97556099  0.34898512  0.58307145  1  0  0.140262  0  3.685303  0  0  0.15416  0  3.927263  0  0  0.159709  0  3.948657  0  0  0.016609  0.15062  0  3.912656  0
C  C39  1  0.97556188  0.15101602  0.91692691  1  0  0.140363  0  3.685294  0  0  0.154203  0  3.927346  0  0  0.15977  0  3.948751  0  0  0.016671  0.150662  0  3.912747  0
C  C40  1  0.02444195  0.65101454  0.41692897  1  0  0.140298  0  3.685277  0  0  0.154174  0  3.927259  0  0  0.159734  0  3.948659  0  0  0.016615  0.150633  0  3.912658  0
C  C41  1  0.02443431  0.84898364  0.08307286  1  0  0.140283  0  3.685201  0  0  0.154138  0  3.92724  0  0  0.159712  0  3.948651  0  0  0.016621  0.150598  0  3.912637  0
C  C42  1  0.14668661  0.40978451  0.54487162  1  0  -0.175792  0  3.708303  0  0  -0.190758  0  3.951757  0  0  -0.200656  0  3.974694  0  0  -0.090054  -0.184298  0  3.936472  0
C  C43  1  0.14667884  0.09021614  0.95512902  1  0  -0.175917  0  3.708304  0  0  -0.19087  0  3.951811  0  0  -0.200769  0  3.974749  0  0  -0.090129  -0.184406  0  3.936507  0
C  C44  1  0.85331858  0.59021515  0.45512880  1  0  -0.175845  0  3.708263  0  0  -0.190804  0  3.95175  0  0  -0.200704  0  3.974681  0  0  -0.090085  -0.184341  0  3.936457  0
C  C45  1  0.85331735  0.90978498  0.04487047  1  0  -0.175718  0  3.70815  0  0  -0.190666  0  3.951636  0  0  -0.200569  0  3.974562  0  0  -0.090022  -0.184203  0  3.936344  0
C  C46  1  0.23299005  0.37838812  0.45331915  1  0  0.121194  0  3.720452  0  0  0.088009  0  3.968514  0  0  0.096335  0  3.988795  0  0  0.039074  0.082726  0  3.954647  0
C  C47  1  0.23298089  0.12161135  0.04668194  1  0  0.121212  0  3.720413  0  0  0.087988  0  3.968442  0  0  0.096305  0  3.98872  0  0  0.039124  0.082741  0  3.954585  0
C  C48  1  0.76701289  0.62161155  0.54668061  1  0  0.121145  0  3.720534  0  0  0.087938  0  3.968585  0  0  0.096262  0  3.988866  0  0  0.039046  0.082672  0  3.954723  0
C  C49  1  0.76701080  0.87838903  0.95331867  1  0  0.121132  0  3.720555  0  0  0.087944  0  3.968607  0  0  0.096268  0  3.98889  0  0  0.039036  0.082662  0  3.954739  0
C  C50  1  0.87190822  0.38507100  0.68203585  1  0  0.012262  0  3.700247  0  0  -0.051692  0  3.955543  0  0  -0.04713  0  3.964491  0  0  -0.054104  -0.054604  0  3.949223  0
C  C51  1  0.87191118  0.11492872  0.81796407  1  0  0.012337  0  3.700272  0  0  -0.051601  0  3.955622  0  0  -0.047106  0  3.964661  0  0  -0.054079  -0.054519  0  3.949301  0
C  C52  1  0.12809247  0.61492866  0.31796457  1  0  0.012371  0  3.700185  0  0  -0.051544  0  3.955474  0  0  -0.047028  0  3.964484  0  0  -0.054041  -0.054457  0  3.949153  0
C  C53  1  0.12808951  0.88507095  0.18203503  1  0  0.012263  0  3.700252  0  0  -0.051687  0  3.955569  0  0  -0.047226  0  3.964652  0  0  -0.05411  -0.054604  0  3.949247  0
C  C54  1  0.88829956  0.25000022  0.75000006  1  0  0.709681  0  3.925671  0  0  0.63867  0  4.233441  0  0  0.672526  0  4.229172  0  0  0.324452  0.61582  0  4.235498  0
C  C55  1  0.11170113  0.74999945  0.24999970  1  0  0.709768  0  3.925587  0  0  0.638745  0  4.233366  0  0  0.672601  0  4.22909  0  0  0.324446  0.615896  0  4.235424  0
N  N56  1  0.15820259  0.29022365  0.39917760  1  0  -0.283181  0  3.353276  0  0  -0.188625  0  3.612564  0  0  -0.213542  0  3.638079  0  0  -0.308842  -0.172054  0  3.594965  0
N  N57  1  0.15819102  0.20977584  0.10082414  1  0  -0.283213  0  3.353301  0  0  -0.188637  0  3.612573  0  0  -0.213558  0  3.638097  0  0  -0.308853  -0.172062  0  3.594955  0
N  N58  1  0.84180035  0.70977601  0.60082282  1  0  -0.283143  0  3.353246  0  0  -0.188592  0  3.612526  0  0  -0.213509  0  3.63804  0  0  -0.308802  -0.172021  0  3.594923  0
N  N59  1  0.84180292  0.79022527  0.89917668  1  0  -0.283142  0  3.353231  0  0  -0.188584  0  3.612502  0  0  -0.213498  0  3.638015  0  0  -0.308835  -0.172015  0  3.594909  0
N  N60  1  0.72711835  0.31382729  0.71775810  1  0  -0.490213  0  3.315273  0  0  -0.432333  0  3.570418  0  0  -0.45247  0  3.574118  0  0  -0.44224  -0.418513  0  3.567455  0
N  N61  1  0.72711868  0.18617247  0.78224180  1  0  -0.49022  0  3.315245  0  0  -0.432362  0  3.570411  0  0  -0.452479  0  3.574131  0  0  -0.442234  -0.418533  0  3.567438  0
N  N62  1  0.27288235  0.68617238  0.28224167  1  0  -0.49019  0  3.315193  0  0  -0.432348  0  3.57037  0  0  -0.452474  0  3.574083  0  0  -0.442231  -0.418528  0  3.567407  0
N  N63  1  0.27288201  0.81382719  0.21775862  1  0  -0.490281  0  3.315245  0  0  -0.432375  0  3.570375  0  0  -0.452484  0  3.574099  0  0  -0.442168  -0.418546  0  3.567402  0
Cl  Cl64  1  0.64329082  0.39953846  0.26222431  1  0  -0.580571  0  0.863524  0  0  -0.534022  0  1.125213  0  0  -0.551137  0  1.104556  0  0  -0.324962  -0.52152  0  1.139203  0
Cl  Cl65  1  0.64328909  0.10046233  0.23777661  1  0  -0.580568  0  0.863525  0  0  -0.534022  0  1.125219  0  0  -0.55114  0  1.104562  0  0  -0.324953  -0.521516  0  1.139199  0
Cl  Cl66  1  0.35671212  0.60046192  0.73777565  1  0  -0.580574  0  0.863531  0  0  -0.534025  0  1.125219  0  0  -0.551138  0  1.104561  0  0  -0.32496  -0.521518  0  1.139206  0
Cl  Cl67  1  0.35670935  0.89953733  0.76222381  1  0  -0.580584  0  0.863535  0  0  -0.534043  0  1.125223  0  0  -0.551157  0  1.104565  0  0  -0.324969  -0.521539  0  1.139213  0
O  O68  1  0.17181587  0.25000032  0.74999999  1  0  -0.650187  0  2.000554  0  0  -0.596575  0  2.231224  0  0  -0.618928  0  2.221103  0  0  -0.322696  -0.580956  0  2.237631  0
O  O69  1  0.82818482  0.74999934  0.24999977  1  0  -0.650232  0  2.000515  0  0  -0.596614  0  2.231188  0  0  -0.61896  0  2.221059  0  0  -0.322715  -0.580994  0  2.237595  0
