# generated using pymatgen
data_CuH8C9S(NO)3
_symmetry_space_group_name_H-M   'P 1'
_cell_length_a   9.30269032
_cell_length_b   10.51677766
_cell_length_c   12.36593003
_cell_angle_alpha   85.00789879
_cell_angle_beta   78.61540313
_cell_angle_gamma   63.74573236
_symmetry_Int_Tables_number   1
_chemical_formula_structural   CuH8C9S(NO)3
_chemical_formula_sum   'Cu4 H32 C36 S4 N12 O12'
_cell_volume   1063.65955033
_cell_formula_units_Z   4
loop_
 _symmetry_equiv_pos_site_id
 _symmetry_equiv_pos_as_xyz
  1  'x, y, z'
loop_
 _atom_site_type_symbol
 _atom_site_label
 _atom_site_symmetry_multiplicity
 _atom_site_fract_x
 _atom_site_fract_y
 _atom_site_fract_z
 _atom_site_occupancy
 _atom_site_hle17_bader_spin_density
 _atom_site_hle17_ddec_charge
 _atom_site_hle17_ddec_spin_density
 _atom_site_hle17_ddec_sum_bond_order
 _atom_site_hle17_magmom
 _atom_site_hse06_10hf_bader_spin_density
 _atom_site_hse06_10hf_ddec_charge
 _atom_site_hse06_10hf_ddec_spin_density
 _atom_site_hse06_10hf_ddec_sum_bond_order
 _atom_site_hse06_10hf_magmom
 _atom_site_hse06_bader_spin_density
 _atom_site_hse06_ddec_charge
 _atom_site_hse06_ddec_spin_density
 _atom_site_hse06_ddec_sum_bond_order
 _atom_site_hse06_magmom
 _atom_site_pbe_bader_spin_density
 _atom_site_pbe_cm5_charge
 _atom_site_pbe_ddec_charge
 _atom_site_pbe_ddec_spin_density
 _atom_site_pbe_ddec_sum_bond_order
 _atom_site_pbe_magmom
Cu  Cu0  1  0.36652928  0.16199295  0.52724694  1  0  0.545759  0  1.969295  0  0  0.422434  0  2.491021  0  0  0.410822  0  2.448717  0  0  0.618352  0.436386  0  2.514129  0
Cu  Cu1  1  0.47139546  0.16201433  0.97279839  1  0  0.546368  0  1.967365  0  0  0.423323  0  2.489044  0  0  0.411589  0  2.446667  0  0  0.618417  0.437242  0  2.511853  0
Cu  Cu2  1  0.63347367  0.83800907  0.47276022  1  0  0.545758  0  1.969351  0  0  0.422502  0  2.491072  0  0  0.410867  0  2.448768  0  0  0.618379  0.436459  0  2.514031  0
Cu  Cu3  1  0.52860527  0.83798768  0.02720182  1  0  0.546396  0  1.967371  0  0  0.423318  0  2.489022  0  0  0.41164  0  2.44668  0  0  0.618483  0.437254  0  2.512108  0
H  H4  1  0.20043347  0.14737590  0.75425777  1  0  0.106011  0  0.946782  0  0  0.112603  0  1.012453  0  0  0.115924  0  1.009717  0  0  0.125906  0.109723  0  1.015197  0
H  H5  1  0.65198026  0.14732434  0.74576185  1  0  0.106004  0  0.947187  0  0  0.112553  0  1.012743  0  0  0.115858  0  1.010005  0  0  0.125968  0.109684  0  1.015483  0
H  H6  1  0.79956609  0.85262187  0.24574213  1  0  0.10601  0  0.946797  0  0  0.112604  0  1.012465  0  0  0.115925  0  1.009731  0  0  0.125913  0.109724  0  1.015209  0
H  H7  1  0.34801938  0.85267767  0.25423854  1  0  0.105998  0  0.947193  0  0  0.112531  0  1.012757  0  0  0.115836  0  1.01002  0  0  0.125963  0.109663  0  1.0155  0
H  H8  1  0.31944269  0.70056350  0.80421738  1  0  0.127159  0  0.945276  0  0  0.133828  0  1.009624  0  0  0.137563  0  1.007006  0  0  0.11736  0.130712  0  1.012372  0
H  H9  1  0.98035849  0.70059684  0.69577792  1  0  0.12653  0  0.946439  0  0  0.133772  0  1.010086  0  0  0.137376  0  1.007708  0  0  0.117179  0.130723  0  1.012723  0
H  H10  1  0.68056070  0.29943321  0.19578122  1  0  0.127157  0  0.945231  0  0  0.133813  0  1.00959  0  0  0.137548  0  1.006974  0  0  0.117351  0.130697  0  1.012336  0
H  H11  1  0.01963729  0.29940411  0.30422070  1  0  0.126515  0  0.946409  0  0  0.133766  0  1.010055  0  0  0.137369  0  1.007678  0  0  0.117172  0.130712  0  1.012706  0
H  H12  1  0.51465095  0.66157720  0.62892580  1  0  0.10427  0  0.935044  0  0  0.113424  0  0.996867  0  0  0.116479  0  0.994272  0  0  0.127977  0.110884  0  0.99928  0
H  H13  1  0.82406290  0.66160280  0.87098842  1  0  0.10487  0  0.934185  0  0  0.113309  0  0.996636  0  0  0.116375  0  0.994032  0  0  0.1279  0.110781  0  0.999031  0
H  H14  1  0.48535191  0.33842057  0.37107523  1  0  0.104232  0  0.935088  0  0  0.113411  0  0.996878  0  0  0.11647  0  0.99428  0  0  0.12797  0.110867  0  0.999307  0
H  H15  1  0.17593398  0.33839816  0.12901165  1  0  0.104834  0  0.93422  0  0  0.113282  0  0.996658  0  0  0.11635  0  0.994052  0  0  0.127892  0.110755  0  0.999045  0
H  H16  1  0.12919324  0.16176496  0.93285756  1  0  0.110325  0  0.981677  0  0  0.117793  0  1.047076  0  0  0.12126  0  1.044905  0  0  0.102435  0.11492  0  1.049191  0
H  H17  1  0.70904068  0.16179811  0.56729594  1  0  0.110689  0  0.981404  0  0  0.118401  0  1.046507  0  0  0.121867  0  1.044366  0  0  0.102566  0.115498  0  1.048624  0
H  H18  1  0.87080523  0.83823282  0.06714251  1  0  0.110265  0  0.981709  0  0  0.117786  0  1.047041  0  0  0.121257  0  1.044868  0  0  0.102438  0.114914  0  1.049159  0
H  H19  1  0.29095786  0.83820391  0.43270461  1  0  0.110712  0  0.981382  0  0  0.118425  0  1.046473  0  0  0.12189  0  1.044329  0  0  0.102583  0.115518  0  1.048591  0
H  H20  1  0.07508610  0.77939277  0.89879944  1  0  0.106779  0  0.98398  0  0  0.117245  0  1.045785  0  0  0.119661  0  1.045345  0  0  0.102183  0.115255  0  1.046388  0
H  H21  1  0.14565781  0.77942758  0.60109616  1  0  0.107069  0  0.983806  0  0  0.117345  0  1.045782  0  0  0.119809  0  1.045275  0  0  0.102195  0.115344  0  1.046406  0
H  H22  1  0.92491347  0.22060501  0.10120127  1  0  0.106826  0  0.983984  0  0  0.117247  0  1.045822  0  0  0.11967  0  1.045371  0  0  0.102181  0.115258  0  1.046428  0
H  H23  1  0.85434070  0.22057232  0.39890455  1  0  0.107053  0  0.983872  0  0  0.117339  0  1.045824  0  0  0.119798  0  1.04533  0  0  0.102188  0.11534  0  1.046448  0
H  H24  1  0.77365209  0.37723237  0.65164154  1  0  0.1652  0  0.935406  0  0  0.183132  0  0.990804  0  0  0.185019  0  0.990308  0  0  0.114946  0.181844  0  0.991366  0
H  H25  1  0.84920224  0.37712481  0.84831330  1  0  0.165435  0  0.935197  0  0  0.183347  0  0.990529  0  0  0.185223  0  0.990067  0  0  0.115155  0.182055  0  0.991085  0
H  H26  1  0.22635401  0.62276328  0.34835673  1  0  0.165268  0  0.93545  0  0  0.183187  0  0.990861  0  0  0.185074  0  0.990367  0  0  0.115  0.181899  0  0.991417  0
H  H27  1  0.15080069  0.62287720  0.15168497  1  0  0.165463  0  0.935167  0  0  0.183373  0  0.990506  0  0  0.185248  0  0.990043  0  0  0.115144  0.182077  0  0.991074  0
H  H28  1  0.77383376  0.47684978  0.52810173  1  0  0.171931  0  0.957501  0  0  0.185705  0  1.01931  0  0  0.189083  0  1.016542  0  0  0.11418  0.183454  0  1.020852  0
H  H29  1  0.74930523  0.47671829  0.97190505  1  0  0.172267  0  0.957541  0  0  0.186476  0  1.018359  0  0  0.189878  0  1.015547  0  0  0.114678  0.184241  0  1.019864  0
H  H30  1  0.22616588  0.52315223  0.47189703  1  0  0.171878  0  0.957448  0  0  0.185655  0  1.019267  0  0  0.189034  0  1.016499  0  0  0.114168  0.183403  0  1.020807  0
H  H31  1  0.25069437  0.52328160  0.02809549  1  0  0.1723  0  0.957466  0  0  0.186514  0  1.018275  0  0  0.189917  0  1.015463  0  0  0.114711  0.184279  0  1.019786  0
H  H32  1  0.82166212  0.52476799  0.64881340  1  0  0.152907  0  0.923333  0  0  0.172386  0  0.980204  0  0  0.17371  0  0.980158  0  0  0.114807  0.17144  0  0.980651  0
H  H33  1  0.65362452  0.52467613  0.85119211  1  0  0.153132  0  0.923312  0  0  0.172584  0  0.979945  0  0  0.173919  0  0.979888  0  0  0.114811  0.171612  0  0.98043  0
H  H34  1  0.17833698  0.47523508  0.35118536  1  0  0.152938  0  0.923337  0  0  0.172426  0  0.980185  0  0  0.173753  0  0.980132  0  0  0.11483  0.171474  0  0.980644  0
H  H35  1  0.34637406  0.47532800  0.14880747  1  0  0.153095  0  0.923302  0  0  0.172534  0  0.979942  0  0  0.173866  0  0.979886  0  0  0.114803  0.171564  0  0.98043  0
C  C36  1  0.26808386  0.03512604  0.73339953  1  0  0.07229  0  3.599329  0  0  0.038899  0  3.844989  0  0  0.041222  0  3.858798  0  0  0.061026  0.037273  0  3.836872  0
C  C37  1  0.69667712  0.03508836  0.76660069  1  0  0.072234  0  3.599729  0  0  0.039158  0  3.844822  0  0  0.041512  0  3.858632  0  0  0.061018  0.037522  0  3.836675  0
C  C38  1  0.73191843  0.96487067  0.26660166  1  0  0.072274  0  3.59938  0  0  0.038882  0  3.845077  0  0  0.041198  0  3.858888  0  0  0.061002  0.037254  0  3.836961  0
C  C39  1  0.30332086  0.96491259  0.23340002  1  0  0.072224  0  3.599782  0  0  0.039183  0  3.844839  0  0  0.04154  0  3.858645  0  0  0.061029  0.037548  0  3.836693  0
C  C40  1  0.23932091  0.93013616  0.80014984  1  0  0.057673  0  3.738792  0  0  0.068554  0  3.975486  0  0  0.072067  0  3.994359  0  0  0.017658  0.065723  0  3.96336  0
C  C41  1  0.83063941  0.93014869  0.69987254  1  0  0.057061  0  3.737373  0  0  0.067912  0  3.97436  0  0  0.071462  0  3.993207  0  0  0.016936  0.065065  0  3.962233  0
C  C42  1  0.76067923  0.06986267  0.19985071  1  0  0.057665  0  3.738884  0  0  0.068515  0  3.975635  0  0  0.072031  0  3.994506  0  0  0.017623  0.065684  0  3.963506  0
C  C43  1  0.16935799  0.06985120  0.30012753  1  0  0.057046  0  3.737294  0  0  0.067872  0  3.974307  0  0  0.071431  0  3.993148  0  0  0.016906  0.065037  0  3.962167  0
C  C44  1  0.33128894  0.79111106  0.76086461  1  0  -0.099524  0  3.647746  0  0  -0.123354  0  3.899808  0  0  -0.124828  0  3.91529  0  0  -0.060047  -0.123441  0  3.891063  0
C  C45  1  0.87786936  0.79114180  0.73911780  1  0  -0.098981  0  3.64759  0  0  -0.123438  0  3.899798  0  0  -0.124875  0  3.915298  0  0  -0.059675  -0.123542  0  3.891035  0
C  C46  1  0.66871010  0.20888777  0.23913610  1  0  -0.09957  0  3.647791  0  0  -0.123375  0  3.899866  0  0  -0.124852  0  3.915351  0  0  -0.060068  -0.123464  0  3.891125  0
C  C47  1  0.12212752  0.20885916  0.26088227  1  0  -0.098927  0  3.647518  0  0  -0.123397  0  3.899735  0  0  -0.124837  0  3.915236  0  0  -0.059644  -0.123505  0  3.890972  0
C  C48  1  0.44233938  0.76783979  0.66296460  1  0  0.10648  0  3.667362  0  0  0.075266  0  3.922443  0  0  0.078977  0  3.9369  0  0  0.051851  0.071966  0  3.915225  0
C  C49  1  0.79003606  0.76784539  0.83697125  1  0  0.105269  0  3.668275  0  0  0.074886  0  3.923563  0  0  0.078623  0  3.937931  0  0  0.051341  0.071504  0  3.916524  0
C  C50  1  0.55766128  0.23215798  0.33703514  1  0  0.106618  0  3.667388  0  0  0.075363  0  3.922424  0  0  0.079066  0  3.93689  0  0  0.051903  0.07208  0  3.915185  0
C  C51  1  0.20996244  0.23215451  0.16302865  1  0  0.105283  0  3.668231  0  0  0.074926  0  3.92351  0  0  0.078658  0  3.937883  0  0  0.051385  0.071545  0  3.916446  0
C  C52  1  0.11717730  0.96648749  0.90189613  1  0  0.042892  0  3.790849  0  0  0.057191  0  4.024355  0  0  0.055962  0  4.047802  0  0  -0.008548  0.057593  0  4.009509  0
C  C53  1  0.91641452  0.96652953  0.59813542  1  0  0.044204  0  3.788067  0  0  0.058161  0  4.022177  0  0  0.056878  0  4.045694  0  0  -0.007979  0.058623  0  4.007254  0
C  C54  1  0.88282061  0.03350922  0.09810491  1  0  0.042819  0  3.791021  0  0  0.057079  0  4.024566  0  0  0.05585  0  4.048013  0  0  -0.008567  0.057486  0  4.009721  0
C  C55  1  0.08358236  0.03347142  0.40186546  1  0  0.044173  0  3.787963  0  0  0.05816  0  4.022034  0  0  0.056877  0  4.045548  0  0  -0.007976  0.05862  0  4.007101  0
C  C56  1  0.07158980  0.09120326  0.96075462  1  0  -0.101061  0  3.700977  0  0  -0.120501  0  3.948894  0  0  -0.122712  0  3.969417  0  0  -0.08771  -0.119585  0  3.936323  0
C  C57  1  0.83721415  0.09123287  0.53934523  1  0  -0.100388  0  3.699553  0  0  -0.119751  0  3.946847  0  0  -0.121973  0  3.967416  0  0  -0.087099  -0.118809  0  3.934259  0
C  C58  1  0.92840866  0.90879451  0.03924545  1  0  -0.100918  0  3.701075  0  0  -0.120369  0  3.948994  0  0  -0.122577  0  3.969505  0  0  -0.087672  -0.119449  0  3.936409  0
C  C59  1  0.16278273  0.90876808  0.46065565  1  0  -0.100398  0  3.699462  0  0  -0.119756  0  3.94674  0  0  -0.121978  0  3.967311  0  0  -0.087127  -0.118814  0  3.93415  0
C  C60  1  0.04358344  0.87618800  0.94277940  1  0  -0.098194  0  3.713518  0  0  -0.11808  0  3.957485  0  0  -0.121574  0  3.981674  0  0  -0.087554  -0.115675  0  3.941595  0
C  C61  1  0.08031485  0.87621656  0.55716545  1  0  -0.100303  0  3.714288  0  0  -0.12013  0  3.958899  0  0  -0.123614  0  3.983099  0  0  -0.088701  -0.117742  0  3.942969  0
C  C62  1  0.95641394  0.12380978  0.05722164  1  0  -0.098255  0  3.713511  0  0  -0.118056  0  3.957432  0  0  -0.121555  0  3.98162  0  0  -0.087566  -0.115659  0  3.941552  0
C  C63  1  0.91968256  0.12378333  0.44283461  1  0  -0.100268  0  3.714321  0  0  -0.120103  0  3.958918  0  0  -0.123587  0  3.983117  0  0  -0.088706  -0.117719  0  3.942993  0
C  C64  1  0.00349986  0.34793713  0.56445932  1  0  0.456996  0  3.66452  0  0  0.446291  0  3.935661  0  0  0.457938  0  3.951572  0  0  0.220266  0.439256  0  3.924253  0
C  C65  1  0.64858778  0.34785344  0.93540527  1  0  0.458172  0  3.66418  0  0  0.447294  0  3.935184  0  0  0.458924  0  3.951149  0  0  0.220988  0.440258  0  3.923685  0
C  C66  1  0.99650634  0.65206488  0.43553360  1  0  0.457082  0  3.664409  0  0  0.446393  0  3.935541  0  0  0.458045  0  3.951448  0  0  0.220236  0.439348  0  3.924081  0
C  C67  1  0.35141239  0.65214752  0.06459349  1  0  0.458149  0  3.664093  0  0  0.447274  0  3.935095  0  0  0.458905  0  3.951059  0  0  0.221005  0.440244  0  3.923688  0
C  C68  1  0.83357558  0.43687423  0.60048533  1  0  -0.396958  0  3.743354  0  0  -0.465167  0  3.967456  0  0  -0.468673  0  3.971542  0  0  -0.215804  -0.462824  0  3.964626  0
C  C69  1  0.72959091  0.43675204  0.89947093  1  0  -0.398258  0  3.744157  0  0  -0.466469  0  3.96749  0  0  -0.470003  0  3.971586  0  0  -0.216638  -0.464109  0  3.964605  0
C  C70  1  0.16642515  0.56312778  0.39951246  1  0  -0.397039  0  3.74338  0  0  -0.465256  0  3.967519  0  0  -0.468763  0  3.971603  0  0  -0.215887  -0.462905  0  3.964655  0
C  C71  1  0.27040925  0.56324891  0.10052784  1  0  -0.398278  0  3.74401  0  0  -0.466475  0  3.967357  0  0  -0.470007  0  3.971453  0  0  -0.216658  -0.464121  0  3.964537  0
S  S72  1  0.38335499  0.42168936  0.68015626  1  0  1.089911  0  5.658071  0  0  1.003843  0  6.195496  0  0  1.046288  0  6.178513  0  0  0.487111  0.974476  0  6.205813  0
S  S73  1  0.19490826  0.42166378  0.81981920  1  0  1.088939  0  5.660555  0  0  1.002733  0  6.198286  0  0  1.045176  0  6.181294  0  0  0.486533  0.973379  0  6.208614  0
S  S74  1  0.61664302  0.57831371  0.31984510  1  0  1.089976  0  5.657926  0  0  1.003936  0  6.195337  0  0  1.046381  0  6.178351  0  0  0.487168  0.974568  0  6.205655  0
S  S75  1  0.80509081  0.57833717  0.18018134  1  0  1.088894  0  5.660507  0  0  1.002689  0  6.198236  0  0  1.045132  0  6.181243  0  0  0.486522  0.973336  0  6.208569  0
N  N76  1  0.37593633  0.00783006  0.63925651  1  0  -0.158772  0  3.278247  0  0  -0.105157  0  3.585416  0  0  -0.104393  0  3.586592  0  0  -0.241815  -0.107061  0  3.585109  0
N  N77  1  0.61614710  0.00778962  0.86072524  1  0  -0.159543  0  3.279213  0  0  -0.10582  0  3.586256  0  0  -0.10507  0  3.587422  0  0  -0.241595  -0.107664  0  3.585817  0
N  N78  1  0.62406763  0.99216771  0.36074435  1  0  -0.15867  0  3.278425  0  0  -0.105087  0  3.585558  0  0  -0.104316  0  3.586732  0  0  -0.241762  -0.106986  0  3.585214  0
N  N79  1  0.38385250  0.99221027  0.13927531  1  0  -0.159593  0  3.279224  0  0  -0.105866  0  3.586257  0  0  -0.10513  0  3.587447  0  0  -0.241607  -0.107726  0  3.585905  0
N  N80  1  0.46711794  0.87225750  0.60394878  1  0  -0.185852  0  3.334415  0  0  -0.13008  0  3.656358  0  0  -0.129658  0  3.656059  0  0  -0.260163  -0.132082  0  3.656899  0
N  N81  1  0.66071068  0.87222522  0.89600790  1  0  -0.184505  0  3.336559  0  0  -0.129098  0  3.658353  0  0  -0.128642  0  3.65806  0  0  -0.259533  -0.131104  0  3.658937  0
N  N82  1  0.53288598  0.12773816  0.39605224  1  0  -0.185983  0  3.334519  0  0  -0.130107  0  3.656362  0  0  -0.129695  0  3.656075  0  0  -0.260144  -0.132121  0  3.65698  0
N  N83  1  0.33928730  0.12777574  0.10399524  1  0  -0.184411  0  3.336402  0  0  -0.129042  0  3.658222  0  0  -0.128569  0  3.657901  0  0  -0.259534  -0.131028  0  3.658681  0
N  N84  1  0.14161498  0.27679764  0.53524740  1  0  -0.495473  0  3.115371  0  0  -0.45723  0  3.460491  0  0  -0.464287  0  3.460478  0  0  -0.400156  -0.45266  0  3.4582  0
N  N85  1  0.58157443  0.27677716  0.96468501  1  0  -0.496508  0  3.114192  0  0  -0.458428  0  3.459635  0  0  -0.465444  0  3.45951  0  0  -0.400762  -0.45385  0  3.457211  0
N  N86  1  0.85837877  0.72321391  0.46474669  1  0  -0.495542  0  3.115353  0  0  -0.457318  0  3.460501  0  0  -0.464371  0  3.460484  0  0  -0.400111  -0.452737  0  3.458098  0
N  N87  1  0.41842902  0.72322379  0.03531326  1  0  -0.496474  0  3.114093  0  0  -0.458382  0  3.459498  0  0  -0.465409  0  3.459406  0  0  -0.400765  -0.453825  0  3.457286  0
O  O88  1  0.44227564  0.28555725  0.62236546  1  0  -0.63858  0  2.124706  0  0  -0.584055  0  2.425478  0  0  -0.599778  0  2.40669  0  0  -0.347928  -0.572911  0  2.437523  0
O  O89  1  0.27218978  0.28555915  0.87754020  1  0  -0.637911  0  2.125867  0  0  -0.583529  0  2.426715  0  0  -0.599258  0  2.407985  0  0  -0.347285  -0.572338  0  2.438548  0
O  O90  1  0.55772729  0.71444477  0.37763605  1  0  -0.638637  0  2.124687  0  0  -0.58413  0  2.425407  0  0  -0.599849  0  2.406617  0  0  -0.347987  -0.572981  0  2.437426  0
O  O91  1  0.72781039  0.71444181  0.12245937  1  0  -0.63788  0  2.125829  0  0  -0.583507  0  2.426675  0  0  -0.599247  0  2.407959  0  0  -0.3473  -0.572321  0  2.438554  0
O  O92  1  0.29533443  0.54711368  0.61647944  1  0  -0.617095  0  2.008536  0  0  -0.568808  0  2.257514  0  0  -0.588848  0  2.24717  0  0  -0.331355  -0.554157  0  2.263947  0
O  O93  1  0.15738562  0.54708066  0.88359009  1  0  -0.616931  0  2.009966  0  0  -0.568735  0  2.259075  0  0  -0.588793  0  2.248734  0  0  -0.331351  -0.554089  0  2.2655  0
O  O94  1  0.70466574  0.45288727  0.38352094  1  0  -0.617129  0  2.00848  0  0  -0.568854  0  2.257451  0  0  -0.588892  0  2.247106  0  0  -0.331355  -0.554203  0  2.263888  0
O  O95  1  0.84261289  0.45291923  0.11641063  1  0  -0.616927  0  2.009933  0  0  -0.568716  0  2.259028  0  0  -0.588773  0  2.248686  0  0  -0.331329  -0.554068  0  2.265453  0
O  O96  1  0.50946729  0.43009551  0.72990118  1  0  -0.62486  0  1.991217  0  0  -0.576023  0  2.241394  0  0  -0.597031  0  2.23321  0  0  -0.334941  -0.560408  0  2.246834  0
O  O97  1  0.06047023  0.43001359  0.77001832  1  0  -0.625147  0  1.990103  0  0  -0.576079  0  2.240173  0  0  -0.597085  0  2.232012  0  0  -0.335169  -0.560473  0  2.245609  0
O  O98  1  0.49053129  0.56990862  0.27010001  1  0  -0.624855  0  1.991203  0  0  -0.576026  0  2.241354  0  0  -0.597033  0  2.233168  0  0  -0.334954  -0.560412  0  2.246798  0
O  O99  1  0.93952937  0.56998631  0.22998142  1  0  -0.625131  0  1.990127  0  0  -0.576083  0  2.240226  0  0  -0.597089  0  2.232066  0  0  -0.335168  -0.560474  0  2.24566  0
