# generated using pymatgen
data_NaH13(C2O)4
_symmetry_space_group_name_H-M   'P 1'
_cell_length_a   6.73460716
_cell_length_b   10.13170272
_cell_length_c   12.99724951
_cell_angle_alpha   91.19613770
_cell_angle_beta   90.00010323
_cell_angle_gamma   90.00002549
_symmetry_Int_Tables_number   1
_chemical_formula_structural   NaH13(C2O)4
_chemical_formula_sum   'Na4 H52 C32 O16'
_cell_volume   886.64856616
_cell_formula_units_Z   4
loop_
 _symmetry_equiv_pos_site_id
 _symmetry_equiv_pos_as_xyz
  1  'x, y, z'
loop_
 _atom_site_type_symbol
 _atom_site_label
 _atom_site_symmetry_multiplicity
 _atom_site_fract_x
 _atom_site_fract_y
 _atom_site_fract_z
 _atom_site_occupancy
 _atom_site_hle17_bader_spin_density
 _atom_site_hle17_ddec_charge
 _atom_site_hle17_ddec_spin_density
 _atom_site_hle17_ddec_sum_bond_order
 _atom_site_hle17_magmom
 _atom_site_hse06_10hf_bader_spin_density
 _atom_site_hse06_10hf_ddec_charge
 _atom_site_hse06_10hf_ddec_spin_density
 _atom_site_hse06_10hf_ddec_sum_bond_order
 _atom_site_hse06_10hf_magmom
 _atom_site_hse06_bader_spin_density
 _atom_site_hse06_ddec_charge
 _atom_site_hse06_ddec_spin_density
 _atom_site_hse06_ddec_sum_bond_order
 _atom_site_hse06_magmom
 _atom_site_pbe_bader_spin_density
 _atom_site_pbe_cm5_charge
 _atom_site_pbe_ddec_charge
 _atom_site_pbe_ddec_spin_density
 _atom_site_pbe_ddec_sum_bond_order
 _atom_site_pbe_magmom
Na  Na0  1  0.15714778  0.88701181  0.55933004  1  0  0.902974  0  0.356636  0  0  0.853967  0  0.507935  0  0  0.865248  0  0.486513  0  0  0.670661  0.845574  0  0.523413  0
Na  Na1  1  0.65714398  0.61298672  0.44066999  1  0  0.902985  0  0.356617  0  0  0.853961  0  0.507929  0  0  0.865242  0  0.486519  0  0  0.670647  0.845569  0  0.523417  0
Na  Na2  1  0.84285323  0.11298823  0.44066942  1  0  0.902977  0  0.356618  0  0  0.853967  0  0.507932  0  0  0.865245  0  0.486513  0  0  0.67065  0.845568  0  0.523411  0
Na  Na3  1  0.34285258  0.38701135  0.55932945  1  0  0.902988  0  0.35662  0  0  0.853966  0  0.507938  0  0  0.865248  0  0.486523  0  0  0.670655  0.845567  0  0.523422  0
H  H4  1  0.38091114  0.11359315  0.56677408  1  0  0.383241  0  0.928246  0  0  0.348597  0  1.013389  0  0  0.363296  0  0.998794  0  0  0.29112  0.338412  0  1.023199  0
H  H5  1  0.88091047  0.38640645  0.43322559  1  0  0.383232  0  0.928253  0  0  0.348584  0  1.013406  0  0  0.363284  0  0.998809  0  0  0.291107  0.338395  0  1.023228  0
H  H6  1  0.61908987  0.88640691  0.43322923  1  0  0.383205  0  0.928325  0  0  0.348552  0  1.013493  0  0  0.363251  0  0.998871  0  0  0.291098  0.338365  0  1.023305  0
H  H7  1  0.11909054  0.61359359  0.56677387  1  0  0.383242  0  0.928241  0  0  0.348594  0  1.013395  0  0  0.363293  0  0.998796  0  0  0.291121  0.338406  0  1.023213  0
H  H8  1  0.08059115  0.08998532  0.81659445  1  0  0.107564  0  0.926435  0  0  0.125261  0  0.98587  0  0  0.126824  0  0.986046  0  0  0.108883  0.124123  0  0.985955  0
H  H9  1  0.58059112  0.41001616  0.18340496  1  0  0.107573  0  0.926442  0  0  0.125271  0  0.985873  0  0  0.126835  0  0.986049  0  0  0.108884  0.124134  0  0.985958  0
H  H10  1  0.91940838  0.91001571  0.18340502  1  0  0.107584  0  0.926434  0  0  0.125265  0  0.985885  0  0  0.126827  0  0.986062  0  0  0.108892  0.12413  0  0.985967  0
H  H11  1  0.41940841  0.58998586  0.81659529  1  0  0.107589  0  0.926411  0  0  0.125285  0  0.985846  0  0  0.126849  0  0.986021  0  0  0.108904  0.124145  0  0.98593  0
H  H12  1  0.27539123  0.97473353  0.81371531  1  0  0.108546  0  0.946325  0  0  0.120387  0  1.012188  0  0  0.12317  0  1.010469  0  0  0.10224  0.117998  0  1.014248  0
H  H13  1  0.77538797  0.52526799  0.18628332  1  0  0.108538  0  0.946322  0  0  0.120376  0  1.012182  0  0  0.123158  0  1.010464  0  0  0.10224  0.117988  0  1.014242  0
H  H14  1  0.72460978  0.02526651  0.18628414  1  0  0.108542  0  0.946274  0  0  0.12038  0  1.012144  0  0  0.123162  0  1.010425  0  0  0.102251  0.117993  0  1.014207  0
H  H15  1  0.22461156  0.47473304  0.81371461  1  0  0.108513  0  0.946307  0  0  0.120363  0  1.012154  0  0  0.123145  0  1.010437  0  0  0.102237  0.117975  0  1.014209  0
H  H16  1  0.29950688  0.25517857  0.91037727  1  0  0.058864  0  0.950792  0  0  0.075002  0  1.01962  0  0  0.076366  0  1.018875  0  0  0.087459  0.073467  0  1.02122  0
H  H17  1  0.79950641  0.24482100  0.08962232  1  0  0.058861  0  0.950804  0  0  0.074998  0  1.019635  0  0  0.076362  0  1.01889  0  0  0.08746  0.073462  0  1.021237  0
H  H18  1  0.70049413  0.74482048  0.08962217  1  0  0.058878  0  0.950785  0  0  0.07501  0  1.019611  0  0  0.076375  0  1.018865  0  0  0.08745  0.073477  0  1.021206  0
H  H19  1  0.20049311  0.75517904  0.91037714  1  0  0.058886  0  0.950785  0  0  0.075017  0  1.019612  0  0  0.076382  0  1.018866  0  0  0.087462  0.073479  0  1.021214  0
H  H20  1  0.49135620  0.13801672  0.91325291  1  0  0.055561  0  0.951184  0  0  0.075948  0  1.012283  0  0  0.07612  0  1.013663  0  0  0.086873  0.07579  0  1.011453  0
H  H21  1  0.99135431  0.36198291  0.08674609  1  0  0.055555  0  0.951176  0  0  0.075936  0  1.012286  0  0  0.076107  0  1.013666  0  0  0.08687  0.075777  0  1.011457  0
H  H22  1  0.50864630  0.86198234  0.08674730  1  0  0.05559  0  0.951209  0  0  0.075967  0  1.012304  0  0  0.076139  0  1.013684  0  0  0.08688  0.07581  0  1.011472  0
H  H23  1  0.00864522  0.63801811  0.91325107  1  0  0.055569  0  0.951209  0  0  0.075952  0  1.012289  0  0  0.076124  0  1.013669  0  0  0.08687  0.075794  0  1.011458  0
H  H24  1  0.08234042  0.10581963  0.01393209  1  0  0.058993  0  0.949675  0  0  0.079501  0  1.011971  0  0  0.079645  0  1.013437  0  0  0.087521  0.07935  0  1.011042  0
H  H25  1  0.58233871  0.39417988  0.98606807  1  0  0.05896  0  0.949697  0  0  0.079471  0  1.011983  0  0  0.079614  0  1.013451  0  0  0.08751  0.079322  0  1.011052  0
H  H26  1  0.91765910  0.89418141  0.98606892  1  0  0.058957  0  0.949735  0  0  0.079466  0  1.012027  0  0  0.079609  0  1.013492  0  0  0.087495  0.079315  0  1.011097  0
H  H27  1  0.41765934  0.60581917  0.01393061  1  0  0.058968  0  0.949731  0  0  0.079481  0  1.012015  0  0  0.079625  0  1.013481  0  0  0.087505  0.079331  0  1.011084  0
H  H28  1  0.27294724  0.98677745  0.01553024  1  0  0.051103  0  0.951604  0  0  0.070463  0  1.017011  0  0  0.071193  0  1.016958  0  0  0.083032  0.069384  0  1.018298  0
H  H29  1  0.77294526  0.51322210  0.98446991  1  0  0.051154  0  0.951535  0  0  0.070468  0  1.01699  0  0  0.071197  0  1.016939  0  0  0.083042  0.06939  0  1.018273  0
H  H30  1  0.72705377  0.01322359  0.98447077  1  0  0.051076  0  0.951621  0  0  0.070434  0  1.017025  0  0  0.071164  0  1.016973  0  0  0.08302  0.069355  0  1.018311  0
H  H31  1  0.22705278  0.48677596  0.01552875  1  0  0.051131  0  0.951562  0  0  0.070459  0  1.017  0  0  0.071189  0  1.016947  0  0  0.083027  0.069379  0  1.018286  0
H  H32  1  0.29799242  0.26797998  0.10696748  1  0  0.049173  0  0.94785  0  0  0.068546  0  1.013408  0  0  0.069197  0  1.01348  0  0  0.082742  0.067485  0  1.014615  0
H  H33  1  0.79799175  0.23202058  0.89303290  1  0  0.049217  0  0.947822  0  0  0.068578  0  1.013401  0  0  0.06923  0  1.013475  0  0  0.082757  0.067516  0  1.014614  0
H  H34  1  0.70200860  0.73202205  0.89303431  1  0  0.049174  0  0.94785  0  0  0.068539  0  1.013418  0  0  0.069189  0  1.013494  0  0  0.082739  0.067472  0  1.01464  0
H  H35  1  0.20200778  0.76797748  0.10696500  1  0  0.04916  0  0.947892  0  0  0.068559  0  1.013421  0  0  0.069207  0  1.013501  0  0  0.082758  0.067493  0  1.014643  0
H  H36  1  0.49681021  0.15555460  0.10457080  1  0  0.054862  0  0.953802  0  0  0.077062  0  1.012924  0  0  0.076995  0  1.014463  0  0  0.086069  0.077131  0  1.011804  0
H  H37  1  0.99680814  0.34444503  0.89542975  1  0  0.054889  0  0.953802  0  0  0.077093  0  1.01292  0  0  0.077027  0  1.014458  0  0  0.086092  0.077162  0  1.011798  0
H  H38  1  0.50319081  0.84444545  0.89543020  1  0  0.054873  0  0.95377  0  0  0.077072  0  1.012904  0  0  0.077006  0  1.014442  0  0  0.086092  0.077141  0  1.011781  0
H  H39  1  0.00319139  0.65555303  0.10456891  1  0  0.054901  0  0.953756  0  0  0.077113  0  1.012878  0  0  0.077047  0  1.014415  0  0  0.086105  0.077182  0  1.01176  0
H  H40  1  0.09944051  0.10919309  0.21415217  1  0  0.071544  0  0.965293  0  0  0.08992  0  1.028239  0  0  0.091138  0  1.02835  0  0  0.091959  0.089086  0  1.028078  0
H  H41  1  0.59943958  0.39080543  0.78584645  1  0  0.071586  0  0.965254  0  0  0.089961  0  1.028199  0  0  0.091178  0  1.028313  0  0  0.091989  0.089125  0  1.028038  0
H  H42  1  0.90056199  0.89080596  0.78584727  1  0  0.071595  0  0.965276  0  0  0.089943  0  1.028233  0  0  0.091159  0  1.028347  0  0  0.091966  0.08911  0  1.028071  0
H  H43  1  0.40056143  0.60919363  0.21415223  1  0  0.071599  0  0.965251  0  0  0.089968  0  1.0282  0  0  0.091184  0  1.028314  0  0  0.091981  0.089133  0  1.028039  0
H  H44  1  0.30404780  0.00029124  0.21382909  1  0  0.055705  0  0.938968  0  0  0.075313  0  1.00221  0  0  0.075544  0  1.003012  0  0  0.085322  0.074704  0  1.002725  0
H  H45  1  0.80404546  0.49970833  0.78617051  1  0  0.05564  0  0.93898  0  0  0.075248  0  1.002226  0  0  0.075479  0  1.003028  0  0  0.085279  0.074635  0  1.002741  0
H  H46  1  0.69595470  0.99970979  0.78617115  1  0  0.055702  0  0.938986  0  0  0.075303  0  1.002219  0  0  0.075534  0  1.003022  0  0  0.085311  0.074694  0  1.002735  0
H  H47  1  0.19595407  0.50028973  0.21382815  1  0  0.05566  0  0.938974  0  0  0.075278  0  1.002206  0  0  0.07551  0  1.003007  0  0  0.085294  0.074666  0  1.002725  0
H  H48  1  0.51374546  0.18775023  0.29293668  1  0  0.100584  0  0.979115  0  0  0.112163  0  1.047349  0  0  0.114253  0  1.047035  0  0  0.102446  0.110751  0  1.047459  0
H  H49  1  0.01374378  0.31225123  0.70706344  1  0  0.100645  0  0.979087  0  0  0.112188  0  1.047323  0  0  0.114278  0  1.047009  0  0  0.102444  0.110774  0  1.047434  0
H  H50  1  0.48625704  0.81225278  0.70706359  1  0  0.100634  0  0.979074  0  0  0.112187  0  1.047334  0  0  0.114278  0  1.047019  0  0  0.102444  0.110777  0  1.047442  0
H  H51  1  0.98625723  0.68774881  0.29293525  1  0  0.100619  0  0.979081  0  0  0.112175  0  1.047338  0  0  0.114265  0  1.047024  0  0  0.102433  0.110761  0  1.047448  0
H  H52  1  0.29796010  0.28352155  0.30464809  1  0  0.1066  0  0.921982  0  0  0.12378  0  0.979719  0  0  0.125831  0  0.979064  0  0  0.10778  0.121851  0  0.981098  0
H  H53  1  0.79796171  0.21647408  0.69535452  1  0  0.10662  0  0.921997  0  0  0.123766  0  0.979734  0  0  0.125819  0  0.979076  0  0  0.107766  0.121838  0  0.981112  0
H  H54  1  0.70203794  0.71647652  0.69535364  1  0  0.106612  0  0.92194  0  0  0.123778  0  0.979697  0  0  0.12583  0  0.979041  0  0  0.107771  0.121854  0  0.981074  0
H  H55  1  0.20203634  0.78352498  0.30464569  1  0  0.106595  0  0.921959  0  0  0.123763  0  0.979713  0  0  0.125814  0  0.979058  0  0  0.107758  0.121833  0  0.981092  0
C  C56  1  0.31381470  0.14228090  0.71813355  1  0  0.726434  0  3.767021  0  0  0.683996  0  4.062597  0  0  0.716467  0  4.053509  0  0  0.235242  0.661963  0  4.06794  0
C  C57  1  0.81381645  0.35772066  0.28186685  1  0  0.726395  0  3.767128  0  0  0.683937  0  4.062716  0  0  0.716408  0  4.05363  0  0  0.235227  0.66191  0  4.068053  0
C  C58  1  0.68618632  0.85771914  0.28186591  1  0  0.726396  0  3.767228  0  0  0.683996  0  4.062728  0  0  0.716468  0  4.053644  0  0  0.235275  0.661971  0  4.068059  0
C  C59  1  0.18618604  0.64227939  0.71813337  1  0  0.726351  0  3.767115  0  0  0.68389  0  4.062717  0  0  0.716363  0  4.053633  0  0  0.235216  0.66185  0  4.068064  0
C  C60  1  0.24396222  0.08107021  0.81677603  1  0  -0.275917  0  3.671062  0  0  -0.314977  0  3.92116  0  0  -0.32076  0  3.929413  0  0  -0.160969  -0.310782  0  3.9151  0
C  C61  1  0.74396219  0.41893033  0.18322352  1  0  -0.275967  0  3.671107  0  0  -0.315014  0  3.921196  0  0  -0.320795  0  3.929445  0  0  -0.160992  -0.310823  0  3.915137  0
C  C62  1  0.75603731  0.91892885  0.18322572  1  0  -0.275903  0  3.671168  0  0  -0.314953  0  3.921228  0  0  -0.32073  0  3.929474  0  0  -0.161012  -0.310767  0  3.915175  0
C  C63  1  0.25603882  0.58107070  0.81677518  1  0  -0.275919  0  3.671123  0  0  -0.314957  0  3.921172  0  0  -0.32074  0  3.929424  0  0  -0.161021  -0.310753  0  3.915096  0
C  C64  1  0.32850483  0.14845620  0.91334129  1  0  -0.078755  0  3.702802  0  0  -0.121791  0  3.965999  0  0  -0.122307  0  3.980937  0  0  -0.165329  -0.120865  0  3.95486  0
C  C65  1  0.82850442  0.35154437  0.08665835  1  0  -0.078744  0  3.702789  0  0  -0.121756  0  3.965943  0  0  -0.122276  0  3.980885  0  0  -0.165323  -0.120828  0  3.954806  0
C  C66  1  0.67149469  0.85154385  0.08665971  1  0  -0.078864  0  3.702817  0  0  -0.121875  0  3.965992  0  0  -0.122394  0  3.980931  0  0  -0.16533  -0.12095  0  3.954851  0
C  C67  1  0.17149362  0.64845567  0.91334034  1  0  -0.078813  0  3.702843  0  0  -0.121817  0  3.965987  0  0  -0.122335  0  3.980925  0  0  -0.165315  -0.12089  0  3.954841  0
C  C68  1  0.24491412  0.09403568  0.01296915  1  0  -0.108055  0  3.698621  0  0  -0.148777  0  3.959405  0  0  -0.149755  0  3.974579  0  0  -0.167579  -0.147628  0  3.948189  0
C  C69  1  0.74491241  0.40596387  0.98703039  1  0  -0.108034  0  3.698619  0  0  -0.148725  0  3.959401  0  0  -0.149702  0  3.974574  0  0  -0.167573  -0.147577  0  3.948184  0
C  C70  1  0.75508838  0.90596436  0.98703185  1  0  -0.10801  0  3.698669  0  0  -0.148728  0  3.959454  0  0  -0.149706  0  3.974628  0  0  -0.167564  -0.147573  0  3.948234  0
C  C71  1  0.25508712  0.59403518  0.01296828  1  0  -0.108067  0  3.698638  0  0  -0.14877  0  3.959425  0  0  -0.149747  0  3.974598  0  0  -0.167581  -0.147616  0  3.948208  0
C  C72  1  0.33345251  0.16159736  0.10842270  1  0  -0.102944  0  3.692502  0  0  -0.141415  0  3.951924  0  0  -0.142577  0  3.967734  0  0  -0.166487  -0.139964  0  3.940056  0
C  C73  1  0.83345339  0.33840322  0.89157771  1  0  -0.103038  0  3.692539  0  0  -0.141529  0  3.951995  0  0  -0.142691  0  3.967804  0  0  -0.166519  -0.140084  0  3.940133  0
C  C74  1  0.66654702  0.83840466  0.89157756  1  0  -0.102881  0  3.692578  0  0  -0.141369  0  3.952011  0  0  -0.142531  0  3.967821  0  0  -0.166469  -0.139921  0  3.940143  0
C  C75  1  0.16654614  0.66159485  0.10842172  1  0  -0.102934  0  3.692612  0  0  -0.141455  0  3.952085  0  0  -0.142616  0  3.967892  0  0  -0.166501  -0.140014  0  3.940214  0
C  C76  1  0.26205132  0.10528535  0.21003608  1  0  -0.085634  0  3.701093  0  0  -0.130829  0  3.963411  0  0  -0.131265  0  3.978022  0  0  -0.170008  -0.13015  0  3.952921  0
C  C77  1  0.76205041  0.39471421  0.78996348  1  0  -0.085558  0  3.700997  0  0  -0.130779  0  3.963307  0  0  -0.131211  0  3.977911  0  0  -0.170019  -0.130094  0  3.952813  0
C  C78  1  0.73795118  0.89471470  0.78996492  1  0  -0.085745  0  3.701234  0  0  -0.130892  0  3.963512  0  0  -0.131328  0  3.978122  0  0  -0.170031  -0.130213  0  3.953026  0
C  C79  1  0.23795061  0.60528583  0.21003521  1  0  -0.085659  0  3.70113  0  0  -0.130855  0  3.963469  0  0  -0.131288  0  3.978076  0  0  -0.170017  -0.130167  0  3.952976  0
C  C80  1  0.35186818  0.18054695  0.30154699  1  0  -0.284534  0  3.693687  0  0  -0.322071  0  3.943584  0  0  -0.328498  0  3.952747  0  0  -0.165597  -0.317306  0  3.936861  0
C  C81  1  0.85186838  0.31945067  0.69845263  1  0  -0.284745  0  3.693791  0  0  -0.322111  0  3.943544  0  0  -0.328538  0  3.952708  0  0  -0.165607  -0.317344  0  3.936819  0
C  C82  1  0.64812987  0.81945211  0.69845323  1  0  -0.284647  0  3.693651  0  0  -0.322135  0  3.943499  0  0  -0.328563  0  3.952663  0  0  -0.165602  -0.317372  0  3.93678  0
C  C83  1  0.14812966  0.68054839  0.30154682  1  0  -0.284594  0  3.693643  0  0  -0.322115  0  3.943484  0  0  -0.328543  0  3.952649  0  0  -0.16559  -0.317344  0  3.936753  0
C  C84  1  0.31332860  0.12352869  0.40615377  1  0  0.737306  0  3.802051  0  0  0.694001  0  4.103127  0  0  0.727446  0  4.092417  0  0  0.225449  0.671175  0  4.109704  0
C  C85  1  0.81332551  0.37646694  0.59384732  1  0  0.73742  0  3.80204  0  0  0.694015  0  4.103207  0  0  0.72746  0  4.092499  0  0  0.225417  0.671189  0  4.10978  0
C  C86  1  0.68667687  0.87647235  0.59384878  1  0  0.737539  0  3.801808  0  0  0.694204  0  4.102917  0  0  0.727648  0  4.092208  0  0  0.22552  0.671376  0  4.109495  0
C  C87  1  0.18666956  0.62353015  0.40615363  1  0  0.73739  0  3.802133  0  0  0.694187  0  4.103053  0  0  0.72763  0  4.092346  0  0  0.22554  0.671361  0  4.109625  0
O  O88  1  0.33901719  0.05922454  0.64004303  1  0  -0.63616  0  2.098462  0  0  -0.580902  0  2.333725  0  0  -0.605158  0  2.319684  0  0  -0.381071  -0.563884  0  2.342742  0
O  O89  1  0.83901779  0.44077604  0.35995739  1  0  -0.636143  0  2.098484  0  0  -0.580883  0  2.333782  0  0  -0.605141  0  2.31975  0  0  -0.381057  -0.563864  0  2.342803  0
O  O90  1  0.66098382  0.94077848  0.35996109  1  0  -0.636164  0  2.098355  0  0  -0.580933  0  2.333647  0  0  -0.605191  0  2.319595  0  0  -0.38112  -0.563914  0  2.342661  0
O  O91  1  0.16098322  0.55922499  0.64004132  1  0  -0.636101  0  2.09846  0  0  -0.580843  0  2.33375  0  0  -0.605101  0  2.319712  0  0  -0.381058  -0.563818  0  2.342774  0
O  O92  1  0.34048740  0.26330923  0.71101027  1  0  -0.642091  0  1.943093  0  0  -0.594524  0  2.172481  0  0  -0.615434  0  2.162321  0  0  -0.359594  -0.579975  0  2.179408  0
O  O93  1  0.84048910  0.23669430  0.28898865  1  0  -0.64203  0  1.943158  0  0  -0.594456  0  2.17255  0  0  -0.615363  0  2.162385  0  0  -0.359582  -0.579908  0  2.179474  0
O  O94  1  0.65951212  0.73669280  0.28899230  1  0  -0.642014  0  1.94318  0  0  -0.594445  0  2.17252  0  0  -0.615351  0  2.162358  0  0  -0.359564  -0.579896  0  2.179442  0
O  O95  1  0.15951191  0.76330968  0.71100932  1  0  -0.642041  0  1.943077  0  0  -0.594447  0  2.172429  0  0  -0.615356  0  2.162268  0  0  -0.359566  -0.579891  0  2.179355  0
O  O96  1  0.42527143  0.17095395  0.48050286  1  0  -0.697909  0  1.98503  0  0  -0.646631  0  2.219968  0  0  -0.670165  0  2.204992  0  0  -0.378139  -0.630213  0  2.22966  0
O  O97  1  0.92527250  0.32903974  0.51949600  1  0  -0.697957  0  1.984845  0  0  -0.646661  0  2.219834  0  0  -0.670196  0  2.204861  0  0  -0.378129  -0.630243  0  2.229529  0
O  O98  1  0.57472662  0.82904412  0.51949657  1  0  -0.697962  0  1.984751  0  0  -0.646673  0  2.219711  0  0  -0.670207  0  2.204724  0  0  -0.378131  -0.630265  0  2.229429  0
O  O99  1  0.07472702  0.67096129  0.48050347  1  0  -0.697957  0  1.984875  0  0  -0.646726  0  2.219794  0  0  -0.670255  0  2.204805  0  0  -0.378173  -0.63033  0  2.229534  0
O  O100  1  0.18145156  0.03789268  0.42013363  1  0  -0.717063  0  1.890506  0  0  -0.671993  0  2.127313  0  0  -0.69282  0  2.113685  0  0  -0.420007  -0.657473  0  2.136595  0
O  O101  1  0.68145294  0.46210191  0.57986425  1  0  -0.717047  0  1.890615  0  0  -0.671957  0  2.127489  0  0  -0.692786  0  2.113867  0  0  -0.419947  -0.65744  0  2.136776  0
O  O102  1  0.81854500  0.96210539  0.57986657  1  0  -0.717139  0  1.890596  0  0  -0.672064  0  2.127429  0  0  -0.692888  0  2.1138  0  0  -0.420031  -0.657541  0  2.136714  0
O  O103  1  0.31853323  0.53789221  0.42013436  1  0  -0.717079  0  1.890739  0  0  -0.672036  0  2.127501  0  0  -0.692861  0  2.113875  0  0  -0.420046  -0.657514  0  2.13679  0
