# generated using pymatgen
data_Zn4C40Br4Cl16O13
_symmetry_space_group_name_H-M   'P 1'
_cell_length_a   24.00256751
_cell_length_b   24.00427641
_cell_length_c   24.00239949
_cell_angle_alpha   66.55917286
_cell_angle_beta   72.48293662
_cell_angle_gamma   107.52760697
_symmetry_Int_Tables_number   1
_chemical_formula_structural   Zn4C40Br4Cl16O13
_chemical_formula_sum   'Zn8 C80 Br8 Cl32 O26'
_cell_volume   10607.54061782
_cell_formula_units_Z   2
loop_
 _symmetry_equiv_pos_site_id
 _symmetry_equiv_pos_as_xyz
  1  'x, y, z'
loop_
 _atom_site_type_symbol
 _atom_site_label
 _atom_site_symmetry_multiplicity
 _atom_site_fract_x
 _atom_site_fract_y
 _atom_site_fract_z
 _atom_site_occupancy
 _atom_site_pbe_bader_charge
 _atom_site_pbe_bader_spin_density
 _atom_site_pbe_cm5_charge
 _atom_site_pbe_ddec_charge
 _atom_site_pbe_ddec_spin_density
 _atom_site_pbe_ddec_sum_bond_order
 _atom_site_pbe_magmom
Zn  Zn0  1  0.05681254  0.95765348  0.48554882  1  1.323356  0  0.681133  0.986978  0  2.360618  0
Zn  Zn1  1  0.05680981  0.09915938  0.45765479  1  1.325095  0  0.681298  0.9871  0  2.360411  0
Zn  Zn2  1  0.94318503  0.98554481  0.45764613  1  1.323438  0  0.681065  0.987003  0  2.360559  0
Zn  Zn3  1  0.94320319  0.95764924  0.59916157  1  1.325108  0  0.681152  0.986923  0  2.360613  0
Zn  Zn4  1  0.94319126  0.54234835  0.01445124  1  1.323267  0  0.681153  0.987026  0  2.360712  0
Zn  Zn5  1  0.05681820  0.51445957  0.04235226  1  1.323699  0  0.681089  0.986893  0  2.360737  0
Zn  Zn6  1  0.94319148  0.40084174  0.04234952  1  1.325112  0  0.681307  0.987167  0  2.360493  0
Zn  Zn7  1  0.05679509  0.54234683  0.90083915  1  1.325193  0  0.681179  0.987005  0  2.360585  0
C  C8  1  0.18099076  0.09050615  0.40950868  1  1.594358  0  0.226228  0.625453  0  4.142069  0
C  C9  1  0.00000064  0.13684930  0.36315512  1  1.615347  0  0.230286  0.629572  0  4.121804  0
C  C10  1  0.99999350  0.90950687  0.40950753  1  1.617834  0  0.226602  0.626492  0  4.141244  0
C  C11  1  0.81901511  0.90950187  0.59050826  1  1.595229  0  0.226601  0.62593  0  4.14154  0
C  C12  1  0.00000528  0.86315510  0.63684860  1  1.614985  0  0.230159  0.629357  0  4.122184  0
C  C13  1  0.99999583  0.09049091  0.59050228  1  1.649411  0  0.226258  0.625756  0  4.141872  0
C  C14  1  0.99999819  0.59048239  0.09050457  1  1.617522  0  0.226399  0.62581  0  4.141736  0
C  C15  1  0.00000431  0.36315437  0.13684577  1  1.615103  0  0.23023  0.629461  0  4.121932  0
C  C16  1  0.81901077  0.40949471  0.09048317  1  1.595169  0  0.226498  0.626224  0  4.141399  0
C  C17  1  0.99998867  0.40949374  0.90951749  1  1.649943  0  0.226375  0.625544  0  4.142043  0
C  C18  1  0.99999741  0.63684436  0.86315112  1  1.614706  0  0.230255  0.629542  0  4.121953  0
C  C19  1  0.18098667  0.59048734  0.90948954  1  1.59559  0  0.226615  0.626406  0  4.141334  0
C  C20  1  0.00000400  0.80509158  0.69490866  1  0.056788  0  -0.014995  -0.098188  0  3.843874  0
C  C21  1  0.99999865  0.69490887  0.80509109  1  0.056625  0  -0.015014  -0.098278  0  3.843805  0
C  C22  1  0.95721997  0.77690034  0.76587718  1  -0.027828  0  -0.014061  0.049365  0  3.871029  0
C  C23  1  0.04278312  0.72310054  0.73412268  1  -0.027567  0  -0.014031  0.049412  0  3.871095  0
C  C24  1  0.95721848  0.72309660  0.81968091  1  -0.031264  0  -0.014037  0.049404  0  3.870963  0
C  C25  1  0.04278484  0.77690401  0.68031899  1  -0.031588  0  -0.014067  0.049349  0  3.871007  0
C  C26  1  0.99999879  0.19490873  0.30509144  1  0.057158  0  -0.015071  -0.098269  0  3.843586  0
C  C27  1  0.00000513  0.30509501  0.19490980  1  0.057197  0  -0.014965  -0.098014  0  3.843565  0
C  C28  1  0.95721984  0.18032055  0.27689642  1  -0.033092  0  -0.013984  0.049453  0  3.870546  0
C  C29  1  0.04278426  0.31968390  0.22310447  1  -0.032661  0  -0.013998  0.049327  0  3.87071  0
C  C30  1  0.95722057  0.23412612  0.22309136  1  -0.026746  0  -0.014066  0.049368  0  3.870409  0
C  C31  1  0.04278315  0.26587690  0.27691022  1  -0.026901  0  -0.014046  0.049463  0  3.870391  0
C  C32  1  0.99999956  0.62821041  0.12823232  1  0.078001  0  -0.016775  -0.129538  0  3.841163  0
C  C33  1  0.95683593  0.65778280  0.13550594  1  0.057717  0  0.018616  0.081147  0  3.990027  0
C  C34  1  0.95716359  0.69276926  0.17061052  1  0.162366  0  0.014807  0.049244  0  3.999711  0
C  C35  1  0.99998983  0.69970811  0.19973962  1  0.239346  0  -0.003245  0.050274  0  4.092535  0
C  C36  1  0.04282437  0.67059431  0.19280408  1  0.160781  0  0.01465  0.049373  0  3.999397  0
C  C37  1  0.04316047  0.63549721  0.15781233  1  0.05849  0  0.018491  0.08087  0  3.99041  0
C  C38  1  0.99998514  0.73477864  0.23481819  1  -0.250099  0  -0.035973  -0.059945  0  4.105681  0
C  C39  1  0.99998037  0.76517870  0.26522530  1  -0.045902  0  -0.035667  -0.059152  0  4.105538  0
C  C40  1  0.99997317  0.80024930  0.30030293  1  0.238546  0  -0.00333  0.049896  0  4.092836  0
C  C41  1  0.95715580  0.82938490  0.30721708  1  0.161008  0  0.014708  0.049314  0  3.999805  0
C  C42  1  0.95682828  0.86448904  0.34220220  1  0.058847  0  0.018642  0.081206  0  3.990325  0
C  C43  1  0.99997702  0.87175957  0.37179823  1  0.078033  0  -0.016945  -0.130181  0  3.841833  0
C  C44  1  0.04311732  0.84216064  0.36455044  1  0.057856  0  0.018588  0.081032  0  3.99012  0
C  C45  1  0.04278470  0.80716766  0.32945202  1  0.162771  0  0.014816  0.049601  0  3.999406  0
C  C46  1  0.00000242  0.37176160  0.87179508  1  0.039283  0  -0.016839  -0.129559  0  3.841248  0
C  C47  1  0.04317021  0.40763569  0.79906308  1  0.066669  0  0.018695  0.081125  0  3.990144  0
C  C48  1  0.04283651  0.37220442  0.76440546  1  0.176759  0  0.01473  0.049179  0  3.999783  0
C  C49  1  0.00000300  0.30025940  0.80029316  1  0.20317  0  -0.003266  0.050157  0  4.092562  0
C  C50  1  0.95717480  0.26436823  0.87224174  1  0.176879  0  0.014699  0.04942  0  3.999292  0
C  C51  1  0.95684337  0.29902605  0.90767504  1  0.074747  0  0.018481  0.080868  0  3.990134  0
C  C52  1  0.99999589  0.26519009  0.76521482  1  -0.04458  0  -0.035962  -0.059767  0  4.10562  0
C  C53  1  0.99998990  0.23479118  0.73480674  1  -0.24946  0  -0.035759  -0.05939  0  4.105446  0
C  C54  1  0.99997686  0.19971950  0.69973106  1  0.202729  0  -0.003198  0.050102  0  4.092327  0
C  C55  1  0.04278659  0.23561602  0.62777842  1  0.177314  0  0.014666  0.049344  0  3.999659  0
C  C56  1  0.04311818  0.20095992  0.59234399  1  0.075256  0  0.018855  0.08144  0  3.990061  0
C  C57  1  0.99997819  0.12822115  0.62822572  1  0.039481  0  -0.016901  -0.130091  0  3.842116  0
C  C58  1  0.95682692  0.09233924  0.70096293  1  0.065552  0  0.018739  0.081262  0  3.990212  0
C  C59  1  0.95715863  0.12776903  0.73562256  1  0.176691  0  0.014705  0.049375  0  3.999487  0
C  C60  1  0.74355712  0.37176891  0.12821580  1  0.089635  0  -0.016758  -0.129834  0  3.841759  0
C  C61  1  0.70670213  0.40764997  0.13548748  1  0.058125  0  0.018715  0.081406  0  3.990027  0
C  C62  1  0.63661201  0.37222042  0.17058220  1  0.151709  0  0.014687  0.049063  0  3.999873  0
C  C63  1  0.60055268  0.30027025  0.19971313  1  0.110213  0  -0.003145  0.050475  0  4.092305  0
C  C64  1  0.63660894  0.26437558  0.19279481  1  0.052813  0  0.014674  0.049251  0  3.999512  0
C  C65  1  0.70669859  0.29903131  0.15780676  1  0.174883  0  0.018582  0.08102  0  3.990163  0
C  C66  1  0.53040475  0.26520241  0.23478097  1  0.13786  0  -0.036004  -0.059906  0  4.10568  0
C  C67  1  0.46959798  0.23480746  0.26517569  1  -0.322762  0  -0.03569  -0.059282  0  4.105506  0
C  C68  1  0.39944990  0.19973792  0.30024259  1  0.254999  0  -0.003295  0.0499  0  4.092699  0
C  C69  1  0.36339445  0.23562975  0.30717804  1  0.052278  0  0.014611  0.04939  0  3.999584  0
C  C70  1  0.29330372  0.20097242  0.34217038  1  0.175712  0  0.01874  0.081264  0  3.989888  0
C  C71  1  0.25644515  0.12823583  0.37175262  1  0.088586  0  -0.016822  -0.129692  0  3.841734  0
C  C72  1  0.29330095  0.09236234  0.36445686  1  0.05986  0  0.01856  0.081049  0  3.990362  0
C  C73  1  0.36339040  0.12779174  0.32935949  1  0.151176  0  0.014768  0.049419  0  3.999719  0
C  C74  1  0.25644237  0.62820793  0.87176335  1  0.089544  0  -0.016888  -0.130055  0  3.842001  0
C  C75  1  0.29330697  0.63546835  0.90764612  1  0.058302  0  0.018813  0.081429  0  3.989878  0
C  C76  1  0.36339694  0.67056419  0.87221760  1  0.152339  0  0.014682  0.049326  0  3.999775  0
C  C77  1  0.39944984  0.69970497  0.80026450  1  0.11072  0  -0.003315  0.049797  0  4.092497  0
C  C78  1  0.36338527  0.69278678  0.76436802  1  0.053141  0  0.014784  0.04968  0  3.999377  0
C  C79  1  0.29329354  0.65779956  0.79902405  1  0.174044  0  0.018578  0.081007  0  3.990505  0
C  C80  1  0.46959771  0.73477947  0.76519696  1  -0.181363  0  -0.035851  -0.059442  0  4.105633  0
C  C81  1  0.53040465  0.76518080  0.73480923  1  -0.003543  0  -0.035797  -0.059616  0  4.105556  0
C  C82  1  0.60055352  0.80025320  0.69974097  1  0.255  0  -0.003273  0.050172  0  4.092557  0
C  C83  1  0.63661738  0.80719295  0.73563329  1  0.052664  0  0.0146  0.049376  0  3.999445  0
C  C84  1  0.70670987  0.84218871  0.70097447  1  0.175079  0  0.018641  0.080989  0  3.990196  0
C  C85  1  0.74355855  0.87176437  0.62823767  1  0.087628  0  -0.016861  -0.129565  0  3.84118  0
C  C86  1  0.70669478  0.86447474  0.59236166  1  0.059929  0  0.018664  0.081058  0  3.990098  0
C  C87  1  0.63660642  0.82937325  0.62779192  1  0.151681  0  0.01481  0.049298  0  3.999892  0
Br  Br88  1  0.89695679  0.80876172  0.79427163  1  0.029223  0  0.039106  -0.018394  0  1.635569  0
Br  Br89  1  0.10304562  0.69123901  0.70572766  1  0.029628  0  0.039069  -0.018431  0  1.635552  0
Br  Br90  1  0.89695397  0.69122581  0.91180847  1  0.03137  0  0.039079  -0.01843  0  1.635564  0
Br  Br91  1  0.10304999  0.80877594  0.58819120  1  0.031129  0  0.039076  -0.018447  0  1.635519  0
Br  Br92  1  0.89695511  0.08819895  0.30874683  1  0.02608  0  0.03908  -0.01846  0  1.635383  0
Br  Br93  1  0.10304817  0.41180363  0.19125505  1  0.026041  0  0.039037  -0.018482  0  1.63556  0
Br  Br94  1  0.89696113  0.20573962  0.19121089  1  0.034782  0  0.039036  -0.018479  0  1.635503  0
Br  Br95  1  0.10304346  0.29426428  0.30878966  1  0.034751  0  0.039007  -0.01853  0  1.635546  0
Cl  Cl96  1  0.90179402  0.65407754  0.10330438  1  -0.128937  0  0.008884  -0.027225  0  1.646255  0
Cl  Cl97  1  0.09820005  0.60330109  0.15412209  1  -0.129739  0  0.008945  -0.027108  0  1.646233  0
Cl  Cl98  1  0.09434372  0.67951604  0.22848479  1  -0.162413  0  0.008026  -0.043918  0  1.605488  0
Cl  Cl99  1  0.90564178  0.72844103  0.17952095  1  -0.157967  0  0.007884  -0.044019  0  1.605669  0
Cl  Cl100  1  0.90565525  0.82048667  0.27151471  1  -0.162703  0  0.007995  -0.043934  0  1.605684  0
Cl  Cl101  1  0.09429306  0.77148035  0.32055890  1  -0.157508  0  0.007869  -0.044185  0  1.605939  0
Cl  Cl102  1  0.09812405  0.84582082  0.39679632  1  -0.128847  0  0.008893  -0.027021  0  1.646262  0
Cl  Cl103  1  0.90179639  0.89669701  0.34588292  1  -0.129161  0  0.008884  -0.027173  0  1.646091  0
Cl  Cl104  1  0.09823461  0.49486641  0.74773110  1  -0.118753  0  0.008838  -0.027211  0  1.6462  0
Cl  Cl105  1  0.90181939  0.24768559  0.99491089  1  -0.127312  0  0.008916  -0.027109  0  1.646269  0
Cl  Cl106  1  0.90565336  0.17717751  0.91483925  1  -0.160779  0  0.008005  -0.043947  0  1.605501  0
Cl  Cl107  1  0.09436126  0.41480352  0.67721540  1  -0.157083  0  0.007968  -0.043903  0  1.605766  0
Cl  Cl108  1  0.09429448  0.32280925  0.58517526  1  -0.159396  0  0.00791  -0.044101  0  1.606099  0
Cl  Cl109  1  0.90565805  0.08516458  0.82281788  1  -0.156173  0  0.00797  -0.043981  0  1.605525  0
Cl  Cl110  1  0.90179035  0.00510268  0.75229965  1  -0.118144  0  0.00881  -0.027263  0  1.646088  0
Cl  Cl111  1  0.09812316  0.25230729  0.50510029  1  -0.127004  0  0.008793  -0.027204  0  1.646122  0
Cl  Cl112  1  0.74260062  0.49488864  0.10327212  1  -0.126989  0  0.008697  -0.027362  0  1.646069  0
Cl  Cl113  1  0.74259458  0.24768629  0.15414350  1  -0.12386  0  0.008859  -0.027127  0  1.646182  0
Cl  Cl114  1  0.59201460  0.17718007  0.22849014  1  -0.168403  0  0.007983  -0.043953  0  1.605689  0
Cl  Cl115  1  0.59202303  0.41482559  0.17948252  1  -0.147137  0  0.008015  -0.043912  0  1.605854  0
Cl  Cl116  1  0.40798813  0.32281939  0.27150941  1  -0.168373  0  0.007965  -0.04403  0  1.60575  0
Cl  Cl117  1  0.40797892  0.08519185  0.32043305  1  -0.146907  0  0.00797  -0.043981  0  1.605773  0
Cl  Cl118  1  0.25740033  0.00513092  0.39662250  1  -0.128076  0  0.008915  -0.027149  0  1.64621  0
Cl  Cl119  1  0.25740947  0.25231448  0.34585096  1  -0.124187  0  0.008778  -0.027284  0  1.646073  0
Cl  Cl120  1  0.25741597  0.60323815  0.99489144  1  -0.126807  0  0.00866  -0.02735  0  1.646009  0
Cl  Cl121  1  0.25738906  0.65411745  0.74768090  1  -0.123714  0  0.008908  -0.02713  0  1.646339  0
Cl  Cl122  1  0.40797132  0.72848186  0.67717151  1  -0.168311  0  0.007949  -0.044067  0  1.605626  0
Cl  Cl123  1  0.40799146  0.67946448  0.91482605  1  -0.148444  0  0.007942  -0.04403  0  1.606113  0
Cl  Cl124  1  0.59203037  0.77151970  0.82282559  1  -0.168126  0  0.007968  -0.044032  0  1.605648  0
Cl  Cl125  1  0.59200910  0.82045359  0.58518867  1  -0.147571  0  0.007968  -0.043887  0  1.605809  0
Cl  Cl126  1  0.74258630  0.89666193  0.50512449  1  -0.127765  0  0.008699  -0.027366  0  1.646137  0
Cl  Cl127  1  0.74261281  0.84588014  0.75231606  1  -0.123755  0  0.008911  -0.027108  0  1.646271  0
O  O128  1  0.00000093  0.00000133  0.50000005  1  -1.234189  0  -0.572675  -1.036987  0  2.53581  0
O  O129  1  0.15158686  0.02580342  0.43424863  1  -1.161127  0  -0.313607  -0.543888  0  2.438808  0
O  O130  1  0.03948665  0.15381884  0.38566221  1  -1.177673  0  -0.313861  -0.541233  0  2.483618  0
O  O131  1  0.96000593  0.93421623  0.41419580  1  -1.161383  0  -0.313952  -0.544382  0  2.438795  0
O  O132  1  0.15158999  0.12579563  0.41419694  1  -1.16039  0  -0.313868  -0.544012  0  2.439191  0
O  O133  1  0.03999007  0.91421787  0.43420420  1  -1.161486  0  -0.313795  -0.544312  0  2.438885  0
O  O134  1  0.96049875  0.07484929  0.38566568  1  -1.176299  0  -0.31379  -0.541498  0  2.482804  0
O  O135  1  0.84841185  0.93422791  0.52580660  1  -1.161383  0  -0.313798  -0.544148  0  2.438734  0
O  O136  1  0.96053129  0.88567019  0.65382496  1  -1.176702  0  -0.313803  -0.541175  0  2.483291  0
O  O137  1  0.84842094  0.91418490  0.62580192  1  -1.160591  0  -0.313966  -0.544196  0  2.439183  0
O  O138  1  0.03948392  0.88565577  0.57485309  1  -1.176404  0  -0.31371  -0.541222  0  2.483196  0
O  O139  1  0.03998362  0.12578102  0.52581021  1  -1.175898  0  -0.313786  -0.544063  0  2.438762  0
O  O140  1  0.96002397  0.02579438  0.62579498  1  -1.176434  0  -0.313729  -0.544023  0  2.43914  0
O  O141  1  0.00000176  0.50000036  0.99999943  1  -1.234306  0  -0.572702  -1.037007  0  2.535899  0
O  O142  1  0.96002569  0.58580217  0.06577711  1  -1.161521  0  -0.313766  -0.544109  0  2.43904  0
O  O143  1  0.03950874  0.42515596  0.11433054  1  -1.17633  0  -0.313744  -0.541359  0  2.482647  0
O  O144  1  0.84841078  0.37420706  0.08578650  1  -1.160398  0  -0.313981  -0.544366  0  2.438881  0
O  O145  1  0.03997859  0.56576266  0.08582709  1  -1.160945  0  -0.313819  -0.544078  0  2.438974  0
O  O146  1  0.84841537  0.47419188  0.06577355  1  -1.161688  0  -0.313761  -0.544203  0  2.438619  0
O  O147  1  0.96051388  0.34618409  0.11434369  1  -1.177434  0  -0.313883  -0.541326  0  2.483762  0
O  O148  1  0.96001672  0.37419868  0.97421377  1  -1.176695  0  -0.313906  -0.544109  0  2.439405  0
O  O149  1  0.03947446  0.61433232  0.84617553  1  -1.176841  0  -0.313852  -0.541283  0  2.483239  0
O  O150  1  0.03994956  0.47419374  0.87421791  1  -1.176125  0  -0.313665  -0.543896  0  2.438909  0
O  O151  1  0.96051285  0.61433828  0.92514680  1  -1.176227  0  -0.313794  -0.541338  0  2.483302  0
O  O152  1  0.15158969  0.56579268  0.97418425  1  -1.161698  0  -0.313828  -0.544226  0  2.438811  0
O  O153  1  0.15157942  0.58578994  0.87419993  1  -1.160577  0  -0.314008  -0.544455  0  2.438813  0
