# generated using pymatgen
data_PrH13C26S(N2O3)2
_symmetry_space_group_name_H-M   'P 1'
_cell_length_a   9.89464260
_cell_length_b   13.31827756
_cell_length_c   19.46023266
_cell_angle_alpha   90.00001427
_cell_angle_beta   89.99993447
_cell_angle_gamma   91.61155877
_symmetry_Int_Tables_number   1
_chemical_formula_structural   PrH13C26S(N2O3)2
_chemical_formula_sum   'Pr4 H52 C104 S4 N16 O24'
_cell_volume   2563.44726497
_cell_formula_units_Z   4
loop_
 _symmetry_equiv_pos_site_id
 _symmetry_equiv_pos_as_xyz
  1  'x, y, z'
loop_
 _atom_site_type_symbol
 _atom_site_label
 _atom_site_symmetry_multiplicity
 _atom_site_fract_x
 _atom_site_fract_y
 _atom_site_fract_z
 _atom_site_occupancy
 _atom_site_pbe_bader_charge
 _atom_site_pbe_bader_spin_density
 _atom_site_pbe_cm5_charge
 _atom_site_pbe_ddec_charge
 _atom_site_pbe_ddec_spin_density
 _atom_site_pbe_ddec_sum_bond_order
 _atom_site_pbe_magmom
Pr  Pr0  1  0.55478276  0.12997987  0.54565263  1  2.225983  0  1.503247  1.969913  0  2.246447  0
Pr  Pr1  1  0.94521680  0.37002041  0.04565286  1  2.225986  0  1.503237  1.969927  0  2.24641  0
Pr  Pr2  1  0.44521652  0.87001955  0.45434703  1  2.226057  0  1.50323  1.969901  0  2.246471  0
Pr  Pr3  1  0.05478248  0.62997901  0.95434680  1  2.225967  0  1.503234  1.969954  0  2.246393  0
H  H4  1  0.20975273  0.64249220  0.46199704  1  0.551417  0  0.31223  0.29528  0  0.9972  0
H  H5  1  0.29024633  0.85750861  0.96199722  1  0.551409  0  0.312243  0.295291  0  0.997166  0
H  H6  1  0.79024557  0.35750797  0.53800313  1  0.551384  0  0.312218  0.295277  0  0.997156  0
H  H7  1  0.70975396  0.14249081  0.03800295  1  0.551409  0  0.31223  0.295281  0  0.997142  0
H  H8  1  0.74374057  0.80254344  0.64341662  1  0.052536  0  0.100499  0.098543  0  1.011704  0
H  H9  1  0.75626026  0.69745858  0.14341436  1  0.05257  0  0.100467  0.098513  0  1.011745  0
H  H10  1  0.25625876  0.19745748  0.35658458  1  0.052567  0  0.100482  0.098535  0  1.011694  0
H  H11  1  0.24374205  0.30254085  0.85658530  1  0.052602  0  0.10048  0.098545  0  1.011672  0
H  H12  1  0.89382397  0.65548259  0.64390012  1  0.059963  0  0.102003  0.106075  0  1.010516  0
H  H13  1  0.60617784  0.84451868  0.14389900  1  0.060198  0  0.102004  0.106095  0  1.010521  0
H  H14  1  0.10617735  0.34451758  0.35610109  1  0.060209  0  0.102007  0.106106  0  1.010507  0
H  H15  1  0.39382447  0.15548074  0.85610117  1  0.060198  0  0.102015  0.106102  0  1.010494  0
H  H16  1  0.09047317  0.77042316  0.46077459  1  0.084297  0  0.109561  0.109627  0  1.033596  0
H  H17  1  0.40952387  0.72957765  0.96077469  1  0.084329  0  0.109561  0.109609  0  1.033657  0
H  H18  1  0.90952412  0.22957700  0.53922558  1  0.084324  0  0.109552  0.109611  0  1.033655  0
H  H19  1  0.59047644  0.27042253  0.03922600  1  0.084312  0  0.109549  0.109616  0  1.033647  0
H  H20  1  0.94844502  0.91703058  0.46273528  1  0.095399  0  0.11032  0.116933  0  0.992103  0
H  H21  1  0.55154994  0.58296853  0.96273555  1  0.095374  0  0.110273  0.116892  0  0.992192  0
H  H22  1  0.05155121  0.08296808  0.53726489  1  0.095368  0  0.110287  0.116905  0  0.992136  0
H  H23  1  0.44844934  0.41703089  0.03726462  1  0.095379  0  0.110285  0.116911  0  0.992118  0
H  H24  1  0.36847969  0.54848146  0.39370592  1  0.105259  0  0.109263  0.112884  0  1.020959  0
H  H25  1  0.13152053  0.95151933  0.89370621  1  0.105256  0  0.109295  0.112939  0  1.02103  0
H  H26  1  0.63151961  0.45151871  0.60629322  1  0.105247  0  0.109262  0.112866  0  1.020973  0
H  H27  1  0.86847981  0.04848159  0.10629396  1  0.105261  0  0.109245  0.112892  0  1.020844  0
H  H28  1  0.53927261  0.43687598  0.33998194  1  0.080192  0  0.112918  0.120476  0  0.979231  0
H  H29  1  0.96072829  0.06312364  0.83998249  1  0.080205  0  0.112905  0.120489  0  0.97917  0
H  H30  1  0.46072769  0.56312344  0.66001720  1  0.080203  0  0.112911  0.120478  0  0.979209  0
H  H31  1  0.03927303  0.93687653  0.16001717  1  0.080211  0  0.112892  0.12046  0  0.979136  0
H  H32  1  0.60055868  0.27921102  0.40131365  1  0.118732  0  0.109895  0.070137  0  1.073411  0
H  H33  1  0.89944213  0.22079013  0.90131375  1  0.119145  0  0.109906  0.070133  0  1.073396  0
H  H34  1  0.39944166  0.72078990  0.59868652  1  0.11915  0  0.109872  0.070082  0  1.073394  0
H  H35  1  0.10055818  0.77921004  0.09868591  1  0.11873  0  0.109896  0.070113  0  1.073419  0
H  H36  1  0.34962485  0.13663218  0.68428412  1  0.149027  0  0.119737  0.08608  0  1.044478  0
H  H37  1  0.15037445  0.36336984  0.18428350  1  0.148988  0  0.119738  0.086074  0  1.044463  0
H  H38  1  0.65037248  0.86336948  0.31571656  1  0.148982  0  0.119732  0.086068  0  1.044465  0
H  H39  1  0.84962587  0.63663033  0.81571616  1  0.148967  0  0.119739  0.086085  0  1.044448  0
H  H40  1  0.17451811  0.22934199  0.74982708  1  0.058075  0  0.108103  0.111607  0  0.997967  0
H  H41  1  0.32548004  0.27066005  0.24982685  1  0.058032  0  0.108104  0.111653  0  0.997975  0
H  H42  1  0.82547925  0.77066043  0.25017258  1  0.058015  0  0.108094  0.111642  0  0.997986  0
H  H43  1  0.67451927  0.72934012  0.75017281  1  0.058018  0  0.108104  0.111649  0  0.997967  0
H  H44  1  0.09209955  0.39177690  0.70097878  1  0.123648  0  0.109097  0.114884  0  1.026335  0
H  H45  1  0.40789871  0.10822512  0.20098002  1  0.123678  0  0.109103  0.114917  0  1.026326  0
H  H46  1  0.90790087  0.60822628  0.29901985  1  0.12368  0  0.109102  0.114879  0  1.026375  0
H  H47  1  0.59210060  0.89177504  0.79902067  1  0.123678  0  0.109095  0.11488  0  1.02634  0
H  H48  1  0.86177746  0.42540934  0.64000087  1  0.13913  0  0.107939  0.118751  0  1.031541  0
H  H49  1  0.63822488  0.07458947  0.14000072  1  0.139119  0  0.107968  0.118755  0  1.031532  0
H  H50  1  0.13822281  0.57458933  0.35999827  1  0.139141  0  0.107973  0.118767  0  1.03155  0
H  H51  1  0.36177744  0.92540995  0.85999946  1  0.139113  0  0.107961  0.118748  0  1.031533  0
H  H52  1  0.94076986  0.51549903  0.75373896  1  0.129282  0  0.119323  0.13812  0  0.990309  0
H  H53  1  0.55923058  0.98449852  0.25373790  1  0.129252  0  0.11929  0.138047  0  0.990342  0
H  H54  1  0.05922940  0.48449963  0.24626070  1  0.129264  0  0.119314  0.138085  0  0.990314  0
H  H55  1  0.44077171  0.01550016  0.74626176  1  0.129262  0  0.119303  0.138079  0  0.990323  0
C  C56  1  0.74277900  0.95626659  0.55096964  1  1.57037  0  0.225786  0.635053  0  4.15259  0
C  C57  1  0.75721997  0.54373390  0.05096890  1  1.569664  0  0.22583  0.635169  0  4.152412  0
C  C58  1  0.25722031  0.04373358  0.44903156  1  1.570366  0  0.225824  0.63514  0  4.152511  0
C  C59  1  0.24277934  0.45626627  0.94903025  1  1.569673  0  0.225792  0.635106  0  4.152514  0
C  C60  1  0.83498505  0.86904010  0.55274708  1  -0.036483  0  -0.005373  -0.012829  0  3.946124  0
C  C61  1  0.66501287  0.63095963  0.05274589  1  -0.03646  0  -0.005375  -0.012865  0  3.946148  0
C  C62  1  0.16501322  0.13095932  0.44725464  1  -0.036471  0  -0.005382  -0.012839  0  3.946092  0
C  C63  1  0.33498744  0.36904054  0.94725377  1  -0.036446  0  -0.005386  -0.01288  0  3.946091  0
C  C64  1  0.82041327  0.79497996  0.60368326  1  -0.033004  0  -0.089383  -0.111469  0  4.000189  0
C  C65  1  0.67958763  0.70502130  0.10368208  1  -0.032986  0  -0.089295  -0.11133  0  4.000141  0
C  C66  1  0.17958705  0.20502021  0.39631794  1  -0.032979  0  -0.089309  -0.111372  0  4.000143  0
C  C67  1  0.32041468  0.29497813  0.89631810  1  -0.03314  0  -0.089352  -0.111442  0  4.000142  0
C  C68  1  0.90350650  0.71255239  0.60393297  1  0.016724  0  -0.087485  -0.11291  0  3.992931  0
C  C69  1  0.59649338  0.78744887  0.10393133  1  0.016589  0  -0.087565  -0.113065  0  3.993093  0
C  C70  1  0.09649280  0.28744778  0.39606823  1  0.016602  0  -0.087539  -0.113051  0  3.993077  0
C  C71  1  0.40350795  0.21255130  0.89606832  1  0.016727  0  -0.087504  -0.112938  0  3.992994  0
C  C72  1  0.00101480  0.70106100  0.55203919  1  -0.028533  0  -0.009366  0.000548  0  4.036813  0
C  C73  1  0.49898419  0.79894043  0.05203836  1  -0.028577  0  -0.009272  0.000677  0  4.036896  0
C  C74  1  0.99898349  0.29893916  0.44796201  1  -0.028544  0  -0.009341  0.000663  0  4.036826  0
C  C75  1  0.50101613  0.20105974  0.94796233  1  -0.028565  0  -0.009302  0.000615  0  4.036908  0
C  C76  1  0.01498647  0.77571503  0.50122634  1  -0.002528  0  -0.080745  -0.102706  0  3.949187  0
C  C77  1  0.48501058  0.72428563  0.00122601  1  -0.002714  0  -0.08068  -0.102603  0  3.949103  0
C  C78  1  0.98501081  0.22428513  0.49877435  1  -0.002727  0  -0.080687  -0.102696  0  3.949218  0
C  C79  1  0.51499074  0.27571455  0.99877416  1  -0.002728  0  -0.080674  -0.102657  0  3.949128  0
C  C80  1  0.93405056  0.85942763  0.50204313  1  -0.035237  0  -0.079642  -0.094311  0  3.957724  0
C  C81  1  0.56594647  0.64057209  0.00204252  1  -0.035201  0  -0.079717  -0.094422  0  3.957884  0
C  C82  1  0.06594670  0.14057179  0.49795755  1  -0.035216  0  -0.079681  -0.094363  0  3.957792  0
C  C83  1  0.43405486  0.35942809  0.99795766  1  -0.035196  0  -0.079699  -0.09437  0  3.95772  0
C  C84  1  0.08487383  0.61265935  0.55177555  1  0.979012  0  0.220546  0.30104  0  4.008784  0
C  C85  1  0.41512511  0.88734058  0.05177426  1  0.978994  0  0.220549  0.301015  0  4.008845  0
C  C86  1  0.91512653  0.38734232  0.44822565  1  0.979021  0  0.220569  0.301054  0  4.00882  0
C  C87  1  0.58487521  0.11265959  0.94822540  1  0.979008  0  0.220522  0.301011  0  4.008861  0
C  C88  1  0.17577651  0.47246749  0.57793553  1  0.463291  0  0.084938  0.088917  0  4.103542  0
C  C89  1  0.32422501  0.02753300  0.07793628  1  0.463272  0  0.084917  0.088886  0  4.103574  0
C  C90  1  0.82422487  0.52753419  0.42206465  1  0.463787  0  0.084913  0.088914  0  4.103523  0
C  C91  1  0.67577526  0.97246567  0.92206440  1  0.463875  0  0.084931  0.088934  0  4.103499  0
C  C92  1  0.23588414  0.50442242  0.51617572  1  0.387567  0  0.092183  0.086442  0  4.042444  0
C  C93  1  0.26411695  0.99557901  0.01617607  1  0.38757  0  0.092183  0.086458  0  4.042398  0
C  C94  1  0.76411622  0.49557926  0.48382394  1  0.387037  0  0.092167  0.086397  0  4.042466  0
C  C95  1  0.73588433  0.00441966  0.98382410  1  0.387031  0  0.092157  0.086405  0  4.04247  0
C  C96  1  0.33507099  0.44897477  0.48072544  1  0.05046  0  0.001127  -0.014751  0  4.005369  0
C  C97  1  0.16493063  0.05102585  0.98072564  1  0.050445  0  0.00112  -0.014756  0  4.005286  0
C  C98  1  0.66493039  0.55102690  0.51927474  1  0.050446  0  0.001147  -0.014685  0  4.005372  0
C  C99  1  0.83506966  0.94897358  0.01927505  1  0.0505  0  0.001146  -0.014675  0  4.005429  0
C  C100  1  0.39550397  0.47802173  0.41786338  1  -0.042128  0  -0.067053  -0.064325  0  3.924367  0
C  C101  1  0.10449673  0.02197736  0.91786310  1  -0.042152  0  -0.067103  -0.064372  0  3.924366  0
C  C102  1  0.60449632  0.52197769  0.58213679  1  -0.04212  0  -0.06705  -0.064285  0  3.924318  0
C  C103  1  0.89550452  0.97802056  0.08213605  1  -0.042122  0  -0.067055  -0.064361  0  3.924394  0
C  C104  1  0.48987696  0.41685301  0.38833133  1  -0.029514  0  -0.085964  -0.131613  0  3.993641  0
C  C105  1  0.01012380  0.08314608  0.88833162  1  -0.029499  0  -0.086024  -0.131769  0  3.993523  0
C  C106  1  0.51012232  0.58314641  0.61166833  1  -0.029505  0  -0.085973  -0.131683  0  3.993608  0
C  C107  1  0.98987649  0.91685334  0.11166804  1  -0.029517  0  -0.085954  -0.131649  0  3.99363  0
C  C108  1  0.52469648  0.32834475  0.42240747  1  0.489942  0  0.049389  0.100749  0  3.984398  0
C  C109  1  0.97530426  0.17165565  0.92240803  1  0.489562  0  0.049448  0.100865  0  3.984184  0
C  C110  1  0.47530383  0.67165542  0.57759168  1  0.489558  0  0.049443  0.10086  0  3.984224  0
C  C111  1  0.02469707  0.82834452  0.07759215  1  0.489946  0  0.049407  0.100816  0  3.98432  0
C  C112  1  0.37572119  0.35735116  0.51181292  1  0.468505  0  0.12348  0.133091  0  3.975037  0
C  C113  1  0.12427842  0.14264855  0.01181278  1  0.468518  0  0.123513  0.133133  0  3.975009  0
C  C114  1  0.62427910  0.64264826  0.48818725  1  0.468488  0  0.123515  0.13309  0  3.975072  0
C  C115  1  0.87572083  0.85735012  0.98818687  1  0.468441  0  0.123464  0.133005  0  3.97503  0
C  C116  1  0.31737376  0.32455104  0.57696221  1  0.488596  0  0.121874  0.128285  0  3.977047  0
C  C117  1  0.18262573  0.17544945  0.07696256  1  0.488623  0  0.121865  0.128297  0  3.977096  0
C  C118  1  0.68262561  0.67545138  0.42303797  1  0.488635  0  0.121824  0.128289  0  3.977083  0
C  C119  1  0.81737355  0.82454997  0.92303813  1  0.488604  0  0.121828  0.128274  0  3.977173  0
C  C120  1  0.31061322  0.20669125  0.66482651  1  0.524579  0  0.056379  0.116284  0  3.961073  0
C  C121  1  0.18938713  0.29331077  0.16482637  1  0.52458  0  0.056366  0.116291  0  3.961002  0
C  C122  1  0.68938613  0.79331042  0.33517315  1  0.524579  0  0.056375  0.116287  0  3.960972  0
C  C123  1  0.81061321  0.70669016  0.83517278  1  0.524604  0  0.05634  0.116235  0  3.961024  0
C  C124  1  0.21253386  0.25913476  0.70114317  1  -0.022006  0  -0.082672  -0.126629  0  3.984388  0
C  C125  1  0.28746434  0.24086576  0.20114347  1  -0.021982  0  -0.08271  -0.126721  0  3.984439  0
C  C126  1  0.78746446  0.74086615  0.29885597  1  -0.021987  0  -0.082725  -0.126747  0  3.984433  0
C  C127  1  0.71253597  0.75913442  0.79885567  1  -0.022003  0  -0.082699  -0.126688  0  3.984416  0
C  C128  1  0.16654853  0.34779523  0.67417383  1  -0.043367  0  -0.063138  -0.055918  0  3.916007  0
C  C129  1  0.33345177  0.15220603  0.17417409  1  -0.043382  0  -0.063149  -0.055981  0  3.916062  0
C  C130  1  0.83345287  0.65220719  0.32582583  1  -0.043371  0  -0.063097  -0.055871  0  3.915999  0
C  C131  1  0.66654854  0.84779414  0.82582557  1  -0.043373  0  -0.063127  -0.055913  0  3.916003  0
C  C132  1  0.21732533  0.38211574  0.61049575  1  -0.010195  0  0.003273  -0.005826  0  3.986113  0
C  C133  1  0.28267510  0.11788475  0.11049604  1  -0.01018  0  0.003264  -0.005838  0  3.986134  0
C  C134  1  0.78267604  0.61788593  0.38950442  1  -0.010139  0  0.003262  -0.005858  0  3.986015  0
C  C135  1  0.71732517  0.88211392  0.88950414  1  -0.010178  0  0.003263  -0.005866  0  3.986125  0
C  C136  1  0.69028917  0.24696557  0.65304083  1  1.570627  0  0.188633  0.582353  0  4.26839  0
C  C137  1  0.80971111  0.25303324  0.15304164  1  1.570633  0  0.188677  0.582416  0  4.268232  0
C  C138  1  0.30970811  0.75303459  0.34695883  1  1.570625  0  0.188584  0.582319  0  4.268351  0
C  C139  1  0.19028918  0.74696618  0.84695854  1  1.570631  0  0.188671  0.582431  0  4.268349  0
C  C140  1  0.75410570  0.31406085  0.70417125  1  -0.246463  0  -0.024491  -0.124631  0  3.980542  0
C  C141  1  0.74589250  0.18593948  0.20417259  1  -0.246762  0  -0.024482  -0.124627  0  3.980527  0
C  C142  1  0.24589161  0.68594006  0.29582790  1  -0.246754  0  -0.024495  -0.124595  0  3.980523  0
C  C143  1  0.25410782  0.81406070  0.79582810  1  -0.246765  0  -0.024473  -0.124612  0  3.980521  0
C  C144  1  0.83269712  0.39985777  0.69112154  1  0.033022  0  -0.096532  -0.117203  0  4.024342  0
C  C145  1  0.66730406  0.10014031  0.19112137  1  0.033015  0  -0.096567  -0.117247  0  4.024328  0
C  C146  1  0.16730216  0.60014165  0.30887812  1  0.03302  0  -0.096566  -0.117276  0  4.024382  0
C  C147  1  0.33269825  0.89985912  0.80887880  1  0.032998  0  -0.096578  -0.117262  0  4.024334  0
C  C148  1  0.87518499  0.44853842  0.75174568  1  -0.056006  0  -0.094194  -0.115866  0  3.999158  0
C  C149  1  0.62481605  0.05145967  0.25174553  1  -0.055957  0  -0.094126  -0.115698  0  3.999125  0
C  C150  1  0.12481530  0.55146100  0.24825398  1  -0.056293  0  -0.094146  -0.11571  0  3.999071  0
C  C151  1  0.37518623  0.94853900  0.74825464  1  -0.055972  0  -0.094148  -0.115749  0  3.999084  0
C  C152  1  0.82890428  0.39912446  0.81039504  1  -0.212097  0  -0.019759  -0.130294  0  3.960289  0
C  C153  1  0.67109661  0.10087291  0.31039538  1  -0.212122  0  -0.019787  -0.130294  0  3.960294  0
C  C154  1  0.17110003  0.60087422  0.18960462  1  -0.211823  0  -0.019811  -0.130402  0  3.960324  0
C  C155  1  0.32890365  0.89912576  0.68960530  1  -0.21212  0  -0.019783  -0.130335  0  3.960304  0
C  C156  1  0.86149645  0.43104160  0.88149182  1  1.595242  0  0.229913  0.648244  0  4.203973  0
C  C157  1  0.63850226  0.06895578  0.38149320  1  1.595284  0  0.22983  0.648077  0  4.203915  0
C  C158  1  0.13850384  0.56895782  0.11850681  1  1.594829  0  0.229933  0.648302  0  4.203774  0
C  C159  1  0.36150000  0.93104215  0.61850851  1  1.595226  0  0.229828  0.648117  0  4.204018  0
S  S160  1  0.73300749  0.29314583  0.79095182  1  0.287033  0  0.123192  0.19646  0  2.84748  0
S  S161  1  0.76699046  0.20685302  0.29095264  1  0.287382  0  0.123203  0.19645  0  2.847519  0
S  S162  1  0.26699280  0.70685359  0.20904784  1  0.287341  0  0.123184  0.196444  0  2.847558  0
S  S163  1  0.23300884  0.79314715  0.70904805  1  0.287388  0  0.123197  0.196457  0  2.847531  0
N  N164  1  0.47052611  0.29928483  0.48227830  1  -1.235584  0  -0.362584  -0.362143  0  3.479935  0
N  N165  1  0.02947447  0.20071504  0.98227860  1  -1.235608  0  -0.362611  -0.362166  0  3.479927  0
N  N166  1  0.52947421  0.70071534  0.51772085  1  -1.235615  0  -0.362631  -0.3622  0  3.479916  0
N  N167  1  0.97052582  0.79928439  0.01772157  1  -1.235608  0  -0.362562  -0.362093  0  3.47988  0
N  N168  1  0.36200010  0.23806480  0.60489659  1  -1.252026  0  -0.372721  -0.364158  0  3.487389  0
N  N169  1  0.13799935  0.26193645  0.10489698  1  -1.252037  0  -0.372677  -0.364108  0  3.48748  0
N  N170  1  0.63799922  0.76193612  0.39510358  1  -1.252074  0  -0.37269  -0.364118  0  3.48746  0
N  N171  1  0.86200094  0.73806297  0.89510319  1  -1.252019  0  -0.372656  -0.364083  0  3.487416  0
N  N172  1  0.08155206  0.53966247  0.59923900  1  -1.159164  0  -0.337879  -0.402728  0  3.18548  0
N  N173  1  0.41844783  0.96033898  0.09923875  1  -1.159145  0  -0.337898  -0.40277  0  3.185483  0
N  N174  1  0.91844931  0.46033921  0.40076117  1  -1.15915  0  -0.337879  -0.402771  0  3.185514  0
N  N175  1  0.58155246  0.03966044  0.90076142  1  -1.159189  0  -0.33787  -0.402731  0  3.185439  0
N  N176  1  0.17731112  0.59370197  0.50060809  1  -1.295159  0  -0.374495  -0.302127  0  3.570157  0
N  N177  1  0.32268894  0.90629794  0.00060840  1  -1.29516  0  -0.374459  -0.302046  0  3.570176  0
N  N178  1  0.82268821  0.40629895  0.49939208  1  -1.295114  0  -0.374461  -0.302064  0  3.570093  0
N  N179  1  0.67731236  0.09370148  0.99939177  1  -1.295128  0  -0.374452  -0.302057  0  3.570146  0
O  O180  1  0.78306277  0.04328961  0.56806030  1  -1.159845  0  -0.343427  -0.580543  0  2.135297  0
O  O181  1  0.71693255  0.45670616  0.06805914  1  -1.15918  0  -0.34349  -0.580627  0  2.135062  0
O  O182  1  0.21693654  0.95671056  0.43194038  1  -1.159838  0  -0.343457  -0.580603  0  2.135227  0
O  O183  1  0.28306675  0.54329401  0.93194052  1  -1.159183  0  -0.343484  -0.580618  0  2.135108  0
O  O184  1  0.61985267  0.93860736  0.53097146  1  -1.225182  0  -0.441488  -0.740743  0  2.401067  0
O  O185  1  0.88014432  0.56139311  0.03097167  1  -1.22512  0  -0.441446  -0.740749  0  2.401096  0
O  O186  1  0.38014668  0.06139431  0.46902872  1  -1.225167  0  -0.441474  -0.740753  0  2.401086  0
O  O187  1  0.11985496  0.43860630  0.96902747  1  -1.225109  0  -0.441411  -0.740692  0  2.401107  0
O  O188  1  0.70208042  0.27252273  0.58882115  1  -1.207095  0  -0.390669  -0.649396  0  2.277099  0
O  O189  1  0.79792200  0.22747531  0.08882144  1  -1.207072  0  -0.390688  -0.649428  0  2.27713  0
O  O190  1  0.29791585  0.72747743  0.41117903  1  -1.207117  0  -0.390594  -0.64937  0  2.277069  0
O  O191  1  0.20207832  0.77252486  0.91117873  1  -1.207077  0  -0.390676  -0.649441  0  2.277155  0
O  O192  1  0.62384978  0.16889346  0.67105964  1  -1.173357  0  -0.361099  -0.590053  0  2.167938  0
O  O193  1  0.87615051  0.33110686  0.17105991  1  -1.17336  0  -0.361133  -0.59011  0  2.167876  0
O  O194  1  0.37614950  0.83110596  0.32894002  1  -1.173336  0  -0.361107  -0.590042  0  2.16799  0
O  O195  1  0.12384983  0.66889406  0.82893975  1  -1.173356  0  -0.361126  -0.590094  0  2.167973  0
O  O196  1  0.91746749  0.51770768  0.88625126  1  -1.194522  0  -0.399994  -0.640937  0  2.363992  0
O  O197  1  0.58252661  0.98229064  0.38625121  1  -1.194663  0  -0.399944  -0.640819  0  2.363985  0
O  O198  1  0.08253078  0.48229173  0.11374840  1  -1.194558  0  -0.400023  -0.640953  0  2.363947  0
O  O199  1  0.41747366  0.01770803  0.61374999  1  -1.194579  0  -0.399992  -0.640831  0  2.363888  0
O  O200  1  0.83487106  0.37164707  0.93138023  1  -1.198411  0  -0.38468  -0.632687  0  2.233902  0
O  O201  1  0.66512862  0.12835258  0.43138109  1  -1.198406  0  -0.384656  -0.632641  0  2.233821  0
O  O202  1  0.16512925  0.62835310  0.06861943  1  -1.19799  0  -0.384672  -0.632697  0  2.233794  0
O  O203  1  0.33487172  0.87164834  0.56862011  1  -1.198376  0  -0.384619  -0.632644  0  2.233964  0
