# generated using pymatgen
data_CuH18C14(NO)4
_symmetry_space_group_name_H-M   'P 1'
_cell_length_a   8.24860736
_cell_length_b   8.57620284
_cell_length_c   23.99661169
_cell_angle_alpha   90.98242017
_cell_angle_beta   90.00038751
_cell_angle_gamma   89.99944483
_symmetry_Int_Tables_number   1
_chemical_formula_structural   CuH18C14(NO)4
_chemical_formula_sum   'Cu4 H72 C56 N16 O16'
_cell_volume   1697.31228519
_cell_formula_units_Z   4
loop_
 _symmetry_equiv_pos_site_id
 _symmetry_equiv_pos_as_xyz
  1  'x, y, z'
loop_
 _atom_site_type_symbol
 _atom_site_label
 _atom_site_symmetry_multiplicity
 _atom_site_fract_x
 _atom_site_fract_y
 _atom_site_fract_z
 _atom_site_occupancy
 _atom_site_pbe_bader_charge
 _atom_site_pbe_bader_spin_density
 _atom_site_pbe_cm5_charge
 _atom_site_pbe_ddec_charge
 _atom_site_pbe_ddec_spin_density
 _atom_site_pbe_ddec_sum_bond_order
 _atom_site_pbe_magmom
Cu  Cu0  1  0.68722379  0.75000497  0.75000107  1  1.047137  0.567504  0.728491  0.750882  0.727548  2.24963  0.565
Cu  Cu1  1  0.31276792  0.24999043  0.24999973  1  1.047039  0.567505  0.728443  0.750803  0.727549  2.249714  0.565
Cu  Cu2  1  0.00000236  0.50000003  0.49999941  1  1.04058  0.561332  0.724848  0.746089  0.721878  2.182353  0.562
Cu  Cu3  1  0.00000970  0.00000915  0.00000264  1  1.040719  0.561334  0.72486  0.746217  0.72188  2.182083  0.562
H  H4  1  0.00521382  0.58631309  0.63467060  1  0.219979  0.000177  0.135409  0.120449  -0.000101  1.046673  0.0
H  H5  1  0.00520594  0.91368709  0.86532558  1  0.220418  0.000177  0.135398  0.120437  -0.000101  1.046675  0.0
H  H6  1  0.99479729  0.41369070  0.36532700  1  0.220076  0.000177  0.135414  0.120431  -0.000101  1.046682  0.0
H  H7  1  0.99479305  0.08631892  0.13467372  1  0.220241  0.000178  0.135382  0.120403  -0.0001  1.04677  0.0
H  H8  1  0.21553266  0.22014829  0.53894450  1  0.133439  0.000512  0.122856  0.119952  0.000145  1.012405  0.001
H  H9  1  0.21554255  0.27984309  0.96105279  1  0.133531  0.000512  0.122807  0.119889  0.000146  1.012466  0.001
H  H10  1  0.78446269  0.77985090  0.46105219  1  0.133476  0.000512  0.122807  0.119837  0.000145  1.01259  0.001
H  H11  1  0.78446735  0.72015234  0.03894759  1  0.133553  0.000512  0.122828  0.119879  0.000145  1.012534  0.001
H  H12  1  0.30529451  0.18896134  0.65029831  1  0.0975  0.001013  0.125351  0.123158  0.000507  1.004824  0.001
H  H13  1  0.30530191  0.31102922  0.84969918  1  0.09692  0.001013  0.125354  0.123121  0.000507  1.004844  0.001
H  H14  1  0.69469599  0.81103199  0.34969871  1  0.096888  0.001013  0.125337  0.123094  0.000507  1.004806  0.001
H  H15  1  0.69470435  0.68897437  0.15030132  1  0.09699  0.001013  0.125363  0.12309  0.000507  1.004885  0.001
H  H16  1  0.15660167  0.55093247  0.72680131  1  0.076581  5.7e-05  0.125201  0.121283  3.8e-05  0.950978  0.0
H  H17  1  0.15659526  0.94906395  0.77319559  1  0.076501  5.7e-05  0.125186  0.12125  3.8e-05  0.951064  0.0
H  H18  1  0.84340944  0.44906436  0.27319576  1  0.076508  5.7e-05  0.1252  0.121257  3.8e-05  0.951084  0.0
H  H19  1  0.84340615  0.05094197  0.22680495  1  0.076417  5.7e-05  0.125202  0.121289  3.8e-05  0.951063  0.0
H  H20  1  0.29319649  0.39151567  0.73184165  1  0.069614  0.000327  0.104095  0.078109  0.000174  1.002551  0.0
H  H21  1  0.29319342  0.10847853  0.76815545  1  0.069895  0.000327  0.1041  0.078135  0.000174  1.002559  0.0
H  H22  1  0.70680613  0.60847303  0.26815488  1  0.069898  0.000327  0.104094  0.078152  0.000174  1.002531  0.0
H  H23  1  0.70680435  0.89153092  0.23184473  1  0.070007  0.000327  0.104097  0.078182  0.000174  1.002519  0.0
H  H24  1  0.05000583  0.37764250  0.79612474  1  0.028599  7.2e-05  0.094559  0.094262  1.9e-05  1.009195  0.0
H  H25  1  0.04999894  0.12236083  0.70387316  1  0.028536  7.2e-05  0.094535  0.094212  1.9e-05  1.009215  0.0
H  H26  1  0.94999558  0.62236476  0.20387332  1  0.028559  7.2e-05  0.094534  0.094214  1.9e-05  1.009215  0.0
H  H27  1  0.94999277  0.87763803  0.29612811  1  0.028482  7.2e-05  0.094536  0.09422  1.9e-05  1.009216  0.0
H  H28  1  0.92139476  0.38233913  0.73821603  1  0.054402  -3.2e-05  0.092086  0.091925  -8.5e-05  1.026895  0.0
H  H29  1  0.92139027  0.11766801  0.76178195  1  0.054672  -3.2e-05  0.092083  0.091894  -8.5e-05  1.026934  0.0
H  H30  1  0.07860665  0.61766697  0.26178201  1  0.054682  -3.2e-05  0.092101  0.091956  -8.5e-05  1.0269  0.0
H  H31  1  0.07860751  0.88233663  0.23822024  1  0.054728  -3.2e-05  0.092075  0.091863  -8.5e-05  1.026967  0.0
H  H32  1  0.63083151  0.68391832  0.61920689  1  0.184698  0.00028  0.14294  0.114717  3.2e-05  1.009389  0.0
H  H33  1  0.63082734  0.81608762  0.88079297  1  0.184779  0.00028  0.142925  0.114751  3.2e-05  1.009302  0.0
H  H34  1  0.36916747  0.31608061  0.38079355  1  0.18465  0.00028  0.142943  0.114752  3.2e-05  1.009432  0.0
H  H35  1  0.36916922  0.18391247  0.11920749  1  0.184773  0.00028  0.142931  0.114767  3.2e-05  1.009278  0.0
H  H36  1  0.64557139  0.38476836  0.75583920  1  0.15694  0.00043  0.115978  0.111282  0.000103  1.052535  0.001
H  H37  1  0.64556779  0.11524796  0.74416326  1  0.156423  0.00043  0.11601  0.111346  0.000103  1.05239  0.001
H  H38  1  0.35441790  0.61523060  0.24416082  1  0.156604  0.00043  0.116017  0.111337  0.000103  1.052427  0.001
H  H39  1  0.35443241  0.88475103  0.25583635  1  0.156431  0.00043  0.115991  0.111317  0.000103  1.052451  0.001
H  H40  1  0.60659749  0.20491726  0.65761534  1  0.136719  0.001101  0.124537  0.127934  0.000686  1.020782  0.001
H  H41  1  0.60659641  0.29509117  0.84238815  1  0.136567  0.001102  0.124581  0.127924  0.000686  1.020723  0.001
H  H42  1  0.39339422  0.79508050  0.34238508  1  0.136739  0.001101  0.124546  0.127921  0.000686  1.020715  0.001
H  H43  1  0.39340742  0.70490782  0.15761145  1  0.136556  0.001102  0.124578  0.127893  0.000686  1.020748  0.001
H  H44  1  0.51281300  0.29055507  0.56021454  1  0.0338  9.7e-05  0.108368  0.086641  6.2e-05  0.985047  0.0
H  H45  1  0.51280984  0.20944723  0.93978863  1  0.03371  9.7e-05  0.108344  0.086573  6.2e-05  0.985074  0.0
H  H46  1  0.48718720  0.70944042  0.43978501  1  0.032642  9.7e-05  0.108378  0.086677  6.2e-05  0.985041  0.0
H  H47  1  0.48719278  0.79055520  0.06021186  1  0.032517  9.7e-05  0.10834  0.086638  6.2e-05  0.985069  0.0
H  H48  1  0.71017552  0.35832652  0.54493855  1  0.128136  -0.000102  0.107651  0.100368  -0.000284  1.035711  0.0
H  H49  1  0.71017214  0.14167760  0.95506305  1  0.128123  -0.000102  0.107643  0.100301  -0.000284  1.035765  0.0
H  H50  1  0.28982831  0.64167124  0.45506187  1  0.128087  -0.000102  0.107668  0.100393  -0.000285  1.035734  0.0
H  H51  1  0.28983291  0.85832843  0.04493583  1  0.128116  -0.000102  0.107656  0.100381  -0.000285  1.035781  0.0
H  H52  1  0.60534299  0.62419033  0.52891919  1  0.045082  -5.1e-05  0.093262  0.089293  -6.7e-05  1.004997  0.0
H  H53  1  0.60534726  0.87581351  0.97108058  1  0.04511  -5.1e-05  0.093235  0.089308  -6.7e-05  1.005002  0.0
H  H54  1  0.39465721  0.37580632  0.47108039  1  0.045067  -5.1e-05  0.093278  0.089345  -6.7e-05  1.004991  0.0
H  H55  1  0.39466385  0.12419349  0.02892123  1  0.045038  -5.1e-05  0.093227  0.08926  -6.7e-05  1.005062  0.0
H  H56  1  0.40758524  0.56933279  0.55016480  1  0.060474  -1.4e-05  0.094557  0.101196  -1.5e-05  0.997997  0.0
H  H57  1  0.40758733  0.93067048  0.94983531  1  0.060513  -1.4e-05  0.094554  0.101194  -1.5e-05  0.998022  0.0
H  H58  1  0.59241738  0.43066386  0.44983477  1  0.060434  -1.4e-05  0.094575  0.101198  -1.5e-05  0.998002  0.0
H  H59  1  0.59242136  0.06933063  0.05016725  1  0.060404  -1.4e-05  0.094588  0.101234  -1.5e-05  0.997983  0.0
H  H60  1  0.03449706  0.02983825  0.54463242  1  0.046881  0.001425  0.09802  0.110841  0.000636  1.01662  0.001
H  H61  1  0.03450370  0.47015693  0.95536741  1  0.046879  0.001425  0.097999  0.110861  0.000636  1.016565  0.001
H  H62  1  0.96549708  0.97016301  0.45536805  1  0.046855  0.001426  0.098008  0.110876  0.000636  1.016553  0.001
H  H63  1  0.96550014  0.52983976  0.04463175  1  0.046842  0.001425  0.098013  0.11086  0.000636  1.01654  0.001
H  H64  1  0.12258543  0.95140225  0.60448608  1  0.042022  0.000865  0.097525  0.112749  0.000348  0.992341  0.0
H  H65  1  0.12258061  0.54859429  0.89551366  1  0.042061  0.000865  0.097537  0.112802  0.000348  0.992253  0.0
H  H66  1  0.87741113  0.04860711  0.39551535  1  0.042018  0.000865  0.097556  0.112779  0.000348  0.992326  0.0
H  H67  1  0.87741473  0.45140129  0.10448465  1  0.042046  0.000865  0.097547  0.112785  0.000348  0.992311  0.0
H  H68  1  0.85493775  0.09709162  0.61881209  1  0.036394  -0.000304  0.096351  0.109406  -0.000372  0.989111  0.0
H  H69  1  0.85493514  0.40290890  0.88118897  1  0.036614  -0.000304  0.096325  0.109349  -0.000372  0.989109  0.0
H  H70  1  0.14504668  0.90290168  0.38118535  1  0.036279  -0.000304  0.096353  0.109421  -0.000372  0.98902  0.0
H  H71  1  0.14504930  0.59709556  0.11881572  1  0.036309  -0.000305  0.096342  0.109412  -0.000372  0.989008  0.0
H  H72  1  0.75511018  0.94854093  0.58106759  1  0.0459  0.00016  0.098888  0.118222  3.1e-05  0.970383  0.0
H  H73  1  0.75510942  0.55145311  0.91893614  1  0.045488  0.00016  0.09889  0.118176  3.1e-05  0.97043  0.0
H  H74  1  0.24488760  0.05144059  0.41893133  1  0.04566  0.00016  0.098861  0.118168  3.1e-05  0.970485  0.0
H  H75  1  0.24488956  0.44855718  0.08106864  1  0.046  0.00016  0.098892  0.118198  3.1e-05  0.970472  0.0
C  C76  1  0.07079500  0.48093902  0.62259963  1  0.932703  -0.000849  0.144292  0.102615  -0.001134  3.840678  0.0
C  C77  1  0.07079619  0.01905827  0.87739864  1  0.932204  -0.000847  0.144358  0.102698  -0.001133  3.840628  0.0
C  C78  1  0.92920641  0.51906244  0.37739793  1  0.93243  -0.000848  0.144328  0.10267  -0.001134  3.840664  0.0
C  C79  1  0.92920401  0.98094526  0.12260270  1  0.932408  -0.000848  0.144355  0.102703  -0.001135  3.840788  0.0
C  C80  1  0.18421708  0.28980359  0.57538011  1  0.39071  0.000908  -0.000307  -0.028809  0.000493  4.014694  0.001
C  C81  1  0.18422210  0.21018808  0.92461711  1  0.390719  0.000907  -0.000269  -0.028785  0.000492  4.014967  0.001
C  C82  1  0.81577342  0.71019556  0.42461700  1  0.390717  0.000908  -0.00035  -0.02889  0.000494  4.015119  0.001
C  C83  1  0.81578415  0.78981088  0.07538291  1  0.39069  0.000908  -0.000297  -0.028818  0.000494  4.015  0.001
C  C84  1  0.22920104  0.27369407  0.63001068  1  0.311972  0.003378  -0.001599  -0.118014  0.002241  3.947447  0.002
C  C85  1  0.22921090  0.22629716  0.86998705  1  0.312607  0.003377  -0.001583  -0.117868  0.00224  3.947575  0.002
C  C86  1  0.77079188  0.72629576  0.36998628  1  0.312618  0.003377  -0.001514  -0.117735  0.00224  3.947755  0.002
C  C87  1  0.77079536  0.77370529  0.13001302  1  0.312341  0.003378  -0.001522  -0.117702  0.002241  3.94755  0.002
C  C88  1  0.16978991  0.42488716  0.71947668  1  0.317884  0.00111  -0.047987  -0.061602  0.000826  3.858005  0.001
C  C89  1  0.16978621  0.07510930  0.78052058  1  0.317504  0.00111  -0.047972  -0.061631  0.000827  3.857999  0.001
C  C90  1  0.83021392  0.57510853  0.28051996  1  0.317483  0.00111  -0.047985  -0.061632  0.000827  3.858063  0.001
C  C91  1  0.83021156  0.92489784  0.21947915  1  0.317409  0.00111  -0.048041  -0.061807  0.000826  3.858182  0.001
C  C92  1  0.03944624  0.33906031  0.75232954  1  0.025608  -9.5e-05  -0.168341  -0.172132  -0.00015  3.927251  0.0
C  C93  1  0.03944346  0.16094080  0.74766830  1  -0.062497  -9.6e-05  -0.1683  -0.172062  -0.00015  3.92729  0.0
C  C94  1  0.96055396  0.66094343  0.24766888  1  -0.062466  -9.6e-05  -0.168372  -0.172152  -0.00015  3.927277  0.0
C  C95  1  0.96055189  0.83906282  0.25233179  1  0.025435  -9.5e-05  -0.16829  -0.172018  -0.00015  3.927324  0.0
C  C96  1  0.62876405  0.57907309  0.64350761  1  0.978879  0.000167  0.149222  0.113812  -0.000102  3.876353  0.001
C  C97  1  0.62875350  0.92093514  0.85649311  1  0.978193  0.000167  0.149305  0.113788  -0.000101  3.87619  0.001
C  C98  1  0.37123130  0.42092586  0.35649241  1  0.978894  0.000167  0.149206  0.113691  -0.000101  3.876541  0.001
C  C99  1  0.37124064  0.07906609  0.14350778  1  0.9782  0.000167  0.149268  0.113753  -0.000101  3.876103  0.001
C  C100  1  0.63598009  0.41818202  0.71278704  1  0.296017  0.001213  -0.009226  -0.044012  0.000663  4.044094  0.001
C  C101  1  0.63597524  0.08183092  0.78721492  1  0.295955  0.001214  -0.009207  -0.043935  0.000663  4.0439  0.001
C  C102  1  0.36400313  0.58181921  0.28721385  1  0.296381  0.001213  -0.009313  -0.044131  0.000663  4.043998  0.001
C  C103  1  0.36402132  0.91816804  0.21278510  1  0.295931  0.001213  -0.009195  -0.043896  0.000663  4.043869  0.001
C  C104  1  0.61616824  0.32980274  0.66490176  1  0.358703  0.003076  -0.004607  -0.133418  0.002057  3.948471  0.002
C  C105  1  0.61615980  0.17020682  0.83510094  1  0.35868  0.003076  -0.004775  -0.133609  0.002057  3.948638  0.002
C  C106  1  0.38382953  0.67019612  0.33509951  1  0.358587  0.003077  -0.004671  -0.133518  0.002057  3.948533  0.002
C  C107  1  0.38384040  0.82979450  0.16489871  1  0.35873  0.003076  -0.004743  -0.133523  0.002057  3.948568  0.002
C  C108  1  0.59223682  0.39317367  0.56243745  1  0.284067  0.000881  -0.054909  -0.067918  0.000574  3.869903  0.001
C  C109  1  0.59223587  0.10683153  0.93756388  1  0.284694  0.00088  -0.054926  -0.067837  0.000574  3.86994  0.001
C  C110  1  0.40776459  0.60682292  0.43756296  1  0.285226  0.00088  -0.05497  -0.068108  0.000574  3.870125  0.001
C  C111  1  0.40776918  0.89317328  0.06243582  1  0.285252  0.00088  -0.05493  -0.068062  0.000574  3.870163  0.001
C  C112  1  0.51893254  0.52642740  0.52980880  1  -0.015923  7e-06  -0.162419  -0.165333  -9.9e-05  3.923933  0.0
C  C113  1  0.51893580  0.97357604  0.97019116  1  -0.016458  7e-06  -0.16237  -0.165322  -9.8e-05  3.923912  0.0
C  C114  1  0.48107008  0.47357036  0.47019162  1  -0.042411  8e-06  -0.162496  -0.165458  -9.9e-05  3.92398  0.0
C  C115  1  0.48107409  0.02642872  0.02980936  1  -0.042105  8e-06  -0.162452  -0.16541  -9.9e-05  3.924002  0.0
C  C116  1  0.03837755  0.78462391  0.54583218  1  1.54152  -0.001819  0.190808  0.606207  -0.002979  4.176334  -0.004
C  C117  1  0.03838310  0.71537232  0.95416610  1  1.541308  -0.001818  0.190891  0.606384  -0.002979  4.176154  -0.004
C  C118  1  0.96163598  0.21537968  0.45416833  1  1.541842  -0.001819  0.190895  0.606449  -0.002979  4.175917  -0.004
C  C119  1  0.96162679  0.28462433  0.04583347  1  1.541397  -0.001818  0.190745  0.606244  -0.002979  4.176365  -0.004
C  C120  1  0.01820032  0.94031978  0.57630339  1  -0.022878  0.014607  -0.170924  -0.2777  0.010094  3.965755  0.011
C  C121  1  0.01819715  0.55967649  0.92369692  1  -0.02287  0.014605  -0.170984  -0.277964  0.010094  3.965754  0.011
C  C122  1  0.98179745  0.05968262  0.42369751  1  -0.022854  0.014606  -0.170967  -0.277795  0.010094  3.965687  0.011
C  C123  1  0.98180062  0.44032014  0.07630307  1  -0.022725  0.014602  -0.170941  -0.277768  0.010092  3.965667  0.011
C  C124  1  0.86136462  0.97198294  0.60759692  1  -0.016162  0.009874  -0.16939  -0.267872  0.007378  3.95222  0.007
C  C125  1  0.86136116  0.52801616  0.89240423  1  -0.015937  0.009873  -0.169327  -0.267635  0.007377  3.95224  0.007
C  C126  1  0.13862831  0.02800905  0.39240258  1  -0.015753  0.009874  -0.169368  -0.267861  0.007378  3.952246  0.007
C  C127  1  0.13863298  0.47198728  0.10759836  1  -0.016156  0.009873  -0.169373  -0.267808  0.007377  3.952117  0.007
C  C128  1  0.84349228  0.88047617  0.66122868  1  1.552131  0.000242  0.190901  0.597458  -0.000339  4.186973  -0.002
C  C129  1  0.84348079  0.61952765  0.83877416  1  1.552699  0.000239  0.191005  0.597575  -0.00034  4.186732  -0.002
C  C130  1  0.15650428  0.11951812  0.33877127  1  1.552543  0.000242  0.190922  0.597572  -0.00034  4.186816  -0.002
C  C131  1  0.15651092  0.38047350  0.16122798  1  1.552133  0.000241  0.190886  0.59739  -0.00034  4.186936  -0.002
N  N132  1  0.08513663  0.41879863  0.57124997  1  -1.174472  0.073531  -0.376014  -0.292329  0.049162  3.635754  0.064
N  N133  1  0.08514062  0.08119853  0.92874834  1  -1.174316  0.073532  -0.376015  -0.292365  0.049163  3.635737  0.064
N  N134  1  0.91486236  0.58120277  0.42874842  1  -1.174016  0.07353  -0.37595  -0.292225  0.049162  3.635533  0.064
N  N135  1  0.91486443  0.91880501  0.07125300  1  -1.174383  0.073529  -0.376006  -0.292344  0.049163  3.635772  0.064
N  N136  1  0.15775592  0.39577653  0.65922859  1  -1.259307  0.002327  -0.240372  0.04983  0.00118  3.752811  0.002
N  N137  1  0.15775190  0.10421882  0.84076946  1  -1.259418  0.002327  -0.240394  0.049778  0.00118  3.752863  0.002
N  N138  1  0.84223942  0.60421557  0.34076925  1  -1.259528  0.002326  -0.240397  0.049743  0.00118  3.753136  0.002
N  N139  1  0.84224588  0.89578710  0.15923109  1  -1.259199  0.002326  -0.240404  0.049741  0.00118  3.753035  0.002
N  N140  1  0.64465943  0.57318803  0.69884550  1  -1.229158  0.06805  -0.38569  -0.302123  0.045029  3.672798  0.058
N  N141  1  0.64465015  0.92682352  0.80115572  1  -1.228856  0.068047  -0.385778  -0.302223  0.045026  3.672792  0.058
N  N142  1  0.35533714  0.42681320  0.30115539  1  -1.229142  0.068051  -0.385673  -0.302013  0.045029  3.67276  0.058
N  N143  1  0.35534519  0.07317654  0.19884515  1  -1.228915  0.068048  -0.385751  -0.302201  0.045027  3.672709  0.058
N  N144  1  0.61130102  0.43385709  0.62162190  1  -1.231088  0.00259  -0.23765  0.054028  0.00135  3.767462  0.002
N  N145  1  0.61130053  0.06615135  0.87838077  1  -1.230745  0.002591  -0.237546  0.05422  0.00135  3.767267  0.002
N  N146  1  0.38869191  0.56614058  0.37837977  1  -1.231037  0.00259  -0.2375  0.054319  0.00135  3.767412  0.002
N  N147  1  0.38869966  0.93385224  0.12161974  1  -1.23035  0.00259  -0.237552  0.054239  0.00135  3.767375  0.002
O  O148  1  0.95618584  0.79864699  0.67943270  1  -1.189755  0.001668  -0.326971  -0.559582  7.5e-05  2.134777  0.002
O  O149  1  0.95617437  0.70135576  0.82057082  1  -1.189863  0.001668  -0.327053  -0.559629  7.5e-05  2.134595  0.002
O  O150  1  0.04381315  0.20134958  0.32056812  1  -1.190049  0.001667  -0.326947  -0.559594  7.5e-05  2.13479  0.002
O  O151  1  0.04381613  0.29864882  0.17943221  1  -1.189732  0.001668  -0.326996  -0.559577  7.5e-05  2.134769  0.002
O  O152  1  0.70233528  0.89582092  0.68532689  1  -1.121838  0.122462  -0.349343  -0.576167  0.077626  2.275657  0.11
O  O153  1  0.70232347  0.60418175  0.81467726  1  -1.122237  0.122456  -0.349347  -0.57626  0.077624  2.275548  0.11
O  O154  1  0.29766492  0.10417909  0.31467482  1  -1.121894  0.122459  -0.349362  -0.576256  0.077625  2.27556  0.11
O  O155  1  0.29767067  0.39581363  0.18532396  1  -1.12183  0.122455  -0.349292  -0.576122  0.077624  2.275592  0.11
O  O156  1  0.91425069  0.69154976  0.54245050  1  -1.117254  0.122728  -0.33144  -0.551614  0.078116  2.257042  0.11
O  O157  1  0.91425900  0.80845002  0.95755078  1  -1.117129  0.12273  -0.331488  -0.551728  0.078116  2.256944  0.11
O  O158  1  0.08576163  0.30845182  0.45754539  1  -1.117539  0.122711  -0.331444  -0.551677  0.078107  2.256917  0.11
O  O159  1  0.08575817  0.19155465  0.04245099  1  -1.117138  0.122715  -0.331415  -0.551667  0.078107  2.257111  0.11
O  O160  1  0.17339665  0.75433826  0.52430904  1  -1.195879  0.003527  -0.342341  -0.585554  0.001375  2.146534  0.004
O  O161  1  0.17340110  0.74565778  0.97569123  1  -1.195952  0.003525  -0.342384  -0.585643  0.001374  2.146484  0.004
O  O162  1  0.82662174  0.24566734  0.47569608  1  -1.196014  0.003529  -0.342401  -0.585687  0.001376  2.146302  0.004
O  O163  1  0.82661122  0.25433663  0.02430706  1  -1.196137  0.003525  -0.342298  -0.585553  0.001373  2.146502  0.004
