# generated using pymatgen
data_HoAgH8C18(NO2)4
_symmetry_space_group_name_H-M   'P 1'
_cell_length_a   8.49700134
_cell_length_b   17.64207706
_cell_length_c   24.93869198
_cell_angle_alpha   89.99970990
_cell_angle_beta   90.00020239
_cell_angle_gamma   89.99963958
_symmetry_Int_Tables_number   1
_chemical_formula_structural   HoAgH8C18(NO2)4
_chemical_formula_sum   'Ho8 Ag8 H64 C144 N32 O64'
_cell_volume   3738.42844652
_cell_formula_units_Z   8
loop_
 _symmetry_equiv_pos_site_id
 _symmetry_equiv_pos_as_xyz
  1  'x, y, z'
loop_
 _atom_site_type_symbol
 _atom_site_label
 _atom_site_symmetry_multiplicity
 _atom_site_fract_x
 _atom_site_fract_y
 _atom_site_fract_z
 _atom_site_occupancy
 _atom_site_pbe_bader_charge
 _atom_site_pbe_bader_spin_density
 _atom_site_pbe_cm5_charge
 _atom_site_pbe_ddec_charge
 _atom_site_pbe_ddec_spin_density
 _atom_site_pbe_ddec_sum_bond_order
 _atom_site_pbe_magmom
Ho  Ho0  1  0.83423913  0.21696119  0.97510378  1  2.176839  0  1.538366  2.100913  0  2.146305  0
Ho  Ho1  1  0.33423855  0.28304034  0.02489434  1  2.176807  0  1.538382  2.100849  0  2.146438  0
Ho  Ho2  1  0.33425293  0.78304051  0.47510150  1  2.176776  0  1.538384  2.100907  0  2.146261  0
Ho  Ho3  1  0.83424412  0.71695779  0.52489643  1  2.176802  0  1.538372  2.100854  0  2.146388  0
Ho  Ho4  1  0.66575971  0.21695739  0.52489883  1  2.176775  0  1.538366  2.100919  0  2.146288  0
Ho  Ho5  1  0.16575792  0.28304295  0.47510109  1  2.176868  0  1.538361  2.100908  0  2.14631  0
Ho  Ho6  1  0.16575938  0.78304011  0.02489656  1  2.176878  0  1.538357  2.100859  0  2.146299  0
Ho  Ho7  1  0.66576232  0.71695813  0.97510359  1  2.176776  0  1.538364  2.100871  0  2.146349  0
Ag  Ag8  1  0.53841225  0.04464204  0.27266210  1  0.506141  0  0.483108  0.310544  0  1.910086  0
Ag  Ag9  1  0.03844143  0.45536832  0.72734128  1  0.50611  0  0.483105  0.310547  0  1.910024  0
Ag  Ag10  1  0.03845017  0.95536428  0.77265592  1  0.505935  0  0.4831  0.310551  0  1.910034  0
Ag  Ag11  1  0.53842052  0.54463435  0.22734808  1  0.506207  0  0.483131  0.310544  0  1.910099  0
Ag  Ag12  1  0.96154128  0.04463363  0.22735524  1  0.505907  0  0.483119  0.310627  0  1.909921  0
Ag  Ag13  1  0.46155211  0.45536865  0.77265105  1  0.505791  0  0.483111  0.310594  0  1.90996  0
Ag  Ag14  1  0.46157097  0.95535813  0.72734465  1  0.506273  0  0.483127  0.310551  0  1.910103  0
Ag  Ag15  1  0.96156415  0.54461655  0.27265544  1  0.505665  0  0.483132  0.310598  0  1.910089  0
H  H16  1  0.93624531  0.65375802  0.08917889  1  0.534613  0  0.333314  0.300188  0  0.943459  0
H  H17  1  0.27870503  0.87742301  0.12822505  1  0.57955  0  0.312909  0.295704  0  0.993185  0
H  H18  1  0.04953435  0.51242300  0.04266294  1  0.104309  0  0.111205  0.126096  0  1.031347  0
H  H19  1  0.74066238  0.68666403  0.16454072  1  0.199747  0  0.150175  0.123162  0  0.957291  0
H  H20  1  0.58570939  0.41363923  0.14566322  1  0.094297  0  0.107467  0.120885  0  1.007983  0
H  H21  1  0.10933592  0.99698767  0.06097903  1  0.136892  0  0.122657  0.147327  0  0.978294  0
H  H22  1  0.45126862  0.88495050  0.20678539  1  0.196521  0  0.140927  0.114087  0  0.990833  0
H  H23  1  0.32772857  0.16356397  0.20774697  1  0.080927  0  0.107842  0.125786  0  0.999025  0
H  H24  1  0.43626606  0.84624394  0.91082398  1  0.534247  0  0.333285  0.300267  0  0.943488  0
H  H25  1  0.77868812  0.62257885  0.87177443  1  0.579515  0  0.312896  0.295682  0  0.993323  0
H  H26  1  0.54954181  0.98758070  0.95733947  1  0.104204  0  0.111175  0.126071  0  1.031339  0
H  H27  1  0.24067571  0.81333512  0.83546392  1  0.199744  0  0.150183  0.123125  0  0.957324  0
H  H28  1  0.08570705  0.08635796  0.85433741  1  0.094304  0  0.107484  0.12092  0  1.007962  0
H  H29  1  0.60933185  0.50301188  0.93902025  1  0.136905  0  0.122675  0.147367  0  0.978309  0
H  H30  1  0.95125805  0.61505652  0.79321629  1  0.196972  0  0.140977  0.114099  0  0.990806  0
H  H31  1  0.82773040  0.33643929  0.79224874  1  0.080782  0  0.107838  0.125824  0  0.998996  0
H  H32  1  0.43625824  0.34624104  0.58918010  1  0.534571  0  0.33327  0.300198  0  0.943437  0
H  H33  1  0.77869365  0.12257737  0.62822566  1  0.579518  0  0.312896  0.295685  0  0.993226  0
H  H34  1  0.54954645  0.48757530  0.54266184  1  0.104279  0  0.111144  0.126109  0  1.031286  0
H  H35  1  0.24066867  0.31333678  0.66454045  1  0.199817  0  0.150185  0.12312  0  0.957373  0
H  H36  1  0.08571565  0.58635992  0.64566077  1  0.094407  0  0.107449  0.120877  0  1.007998  0
H  H37  1  0.60933786  0.00301259  0.56097806  1  0.136874  0  0.12267  0.147352  0  0.97831  0
H  H38  1  0.95125969  0.11504994  0.70678643  1  0.196569  0  0.140941  0.114096  0  0.990903  0
H  H39  1  0.82774200  0.83643117  0.70774582  1  0.080867  0  0.107838  0.125766  0  0.999026  0
H  H40  1  0.93625613  0.15376018  0.41082296  1  0.534519  0  0.333298  0.300248  0  0.943445  0
H  H41  1  0.27869544  0.37742206  0.37177761  1  0.579797  0  0.312858  0.295631  0  0.993298  0
H  H42  1  0.04953977  0.01242370  0.45733995  1  0.104138  0  0.111167  0.126111  0  1.031325  0
H  H43  1  0.74067123  0.18666787  0.33546157  1  0.199607  0  0.150165  0.123071  0  0.957349  0
H  H44  1  0.58571781  0.91364310  0.35433526  1  0.094724  0  0.107475  0.120868  0  1.008113  0
H  H45  1  0.10933761  0.49698963  0.43902260  1  0.136893  0  0.122651  0.147336  0  0.978282  0
H  H46  1  0.45125468  0.38494727  0.29321705  1  0.196577  0  0.140915  0.114077  0  0.990859  0
H  H47  1  0.32774458  0.66356261  0.29225411  1  0.081279  0  0.107835  0.125766  0  0.999021  0
H  H48  1  0.56374263  0.65375516  0.41082144  1  0.534321  0  0.333268  0.300181  0  0.943523  0
H  H49  1  0.22131311  0.87742336  0.37177508  1  0.579489  0  0.312879  0.295666  0  0.993244  0
H  H50  1  0.45046266  0.51241977  0.45734050  1  0.104188  0  0.111188  0.126114  0  1.031325  0
H  H51  1  0.75932396  0.68665886  0.33545828  1  0.199614  0  0.15019  0.123164  0  0.957289  0
H  H52  1  0.91428404  0.41363798  0.35433515  1  0.094618  0  0.107478  0.120866  0  1.008116  0
H  H53  1  0.39066654  0.99698872  0.43902107  1  0.136874  0  0.122651  0.14733  0  0.978387  0
H  H54  1  0.04874824  0.88494910  0.29321551  1  0.196595  0  0.140872  0.113999  0  0.99088  0
H  H55  1  0.17226711  0.16356617  0.29225211  1  0.081124  0  0.107813  0.125753  0  0.998998  0
H  H56  1  0.06374238  0.84624339  0.58917658  1  0.534277  0  0.333306  0.300242  0  0.943478  0
H  H57  1  0.72130543  0.62257641  0.62822393  1  0.579551  0  0.312893  0.295676  0  0.99317  0
H  H58  1  0.95045992  0.98757874  0.54266239  1  0.104294  0  0.111169  0.126079  0  1.031347  0
H  H59  1  0.25933317  0.81333400  0.66453636  1  0.199658  0  0.150194  0.123162  0  0.957289  0
H  H60  1  0.41429483  0.08635764  0.64566226  1  0.094332  0  0.107475  0.120895  0  1.007996  0
H  H61  1  0.89065973  0.50301224  0.56097894  1  0.136933  0  0.122654  0.147377  0  0.978249  0
H  H62  1  0.54873560  0.61505120  0.70678409  1  0.196488  0  0.14094  0.114081  0  0.990956  0
H  H63  1  0.67224923  0.33643302  0.70774582  1  0.081202  0  0.107874  0.125802  0  0.999082  0
H  H64  1  0.06374379  0.34624499  0.91082465  1  0.53425  0  0.333274  0.300155  0  0.943555  0
H  H65  1  0.72128642  0.12258056  0.87177368  1  0.579599  0  0.312889  0.295703  0  0.993207  0
H  H66  1  0.95045945  0.48758114  0.95733860  1  0.104188  0  0.111169  0.126105  0  1.031314  0
H  H67  1  0.25932319  0.31333727  0.83546162  1  0.199774  0  0.150223  0.123129  0  0.957325  0
H  H68  1  0.41428559  0.58635981  0.85433510  1  0.094645  0  0.107485  0.12087  0  1.008062  0
H  H69  1  0.89065554  0.00301817  0.93902331  1  0.136737  0  0.12264  0.147289  0  0.978422  0
H  H70  1  0.54872990  0.11505024  0.79321173  1  0.196485  0  0.140935  0.114064  0  0.990852  0
H  H71  1  0.67225935  0.83643620  0.79225698  1  0.081242  0  0.107859  0.1258  0  0.999013  0
H  H72  1  0.56374187  0.15376077  0.08917595  1  0.534475  0  0.333276  0.300229  0  0.943452  0
H  H73  1  0.22130804  0.37741962  0.12822310  1  0.579778  0  0.312869  0.295714  0  0.993278  0
H  H74  1  0.45046023  0.01242287  0.04266087  1  0.104276  0  0.111137  0.126082  0  1.031362  0
H  H75  1  0.75933458  0.18666619  0.16453682  1  0.199707  0  0.150166  0.12309  0  0.957323  0
H  H76  1  0.91429029  0.91364278  0.14566333  1  0.09434  0  0.107458  0.120869  0  1.007986  0
H  H77  1  0.39067019  0.49698659  0.06098049  1  0.136942  0  0.1227  0.147359  0  0.978388  0
H  H78  1  0.04873811  0.38494366  0.20678124  1  0.196459  0  0.140935  0.114051  0  0.990881  0
H  H79  1  0.17227400  0.66356202  0.20774919  1  0.080861  0  0.107829  0.125788  0  0.999016  0
C  C80  1  0.98989041  0.37183901  0.01775306  1  1.583785  0  0.240669  0.661243  0  4.138177  0
C  C81  1  0.89441075  0.41783416  0.05686003  1  -0.033446  0  -0.002355  -0.038582  0  3.889333  0
C  C82  1  0.94539887  0.49248400  0.06353349  1  0.033065  0  -0.083665  -0.173699  0  3.944309  0
C  C83  1  0.86081950  0.53903068  0.09798224  1  0.389543  0  0.107818  0.175377  0  3.981656  0
C  C84  1  0.76299642  0.63032659  0.14883993  1  1.017123  0  0.175468  0.196001  0  3.887229  0
C  C85  1  0.73809774  0.51004267  0.13008735  1  0.344946  0  0.083989  0.121715  0  4.07091  0
C  C86  1  0.68552317  0.43594832  0.12322181  1  0.028968  0  -0.081414  -0.161959  0  3.955216  0
C  C87  1  0.76011546  0.39034260  0.08503188  1  0.022924  0  -0.008108  -0.048864  0  3.903051  0
C  C88  1  0.69030893  0.31360292  0.07483337  1  1.582179  0  0.22962  0.657302  0  4.156095  0
C  C89  1  0.04820807  0.14529331  0.04646251  1  1.552793  0  0.208258  0.612975  0  4.171563  0
C  C90  1  0.13349156  0.11062136  0.09256167  1  0.047073  0  -0.012747  -0.050405  0  3.941785  0
C  C91  1  0.15666260  0.03201947  0.09319338  1  -0.021349  0  -0.074061  -0.154964  0  3.905096  0
C  C92  1  0.24615341  0.00224831  0.13516240  1  0.3515  0  0.090481  0.123099  0  4.035839  0
C  C93  1  0.39299707  0.93481722  0.19070303  1  1.014406  0  0.163706  0.183167  0  3.909501  0
C  C94  1  0.31245081  0.04989268  0.17512596  1  0.341962  0  0.074803  0.121751  0  4.109969  0
C  C95  1  0.28137935  0.12748847  0.17592136  1  0.035743  0  -0.099399  -0.207911  0  4.015263  0
C  C96  1  0.19128480  0.15776863  0.13446037  1  -0.06725  0  -0.008363  -0.048752  0  3.949046  0
C  C97  1  0.15422179  0.24146743  0.13920985  1  1.605723  0  0.216956  0.630918  0  4.173584  0
C  C98  1  0.48988533  0.12816376  0.98224685  1  1.583875  0  0.240654  0.6612  0  4.138293  0
C  C99  1  0.39440703  0.08216719  0.94314057  1  -0.033542  0  -0.002334  -0.03852  0  3.889237  0
C  C100  1  0.44540312  0.00751663  0.93646757  1  0.0331  0  -0.083652  -0.173662  0  3.944357  0
C  C101  1  0.36081865  0.96097094  0.90201974  1  0.389499  0  0.107877  0.175224  0  3.981737  0
C  C102  1  0.26300212  0.86967306  0.85116273  1  1.017516  0  0.175451  0.196016  0  3.887126  0
C  C103  1  0.23809147  0.98995536  0.86991448  1  0.344974  0  0.084008  0.121826  0  4.070919  0
C  C104  1  0.18551782  0.06405083  0.87677894  1  0.02885  0  -0.081499  -0.162143  0  3.955162  0
C  C105  1  0.26011227  0.10965689  0.91496856  1  0.022993  0  -0.008126  -0.04871  0  3.902869  0
C  C106  1  0.19030602  0.18639679  0.92516498  1  1.582367  0  0.229619  0.657139  0  4.156005  0
C  C107  1  0.54819957  0.35470399  0.95353286  1  1.553151  0  0.208216  0.612741  0  4.171617  0
C  C108  1  0.63348919  0.38937738  0.90743621  1  0.04737  0  -0.012787  -0.050368  0  3.941633  0
C  C109  1  0.65665332  0.46798034  0.90680413  1  -0.021944  0  -0.074068  -0.155104  0  3.905277  0
C  C110  1  0.74614094  0.49775292  0.86483682  1  0.351826  0  0.09049  0.123175  0  4.035844  0
C  C111  1  0.89298731  0.56518827  0.80929818  1  1.013804  0  0.163675  0.183223  0  3.909126  0
C  C112  1  0.81244444  0.45011118  0.82487133  1  0.342118  0  0.07475  0.121816  0  4.10989  0
C  C113  1  0.78137163  0.37251323  0.82407510  1  0.035825  0  -0.099429  -0.208166  0  4.015223  0
C  C114  1  0.69128496  0.34223050  0.86553597  1  -0.067168  0  -0.008335  -0.048518  0  3.948575  0
C  C115  1  0.65421358  0.25853181  0.86078726  1  1.606209  0  0.216945  0.630917  0  4.173351  0
C  C116  1  0.48990201  0.62816153  0.51775327  1  1.583954  0  0.2407  0.661248  0  4.138278  0
C  C117  1  0.39441942  0.58216412  0.55685839  1  -0.033336  0  -0.002315  -0.038455  0  3.889239  0
C  C118  1  0.44540734  0.50751295  0.56353292  1  0.032945  0  -0.08357  -0.173705  0  3.944376  0
C  C119  1  0.36082033  0.46096854  0.59798184  1  0.389551  0  0.1078  0.175325  0  3.981844  0
C  C120  1  0.26300080  0.36967427  0.64884066  1  1.017277  0  0.175485  0.19603  0  3.887285  0
C  C121  1  0.23809584  0.48995556  0.63008644  1  0.344973  0  0.084007  0.121718  0  4.071021  0
C  C122  1  0.18552736  0.56405069  0.62322024  1  0.028999  0  -0.081447  -0.161954  0  3.955155  0
C  C123  1  0.26012613  0.60965532  0.58503015  1  0.022846  0  -0.008164  -0.049049  0  3.903138  0
C  C124  1  0.19031977  0.68639642  0.57483336  1  1.582286  0  0.229644  0.657398  0  4.15601  0
C  C125  1  0.54821773  0.85470666  0.54645970  1  1.552801  0  0.208201  0.613051  0  4.1714  0
C  C126  1  0.63350077  0.88937802  0.59255833  1  0.047159  0  -0.012783  -0.050478  0  3.941802  0
C  C127  1  0.65666137  0.96797984  0.59319296  1  -0.021364  0  -0.074123  -0.155049  0  3.905228  0
C  C128  1  0.74615061  0.99775043  0.63516028  1  0.351577  0  0.090554  0.123166  0  4.035784  0
C  C129  1  0.89299114  0.06518351  0.69070264  1  1.014017  0  0.163656  0.183145  0  3.90942  0
C  C130  1  0.81245805  0.95010613  0.67512521  1  0.342422  0  0.074779  0.121813  0  4.109777  0
C  C131  1  0.78139113  0.87250874  0.67591928  1  0.036028  0  -0.099425  -0.208015  0  4.015113  0
C  C132  1  0.69130404  0.84223028  0.63445640  1  -0.067682  0  -0.00839  -0.048751  0  3.948888  0
C  C133  1  0.65423741  0.75853042  0.63920658  1  1.606032  0  0.217038  0.630906  0  4.173298  0
C  C134  1  0.98989545  0.87183743  0.48224646  1  1.583948  0  0.240658  0.661161  0  4.138272  0
C  C135  1  0.89441656  0.91783513  0.44314002  1  -0.033305  0  -0.002366  -0.038549  0  3.889338  0
C  C136  1  0.94540461  0.99248672  0.43646715  1  0.033001  0  -0.08357  -0.173696  0  3.944311  0
C  C137  1  0.86081964  0.03903234  0.40201832  1  0.38957  0  0.1078  0.175337  0  3.981642  0
C  C138  1  0.76300074  0.13033031  0.35116179  1  1.017339  0  0.175559  0.196254  0  3.887249  0
C  C139  1  0.73809754  0.01004626  0.36991277  1  0.344739  0  0.08393  0.121756  0  4.070756  0
C  C140  1  0.68552828  0.93594976  0.37677752  1  0.028765  0  -0.081421  -0.161946  0  3.95514  0
C  C141  1  0.76012451  0.89034434  0.41496730  1  0.0227  0  -0.008132  -0.048898  0  3.903043  0
C  C142  1  0.69031926  0.81360458  0.42516480  1  1.582193  0  0.229639  0.657376  0  4.155927  0
C  C143  1  0.04821398  0.64529534  0.45353750  1  1.553053  0  0.208252  0.61309  0  4.17144  0
C  C144  1  0.13349817  0.61062315  0.40743976  1  0.047108  0  -0.012739  -0.050425  0  3.941852  0
C  C145  1  0.15666568  0.53202013  0.40680757  1  -0.02138  0  -0.07408  -0.154987  0  3.90526  0
C  C146  1  0.24615487  0.50224984  0.36483915  1  0.351472  0  0.090516  0.123054  0  4.035957  0
C  C147  1  0.39299271  0.43481615  0.30929916  1  1.014084  0  0.163692  0.183202  0  3.90934  0
C  C148  1  0.31245774  0.54989223  0.32487510  1  0.342421  0  0.0748  0.121807  0  4.109918  0
C  C149  1  0.28138863  0.62748915  0.32408060  1  0.03585  0  -0.099384  -0.207911  0  4.015087  0
C  C150  1  0.19129921  0.65776846  0.36554096  1  -0.067518  0  -0.008388  -0.048759  0  3.949105  0
C  C151  1  0.15423733  0.74146842  0.36078794  1  1.605889  0  0.216959  0.630858  0  4.173684  0
C  C152  1  0.51011063  0.37183637  0.48224827  1  1.583845  0  0.240712  0.661305  0  4.138166  0
C  C153  1  0.60558616  0.41783038  0.44314034  1  -0.033517  0  -0.002294  -0.038384  0  3.88928  0
C  C154  1  0.55459706  0.49248212  0.43646781  1  0.033075  0  -0.083759  -0.1739  0  3.944461  0
C  C155  1  0.63917936  0.53902653  0.40201890  1  0.389542  0  0.107894  0.175348  0  3.981538  0
C  C156  1  0.73699654  0.63032137  0.35115847  1  1.017262  0  0.175458  0.19592  0  3.88718  0
C  C157  1  0.76190032  0.51004007  0.36991309  1  0.344952  0  0.083919  0.121699  0  4.070878  0
C  C158  1  0.81447233  0.43594382  0.37677769  1  0.02863  0  -0.081513  -0.162064  0  3.955485  0
C  C159  1  0.73987710  0.39034145  0.41496738  1  0.022802  0  -0.008087  -0.048911  0  3.903173  0
C  C160  1  0.80968816  0.31359921  0.42516456  1  1.582192  0  0.22966  0.657207  0  4.15616  0
C  C161  1  0.45179021  0.14529351  0.45353823  1  1.552775  0  0.208283  0.613056  0  4.171602  0
C  C162  1  0.36650128  0.11062215  0.40744000  1  0.047131  0  -0.012669  -0.050394  0  3.941791  0
C  C163  1  0.34333832  0.03201920  0.40680737  1  -0.021322  0  -0.07412  -0.155039  0  3.905373  0
C  C164  1  0.25384908  0.00224861  0.36483805  1  0.351609  0  0.090516  0.123134  0  4.035759  0
C  C165  1  0.10700855  0.93481666  0.30929889  1  1.014052  0  0.163743  0.183306  0  3.909403  0
C  C166  1  0.18754047  0.04989404  0.32487312  1  0.342129  0  0.074784  0.121799  0  4.109665  0
C  C167  1  0.21861798  0.12749087  0.32407945  1  0.036015  0  -0.099332  -0.207838  0  4.014958  0
C  C168  1  0.30870272  0.15777046  0.36554153  1  -0.067513  0  -0.008454  -0.048849  0  3.948961  0
C  C169  1  0.34577052  0.24146918  0.36079055  1  1.606222  0  0.217064  0.63097  0  4.173322  0
C  C170  1  0.01011366  0.12816388  0.51775428  1  1.583824  0  0.240735  0.661229  0  4.138245  0
C  C171  1  0.10558784  0.08216618  0.55686072  1  -0.033422  0  -0.002401  -0.038638  0  3.889402  0
C  C172  1  0.05459626  0.00751516  0.56353399  1  0.03306  0  -0.083606  -0.173673  0  3.944452  0
C  C173  1  0.13918006  0.96096896  0.59798121  1  0.389512  0  0.107849  0.17533  0  3.981671  0
C  C174  1  0.23700366  0.86967099  0.64883654  1  1.017119  0  0.1755  0.196036  0  3.887306  0
C  C175  1  0.26190804  0.98995448  0.63008556  1  0.344734  0  0.083939  0.121696  0  4.070895  0
C  C176  1  0.31447729  0.06404927  0.62322242  1  0.028938  0  -0.081441  -0.162027  0  3.955156  0
C  C177  1  0.23988460  0.10965583  0.58503183  1  0.022927  0  -0.008117  -0.048764  0  3.902964  0
C  C178  1  0.30969220  0.18639616  0.57483393  1  1.581875  0  0.229612  0.657302  0  4.156071  0
C  C179  1  0.95178807  0.35470427  0.54646444  1  1.553233  0  0.208348  0.613141  0  4.17143  0
C  C180  1  0.86650152  0.38937645  0.59256218  1  0.047143  0  -0.012792  -0.050586  0  3.941877  0
C  C181  1  0.84333284  0.46797948  0.59319437  1  -0.021323  0  -0.074048  -0.154993  0  3.905341  0
C  C182  1  0.75384364  0.49775033  0.63516198  1  0.351483  0  0.090548  0.123086  0  4.035945  0
C  C183  1  0.60699992  0.56518459  0.69070077  1  1.014452  0  0.163716  0.183258  0  3.90954  0
C  C184  1  0.68753606  0.45010681  0.67512643  1  0.342083  0  0.074798  0.12192  0  4.10979  0
C  C185  1  0.71860636  0.37250875  0.67592054  1  0.035849  0  -0.099461  -0.208175  0  4.015215  0
C  C186  1  0.80870519  0.34223058  0.63446138  1  -0.067429  0  -0.008371  -0.048526  0  3.948772  0
C  C187  1  0.84577884  0.25853175  0.63921160  1  1.605628  0  0.216892  0.630848  0  4.173712  0
C  C188  1  0.01010928  0.62816457  0.98224607  1  1.583871  0  0.240699  0.661194  0  4.138193  0
C  C189  1  0.10558423  0.58216771  0.94313870  1  -0.033364  0  -0.002343  -0.038492  0  3.889312  0
C  C190  1  0.05459376  0.50751787  0.93646644  1  0.0331  0  -0.083693  -0.173815  0  3.944511  0
C  C191  1  0.13917195  0.46097119  0.90201850  1  0.389449  0  0.107873  0.175397  0  3.981574  0
C  C192  1  0.23699032  0.36967529  0.85116080  1  1.017627  0  0.175531  0.196129  0  3.887238  0
C  C193  1  0.26189372  0.48995864  0.86991219  1  0.344879  0  0.083967  0.121737  0  4.070855  0
C  C194  1  0.31446946  0.56405242  0.87677692  1  0.028996  0  -0.081495  -0.162031  0  3.955346  0
C  C195  1  0.23987717  0.60965813  0.91496645  1  0.022447  0  -0.008078  -0.048885  0  3.903033  0
C  C196  1  0.30968841  0.68639612  0.92516656  1  1.582278  0  0.229668  0.657393  0  4.156036  0
C  C197  1  0.95178810  0.85470970  0.95353903  1  1.552829  0  0.208156  0.612855  0  4.171799  0
C  C198  1  0.86650696  0.88938334  0.90743986  1  0.047027  0  -0.012799  -0.050334  0  3.941532  0
C  C199  1  0.84333474  0.96798467  0.90680816  1  -0.020894  0  -0.07408  -0.15499  0  3.90532  0
C  C200  1  0.75383805  0.99775356  0.86484034  1  0.350844  0  0.090521  0.123053  0  4.035982  0
C  C201  1  0.60699674  0.06518408  0.80929690  1  1.014375  0  0.163759  0.18328  0  3.909464  0
C  C202  1  0.68754064  0.95010975  0.82487557  1  0.342458  0  0.074835  0.121818  0  4.109917  0
C  C203  1  0.71861093  0.87251340  0.82408179  1  0.035711  0  -0.099416  -0.207974  0  4.015102  0
C  C204  1  0.80871019  0.84223494  0.86554197  1  -0.067139  0  -0.008292  -0.048653  0  3.948816  0
C  C205  1  0.84577908  0.75853557  0.86078968  1  1.606002  0  0.216853  0.630715  0  4.173748  0
C  C206  1  0.51011554  0.87183755  0.01775228  1  1.583863  0  0.24053  0.661112  0  4.138079  0
C  C207  1  0.60559148  0.91783752  0.05685776  1  -0.033467  0  -0.002349  -0.038558  0  3.889235  0
C  C208  1  0.55459774  0.99248808  0.06353196  1  0.032849  0  -0.083605  -0.173709  0  3.944418  0
C  C209  1  0.63918222  0.03903263  0.09798059  1  0.389687  0  0.107936  0.17537  0  3.981789  0
C  C210  1  0.73699639  0.13032824  0.14883761  1  1.017365  0  0.17555  0.196119  0  3.88723  0
C  C211  1  0.76190234  0.01004482  0.13008745  1  0.344977  0  0.083973  0.121754  0  4.070862  0
C  C212  1  0.81447834  0.93594991  0.12322139  1  0.028978  0  -0.081397  -0.161954  0  3.955093  0
C  C213  1  0.73988389  0.89034669  0.08503058  1  0.023005  0  -0.008149  -0.048813  0  3.902942  0
C  C214  1  0.80969014  0.81360452  0.07483415  1  1.582155  0  0.2296  0.657251  0  4.156011  0
C  C215  1  0.45180248  0.64529335  0.04646507  1  1.552806  0  0.208146  0.612551  0  4.171706  0
C  C216  1  0.36651521  0.61061996  0.09256413  1  0.047126  0  -0.012719  -0.050199  0  3.941348  0
C  C217  1  0.34334520  0.53201700  0.09319540  1  -0.021843  0  -0.074099  -0.15507  0  3.905062  0
C  C218  1  0.25385404  0.50224668  0.13516472  1  0.351855  0  0.090481  0.123154  0  4.035733  0
C  C219  1  0.10700649  0.43481134  0.19069974  1  1.014386  0  0.163723  0.183378  0  3.909177  0
C  C220  1  0.18755172  0.54988899  0.17512900  1  0.342095  0  0.074699  0.121766  0  4.109965  0
C  C221  1  0.21862336  0.62748524  0.17592443  1  0.035737  0  -0.099433  -0.208035  0  4.015131  0
C  C222  1  0.30871355  0.65776741  0.13446195  1  -0.067124  0  -0.008256  -0.048515  0  3.948471  0
C  C223  1  0.34578493  0.74146723  0.13921228  1  1.605766  0  0.216884  0.630803  0  4.173694  0
N  N224  1  0.87158169  0.61506815  0.11060226  1  -1.266409  0  -0.359597  -0.239201  0  3.592937  0
N  N225  1  0.68280508  0.56829485  0.16271683  1  -1.197092  0  -0.385871  -0.313514  0  3.681494  0
N  N226  1  0.40490624  0.00604781  0.20887606  1  -1.187652  0  -0.394225  -0.309667  0  3.657773  0
N  N227  1  0.29896958  0.92992184  0.14735749  1  -1.302198  0  -0.362729  -0.246141  0  3.598745  0
N  N228  1  0.37158876  0.88493174  0.88940054  1  -1.266148  0  -0.359592  -0.239187  0  3.592766  0
N  N229  1  0.18280747  0.93170278  0.83728534  1  -1.197384  0  -0.385891  -0.313485  0  3.681721  0
N  N230  1  0.90490601  0.49395747  0.79112375  1  -1.187732  0  -0.394169  -0.309734  0  3.657748  0
N  N231  1  0.79895787  0.57008110  0.85264281  1  -1.302008  0  -0.362718  -0.246153  0  3.598656  0
N  N232  1  0.37158705  0.38493095  0.61060333  1  -1.26643  0  -0.359578  -0.239197  0  3.592875  0
N  N233  1  0.18280865  0.43170502  0.66271653  1  -1.19722  0  -0.385924  -0.313425  0  3.681782  0
N  N234  1  0.90491644  0.99395162  0.70887395  1  -1.187628  0  -0.394212  -0.30969  0  3.657831  0
N  N235  1  0.79896124  0.07007722  0.64735748  1  -1.301921  0  -0.362652  -0.246051  0  3.598541  0
N  N236  1  0.87158758  0.11507104  0.38939845  1  -1.266498  0  -0.359596  -0.239278  0  3.592891  0
N  N237  1  0.68280454  0.06830037  0.33728542  1  -1.196768  0  -0.385896  -0.313643  0  3.681777  0
N  N238  1  0.40491165  0.50604590  0.29112688  1  -1.187541  0  -0.394259  -0.309734  0  3.658179  0
N  N239  1  0.29896214  0.42992045  0.35264381  1  -1.302204  0  -0.362661  -0.246013  0  3.59857  0
N  N240  1  0.62841382  0.61506582  0.38939821  1  -1.265937  0  -0.359588  -0.239163  0  3.592696  0
N  N241  1  0.81718751  0.56829005  0.33728220  1  -1.197063  0  -0.385839  -0.313337  0  3.681474  0
N  N242  1  0.09508443  0.00604685  0.29112718  1  -1.187305  0  -0.394272  -0.309786  0  3.658228  0
N  N243  1  0.20104081  0.92992238  0.35264245  1  -1.301975  0  -0.362666  -0.246075  0  3.598656  0
N  N244  1  0.12841682  0.88493027  0.61060069  1  -1.266153  0  -0.359672  -0.239249  0  3.592911  0
N  N245  1  0.31719868  0.93170093  0.66271371  1  -1.196713  0  -0.385819  -0.313441  0  3.681662  0
N  N246  1  0.59507863  0.49395370  0.70887306  1  -1.18732  0  -0.394301  -0.309855  0  3.658093  0
N  N247  1  0.70103402  0.57007802  0.64735733  1  -1.302283  0  -0.362704  -0.246056  0  3.598587  0
N  N248  1  0.12840976  0.38493372  0.88939928  1  -1.266066  0  -0.359598  -0.239137  0  3.592839  0
N  N249  1  0.31718167  0.43170589  0.83728311  1  -1.197402  0  -0.385934  -0.313579  0  3.681534  0
N  N250  1  0.59508168  0.99395236  0.79112547  1  -1.188103  0  -0.394286  -0.309753  0  3.658031  0
N  N251  1  0.70102422  0.07008060  0.85264205  1  -1.302112  0  -0.36275  -0.246112  0  3.59873  0
N  N252  1  0.62841446  0.11507014  0.11060060  1  -1.266494  0  -0.359654  -0.239266  0  3.593023  0
N  N253  1  0.81718987  0.06829739  0.16271700  1  -1.197251  0  -0.385884  -0.313509  0  3.681399  0
N  N254  1  0.09509133  0.50604100  0.20887498  1  -1.18772  0  -0.394169  -0.309795  0  3.657892  0
N  N255  1  0.20103947  0.42991907  0.14735672  1  -1.302313  0  -0.362705  -0.246265  0  3.598797  0
O  O256  1  0.92189045  0.33941319  0.97803841  1  -1.215144  0  -0.40906  -0.699874  0  2.345365  0
O  O257  1  0.13740499  0.37257998  0.02439364  1  -1.155447  0  -0.386576  -0.63673  0  2.30198  0
O  O258  1  0.77813314  0.25910642  0.06012866  1  -1.20713  0  -0.405684  -0.674489  0  2.331125  0
O  O259  1  0.54203670  0.30743604  0.08156540  1  -1.17932  0  -0.408898  -0.682636  0  2.299272  0
O  O260  1  0.93541293  0.11057901  0.02365838  1  -1.166158  0  -0.37248  -0.608084  0  2.164971  0
O  O261  1  0.08841585  0.21186370  0.03029276  1  -1.198886  0  -0.402249  -0.735358  0  2.44228  0
O  O262  1  0.24481214  0.28670016  0.11212059  1  -1.199715  0  -0.413492  -0.674878  0  2.347919  0
O  O263  1  0.04979087  0.26165161  0.17114286  1  -1.164534  0  -0.32876  -0.542566  0  2.024054  0
O  O264  1  0.42188908  0.16058752  0.02196222  1  -1.215223  0  -0.409046  -0.699811  0  2.345412  0
O  O265  1  0.63740322  0.12741988  0.97560706  1  -1.15536  0  -0.386543  -0.636747  0  2.302017  0
O  O266  1  0.27812261  0.24089472  0.93986980  1  -1.207567  0  -0.405648  -0.674436  0  2.331157  0
O  O267  1  0.04203129  0.19256241  0.91843117  1  -1.179082  0  -0.408897  -0.682585  0  2.299193  0
O  O268  1  0.43540084  0.38941995  0.97633545  1  -1.166644  0  -0.372433  -0.607915  0  2.164825  0
O  O269  1  0.58841427  0.28813574  0.96970386  1  -1.198824  0  -0.402262  -0.735323  0  2.442323  0
O  O270  1  0.74480715  0.21329937  0.88787863  1  -1.200071  0  -0.413473  -0.674922  0  2.347851  0
O  O271  1  0.54978259  0.23834909  0.82885412  1  -1.164758  0  -0.328752  -0.542579  0  2.024072  0
O  O272  1  0.42190231  0.66058710  0.47803858  1  -1.215177  0  -0.409007  -0.699801  0  2.345453  0
O  O273  1  0.63741762  0.62741874  0.52439444  1  -1.155664  0  -0.386643  -0.636773  0  2.301928  0
O  O274  1  0.27813855  0.74089389  0.56013006  1  -1.207098  0  -0.40569  -0.674551  0  2.331105  0
O  O275  1  0.04204863  0.69256370  0.58156537  1  -1.17939  0  -0.4089  -0.682621  0  2.299171  0
O  O276  1  0.43541994  0.88942392  0.52365685  1  -1.166153  0  -0.372444  -0.608111  0  2.164746  0
O  O277  1  0.58842402  0.78813627  0.53029139  1  -1.1989  0  -0.402171  -0.73527  0  2.442177  0
O  O278  1  0.74482953  0.71329761  0.61211748  1  -1.199778  0  -0.413612  -0.67494  0  2.347828  0
O  O279  1  0.54981028  0.73834577  0.67113926  1  -1.164661  0  -0.328722  -0.542474  0  2.024102  0
O  O280  1  0.92189541  0.83941320  0.52196107  1  -1.21522  0  -0.40905  -0.69984  0  2.345425  0
O  O281  1  0.13741114  0.87257902  0.47560566  1  -1.155516  0  -0.386571  -0.636685  0  2.301828  0
O  O282  1  0.77813891  0.75910684  0.43986741  1  -1.20706  0  -0.405645  -0.674558  0  2.331042  0
O  O283  1  0.54204696  0.80743662  0.41843261  1  -1.179399  0  -0.408928  -0.682584  0  2.299156  0
O  O284  1  0.93542379  0.61057748  0.47634161  1  -1.166471  0  -0.372439  -0.608103  0  2.164895  0
O  O285  1  0.08842664  0.71186448  0.46970786  1  -1.198896  0  -0.402215  -0.735354  0  2.442175  0
O  O286  1  0.24482796  0.78670209  0.38787794  1  -1.199546  0  -0.413609  -0.675009  0  2.347843  0
O  O287  1  0.04980961  0.76165623  0.32885713  1  -1.164742  0  -0.328729  -0.542493  0  2.024301  0
O  O288  1  0.57811033  0.33941137  0.52196216  1  -1.215205  0  -0.409117  -0.699934  0  2.345535  0
O  O289  1  0.36259502  0.37258086  0.47560910  1  -1.155419  0  -0.386551  -0.636788  0  2.302023  0
O  O290  1  0.72186702  0.25910288  0.43986987  1  -1.207099  0  -0.405701  -0.674464  0  2.331104  0
O  O291  1  0.95795930  0.30743364  0.41843175  1  -1.17943  0  -0.408868  -0.682479  0  2.299233  0
O  O292  1  0.56458799  0.11057626  0.47634028  1  -1.16616  0  -0.372448  -0.608083  0  2.164921  0
O  O293  1  0.41158273  0.21186447  0.46970694  1  -1.198958  0  -0.402261  -0.735395  0  2.442249  0
O  O294  1  0.25518429  0.28670143  0.38788285  1  -1.199877  0  -0.413598  -0.674936  0  2.347895  0
O  O295  1  0.45019529  0.26165327  0.32885707  1  -1.164873  0  -0.32879  -0.54254  0  2.024135  0
O  O296  1  0.07810782  0.16058924  0.47803886  1  -1.215223  0  -0.409087  -0.699857  0  2.345432  0
O  O297  1  0.86259444  0.12742115  0.52439307  1  -1.155391  0  -0.386605  -0.63675  0  2.302017  0
O  O298  1  0.22187608  0.24089446  0.56013132  1  -1.207008  0  -0.40562  -0.67451  0  2.331157  0
O  O299  1  0.45796921  0.19255845  0.58156572  1  -1.179083  0  -0.408894  -0.682598  0  2.29921  0
O  O300  1  0.06458061  0.38942326  0.52366033  1  -1.16646  0  -0.372446  -0.608086  0  2.164859  0
O  O301  1  0.91158129  0.28813456  0.53029488  1  -1.199091  0  -0.402283  -0.735392  0  2.442198  0
O  O302  1  0.75518115  0.21329808  0.61212480  1  -1.199611  0  -0.413512  -0.674962  0  2.347874  0
O  O303  1  0.95021362  0.23834678  0.67113959  1  -1.16452  0  -0.328725  -0.542529  0  2.024377  0
O  O304  1  0.07810571  0.66058812  0.02196112  1  -1.215202  0  -0.409084  -0.699839  0  2.34543  0
O  O305  1  0.86259234  0.62742302  0.97560469  1  -1.155487  0  -0.386581  -0.636695  0  2.301903  0
O  O306  1  0.22187009  0.74089489  0.93986927  1  -1.207145  0  -0.405672  -0.67454  0  2.331152  0
O  O307  1  0.45796182  0.69256413  0.91843493  1  -1.179387  0  -0.408925  -0.682659  0  2.299274  0
O  O308  1  0.06458206  0.88942399  0.97634316  1  -1.166121  0  -0.372407  -0.608006  0  2.165012  0
O  O309  1  0.91158267  0.78813874  0.96970637  1  -1.198973  0  -0.402213  -0.735315  0  2.442307  0
O  O310  1  0.75518049  0.71330058  0.88787614  1  -1.199827  0  -0.413463  -0.674847  0  2.347917  0
O  O311  1  0.95021589  0.73835026  0.82886189  1  -1.164542  0  -0.328753  -0.542497  0  2.024214  0
O  O312  1  0.57811414  0.83941436  0.97803691  1  -1.215252  0  -0.408962  -0.699766  0  2.345221  0
O  O313  1  0.36259882  0.87258143  0.02439168  1  -1.155396  0  -0.386512  -0.63674  0  2.302035  0
O  O314  1  0.72187120  0.75910885  0.06013013  1  -1.207014  0  -0.405644  -0.674511  0  2.331198  0
O  O315  1  0.95796488  0.80743720  0.08156756  1  -1.179372  0  -0.408893  -0.682576  0  2.299171  0
O  O316  1  0.56460003  0.61057966  0.02366288  1  -1.166296  0  -0.372403  -0.60785  0  2.164987  0
O  O317  1  0.41158424  0.71186273  0.03029527  1  -1.198732  0  -0.40223  -0.735236  0  2.442172  0
O  O318  1  0.25519018  0.78669910  0.11212090  1  -1.199636  0  -0.413475  -0.674855  0  2.347902  0
O  O319  1  0.45021710  0.76165165  0.17114261  1  -1.164674  0  -0.328752  -0.542587  0  2.024269  0
