# generated using pymatgen
data_BiH13C10(NO4)2
_symmetry_space_group_name_H-M   'P 1'
_cell_length_a   6.87302797
_cell_length_b   8.97082564
_cell_length_c   13.02775665
_cell_angle_alpha   105.48820546
_cell_angle_beta   89.98430516
_cell_angle_gamma   112.55284209
_symmetry_Int_Tables_number   1
_chemical_formula_structural   BiH13C10(NO4)2
_chemical_formula_sum   'Bi2 H26 C20 N4 O16'
_cell_volume   710.15852963
_cell_formula_units_Z   2
loop_
 _symmetry_equiv_pos_site_id
 _symmetry_equiv_pos_as_xyz
  1  'x, y, z'
loop_
 _atom_site_type_symbol
 _atom_site_label
 _atom_site_symmetry_multiplicity
 _atom_site_fract_x
 _atom_site_fract_y
 _atom_site_fract_z
 _atom_site_occupancy
 _atom_site_hle17_bader_spin_density
 _atom_site_hle17_ddec_charge
 _atom_site_hle17_ddec_spin_density
 _atom_site_hle17_ddec_sum_bond_order
 _atom_site_hle17_magmom
 _atom_site_hse06_10hf_bader_spin_density
 _atom_site_hse06_10hf_ddec_charge
 _atom_site_hse06_10hf_ddec_spin_density
 _atom_site_hse06_10hf_ddec_sum_bond_order
 _atom_site_hse06_10hf_magmom
 _atom_site_hse06_bader_spin_density
 _atom_site_hse06_ddec_charge
 _atom_site_hse06_ddec_spin_density
 _atom_site_hse06_ddec_sum_bond_order
 _atom_site_hse06_magmom
 _atom_site_pbe_bader_spin_density
 _atom_site_pbe_cm5_charge
 _atom_site_pbe_ddec_charge
 _atom_site_pbe_ddec_spin_density
 _atom_site_pbe_ddec_sum_bond_order
 _atom_site_pbe_magmom
Bi  Bi0  1  0.88445826  0.04591400  0.00703889  1  0  1.619179  0  2.148072  0  0  1.407013  0  2.607016  0  0  1.482245  0  2.55828  0  0  0.880378  1.352192  0  2.641287  0
Bi  Bi1  1  0.16142661  0.04629341  0.50718739  1  0  1.618604  0  2.148272  0  0  1.40628  0  2.607543  0  0  1.481487  0  2.558828  0  0  0.880258  1.351489  0  2.641769  0
H  H2  1  0.71585371  0.65578674  0.05560539  1  0  0.43798  0  0.757284  0  0  0.417594  0  0.812566  0  0  0.428026  0  0.801347  0  0  0.361217  0.409954  0  0.820934  0
H  H3  1  0.94112098  0.65606880  0.55601620  1  0  0.438049  0  0.757128  0  0  0.417721  0  0.812243  0  0  0.42812  0  0.801048  0  0  0.360924  0.410149  0  0.820536  0
H  H4  1  0.35384391  0.58235279  0.78812630  1  0  0.121705  0  0.897741  0  0  0.132411  0  0.956642  0  0  0.135249  0  0.954564  0  0  0.119828  0.130235  0  0.958362  0
H  H5  1  0.22895338  0.58299934  0.28829443  1  0  0.121352  0  0.897128  0  0  0.131426  0  0.956759  0  0  0.134266  0  0.954683  0  0  0.119229  0.129289  0  0.95842  0
H  H6  1  0.62827843  0.66190904  0.77914815  1  0  0.13301  0  0.900509  0  0  0.144599  0  0.956969  0  0  0.147452  0  0.955015  0  0  0.12911  0.142528  0  0.958445  0
H  H7  1  0.03403644  0.66235328  0.27928049  1  0  0.132341  0  0.90161  0  0  0.144033  0  0.957885  0  0  0.146903  0  0.955912  0  0  0.128686  0.141958  0  0.959384  0
H  H8  1  0.93155614  0.45052067  0.88537435  1  0  0.102322  0  0.906581  0  0  0.120389  0  0.959856  0  0  0.122538  0  0.958543  0  0  0.11068  0.118758  0  0.960971  0
H  H9  1  0.51923487  0.45098130  0.38558873  1  0  0.102458  0  0.905854  0  0  0.120317  0  0.959466  0  0  0.122475  0  0.958139  0  0  0.110417  0.118671  0  0.960627  0
H  H10  1  0.73317288  0.36797172  0.96560088  1  0  0.109946  0  0.954021  0  0  0.119153  0  1.022853  0  0  0.12273  0  1.019534  0  0  0.114825  0.116492  0  1.025442  0
H  H11  1  0.63482746  0.36851519  0.46589673  1  0  0.11035  0  0.953479  0  0  0.119646  0  1.022362  0  0  0.123175  0  1.01908  0  0  0.114916  0.117025  0  1.024953  0
H  H12  1  0.21464338  0.83087130  0.88271248  1  0  0.116916  0  0.949831  0  0  0.124712  0  1.017558  0  0  0.128787  0  1.013782  0  0  0.108406  0.121934  0  1.020129  0
H  H13  1  0.61682131  0.83206945  0.38314244  1  0  0.117294  0  0.949811  0  0  0.125182  0  1.017707  0  0  0.129363  0  1.013842  0  0  0.108497  0.122341  0  1.020309  0
H  H14  1  0.30166280  0.75558959  0.97886551  1  0  0.122909  0  0.951617  0  0  0.13521  0  1.013859  0  0  0.137929  0  1.012436  0  0  0.114207  0.133272  0  1.014969  0
H  H15  1  0.45430680  0.75670233  0.47924731  1  0  0.122959  0  0.950846  0  0  0.135379  0  1.013057  0  0  0.13813  0  1.011615  0  0  0.114344  0.133419  0  1.014138  0
H  H16  1  0.95964495  0.20640488  0.72515766  1  0  0.1256  0  0.944982  0  0  0.134032  0  1.011959  0  0  0.138259  0  1.007919  0  0  0.113909  0.130858  0  1.015021  0
H  H17  1  0.24682267  0.20683881  0.22536035  1  0  0.12594  0  0.944679  0  0  0.13383  0  1.011619  0  0  0.138133  0  1.007565  0  0  0.114019  0.130629  0  1.014713  0
H  H18  1  0.15557455  0.28929193  0.83823004  1  0  0.122726  0  0.962054  0  0  0.134986  0  1.024312  0  0  0.137837  0  1.022771  0  0  0.117039  0.132901  0  1.025532  0
H  H19  1  0.13332768  0.28913665  0.33843774  1  0  0.123487  0  0.962003  0  0  0.13562  0  1.023663  0  0  0.138481  0  1.022171  0  0  0.117418  0.133574  0  1.024831  0
H  H20  1  0.38362085  0.86250891  0.73759571  1  0  0.091517  0  0.914143  0  0  0.105116  0  0.977529  0  0  0.10741  0  0.975235  0  0  0.10763  0.103305  0  0.979408  0
H  H21  1  0.47979445  0.86336199  0.23787421  1  0  0.092324  0  0.914076  0  0  0.105742  0  0.977196  0  0  0.108015  0  0.974865  0  0  0.107689  0.10395  0  0.979077  0
H  H22  1  0.64317638  0.87094134  0.72816537  1  0  0.090414  0  0.936427  0  0  0.105172  0  0.996666  0  0  0.106256  0  0.996349  0  0  0.111604  0.104271  0  0.997073  0
H  H23  1  0.22845714  0.87135209  0.22822894  1  0  0.090077  0  0.937097  0  0  0.10483  0  0.997322  0  0  0.105904  0  0.996957  0  0  0.111359  0.10394  0  0.997752  0
H  H24  1  0.51642916  0.14502056  0.87100323  1  0  0.086256  0  0.932651  0  0  0.102197  0  0.991689  0  0  0.102785  0  0.991823  0  0  0.11239  0.101635  0  0.991728  0
H  H25  1  0.62905826  0.14598090  0.37113710  1  0  0.085147  0  0.93387  0  0  0.102195  0  0.991944  0  0  0.102827  0  0.992097  0  0  0.112217  0.101593  0  0.99201  0
H  H26  1  0.61411195  0.14581848  0.74596586  1  0  0.099971  0  0.925348  0  0  0.113737  0  0.986896  0  0  0.115809  0  0.985351  0  0  0.111509  0.112098  0  0.988124  0
H  H27  1  0.53191523  0.14647251  0.24607855  1  0  0.100436  0  0.923705  0  0  0.113848  0  0.986145  0  0  0.115956  0  0.984638  0  0  0.111534  0.112183  0  0.987344  0
C  C28  1  0.50885488  0.66680000  0.83488662  1  0  -0.179708  0  3.651233  0  0  -0.23355  0  3.903311  0  0  -0.235632  0  3.911659  0  0  -0.058518  -0.232037  0  3.897577  0
C  C29  1  0.15837389  0.66740891  0.33505032  1  0  -0.178366  0  3.650248  0  0  -0.231616  0  3.901882  0  0  -0.233723  0  3.910372  0  0  -0.056864  -0.230129  0  3.896141  0
C  C30  1  0.54637579  0.59182247  0.92014797  1  0  0.692357  0  3.737269  0  0  0.640533  0  4.050426  0  0  0.672071  0  4.043079  0  0  0.247039  0.618919  0  4.055019  0
C  C31  1  0.04576519  0.59225541  0.42027465  1  0  0.693148  0  3.734676  0  0  0.64017  0  4.049519  0  0  0.671615  0  4.042278  0  0  0.246718  0.618585  0  4.054114  0
C  C32  1  0.88200864  0.36518574  0.93632378  1  0  -0.196955  0  3.673586  0  0  -0.258799  0  3.935181  0  0  -0.260297  0  3.943181  0  0  -0.078569  -0.257746  0  3.929737  0
C  C33  1  0.48322971  0.36562216  0.43650674  1  0  -0.197521  0  3.673048  0  0  -0.259379  0  3.93529  0  0  -0.260839  0  3.943281  0  0  -0.078517  -0.258427  0  3.929989  0
C  C34  1  0.04478260  0.43746498  0.03580511  1  0  0.667417  0  3.898421  0  0  0.619355  0  4.211888  0  0  0.652751  0  4.205248  0  0  0.20108  0.596623  0  4.215736  0
C  C35  1  0.39240728  0.43780966  0.53591062  1  0  0.669204  0  3.894629  0  0  0.620875  0  4.208393  0  0  0.654271  0  4.201721  0  0  0.201515  0.598175  0  4.212264  0
C  C36  1  0.35307444  0.85321377  0.93642380  1  0  -0.224967  0  3.655334  0  0  -0.275369  0  3.902775  0  0  -0.278829  0  3.911199  0  0  -0.082105  -0.272915  0  3.896733  0
C  C37  1  0.50050201  0.85426462  0.43675876  1  0  -0.225463  0  3.653433  0  0  -0.276866  0  3.901545  0  0  -0.280515  0  3.91011  0  0  -0.082243  -0.274197  0  3.895275  0
C  C38  1  0.40386796  0.01875720  0.02376242  1  0  0.704678  0  3.824893  0  0  0.649231  0  4.138205  0  0  0.685076  0  4.128701  0  0  0.219649  0.62457  0  4.143946  0
C  C39  1  0.61511168  0.01999472  0.52399146  1  0  0.703984  0  3.829075  0  0  0.648604  0  4.142788  0  0  0.684413  0  4.133374  0  0  0.218549  0.62393  0  4.148506  0
C  C40  1  0.00273346  0.18660150  0.80027274  1  0  -0.224837  0  3.634676  0  0  -0.279017  0  3.881415  0  0  -0.282421  0  3.889468  0  0  -0.082569  -0.276549  0  3.875836  0
C  C41  1  0.18386108  0.18674821  0.30041733  1  0  -0.226993  0  3.638717  0  0  -0.278595  0  3.882098  0  0  -0.282212  0  3.890477  0  0  -0.082688  -0.276165  0  3.876599  0
C  C42  1  0.04538483  0.02665660  0.77418044  1  0  0.704897  0  3.839966  0  0  0.651454  0  4.152528  0  0  0.686933  0  4.143617  0  0  0.217324  0.627237  0  4.157884  0
C  C43  1  0.98148496  0.02645629  0.27418937  1  0  0.705365  0  3.839846  0  0  0.650798  0  4.153233  0  0  0.68632  0  4.144346  0  0  0.217197  0.626606  0  4.158551  0
C  C44  1  0.54182394  0.91351698  0.78295159  1  0  -0.037981  0  3.612768  0  0  -0.096598  0  3.873804  0  0  -0.094178  0  3.886339  0  0  -0.073996  -0.098004  0  3.864964  0
C  C45  1  0.37228226  0.91416398  0.28312607  1  0  -0.039285  0  3.613273  0  0  -0.096792  0  3.87238  0  0  -0.094279  0  3.884973  0  0  -0.073404  -0.098382  0  3.863801  0
C  C46  1  0.62096865  0.10406686  0.81757087  1  0  -0.039701  0  3.600266  0  0  -0.098149  0  3.858051  0  0  -0.095452  0  3.87076  0  0  -0.072205  -0.099751  0  3.849297  0
C  C47  1  0.48344169  0.10471324  0.31771072  1  0  -0.037849  0  3.598406  0  0  -0.09772  0  3.857514  0  0  -0.095253  0  3.870455  0  0  -0.071669  -0.09919  0  3.84862  0
N  N48  1  0.53089037  0.84284746  0.87513980  1  0  -0.187434  0  3.257603  0  0  -0.100004  0  3.489844  0  0  -0.117805  0  3.516223  0  0  -0.314685  -0.08764  0  3.471188  0
N  N49  1  0.31234340  0.84351924  0.37532072  1  0  -0.185587  0  3.253383  0  0  -0.097695  0  3.486389  0  0  -0.115504  0  3.51267  0  0  -0.314928  -0.085354  0  3.467783  0
N  N50  1  0.84035065  0.19026260  0.87477198  1  0  -0.17508  0  3.274039  0  0  -0.075629  0  3.496474  0  0  -0.09379  0  3.523117  0  0  -0.311724  -0.063244  0  3.47791  0
N  N51  1  0.35003215  0.19066006  0.37492838  1  0  -0.174901  0  3.274671  0  0  -0.07626  0  3.498054  0  0  -0.094302  0  3.52474  0  0  -0.311896  -0.063875  0  3.479465  0
O  O52  1  0.69224226  0.70798648  0.00219709  1  0  -0.569131  0  2.1295  0  0  -0.513496  0  2.35732  0  0  -0.536164  0  2.340513  0  0  -0.308512  -0.497476  0  2.368721  0
O  O53  1  0.01670761  0.70842656  0.50259106  1  0  -0.570235  0  2.128567  0  0  -0.513903  0  2.356422  0  0  -0.536507  0  2.339731  0  0  -0.30842  -0.497977  0  2.367703  0
O  O54  1  0.46476628  0.44245996  0.91469989  1  0  -0.510662  0  1.95279  0  0  -0.470783  0  2.165306  0  0  -0.491464  0  2.158157  0  0  -0.26168  -0.456691  0  2.170091  0
O  O55  1  0.97755334  0.44286087  0.41463618  1  0  -0.51115  0  1.95131  0  0  -0.471481  0  2.165321  0  0  -0.49208  0  2.158098  0  0  -0.26185  -0.457375  0  2.170102  0
O  O56  1  0.08240834  0.33211726  0.07583035  1  0  -0.631826  0  1.962758  0  0  -0.56594  0  2.202344  0  0  -0.595758  0  2.191935  0  0  -0.305765  -0.545129  0  2.208895  0
O  O57  1  0.24949803  0.33236542  0.57598209  1  0  -0.63227  0  1.961065  0  0  -0.566298  0  2.201017  0  0  -0.596101  0  2.190614  0  0  -0.306112  -0.545491  0  2.207546  0
O  O58  1  0.12456741  0.59352779  0.07531670  1  0  -0.603869  0  1.893614  0  0  -0.566472  0  2.119517  0  0  -0.589352  0  2.111274  0  0  -0.330003  -0.550514  0  2.124683  0
O  O59  1  0.46833398  0.59389078  0.57531984  1  0  -0.604977  0  1.893314  0  0  -0.567391  0  2.119481  0  0  -0.590272  0  2.111226  0  0  -0.32992  -0.551443  0  2.124629  0
O  O60  1  0.59799004  0.11469070  0.06192843  1  0  -0.634655  0  1.99485  0  0  -0.566598  0  2.234851  0  0  -0.596348  0  2.224911  0  0  -0.297937  -0.544815  0  2.240917  0
O  O61  1  0.51677671  0.11576087  0.56214831  1  0  -0.634462  0  1.998888  0  0  -0.565936  0  2.238518  0  0  -0.595648  0  2.228606  0  0  -0.297202  -0.544175  0  2.244577  0
O  O62  1  0.25121859  0.05226841  0.05975133  1  0  -0.636479  0  1.995144  0  0  -0.57932  0  2.242741  0  0  -0.607584  0  2.232971  0  0  -0.303639  -0.558552  0  2.248984  0
O  O63  1  0.80145589  0.05387880  0.55991415  1  0  -0.636021  0  1.996879  0  0  -0.579242  0  2.24492  0  0  -0.607491  0  2.23517  0  0  -0.303108  -0.558485  0  2.251186  0
O  O64  1  0.99119180  0.93419299  0.83806034  1  0  -0.659913  0  2.017299  0  0  -0.595919  0  2.262063  0  0  -0.62594  0  2.252954  0  0  -0.308469  -0.574954  0  2.267562  0
O  O65  1  0.94318359  0.93406135  0.33810987  1  0  -0.660453  0  2.01778  0  0  -0.595978  0  2.262768  0  0  -0.625992  0  2.253663  0  0  -0.308854  -0.575015  0  2.268238  0
O  O66  1  0.14120408  0.99526611  0.69419345  1  0  -0.636626  0  1.972953  0  0  -0.581158  0  2.218149  0  0  -0.609013  0  2.208351  0  0  -0.307642  -0.561648  0  2.224303  0
O  O67  1  0.85444775  0.99469387  0.19407084  1  0  -0.63696  0  1.971725  0  0  -0.58144  0  2.217527  0  0  -0.609252  0  2.207644  0  0  -0.307618  -0.561944  0  2.223702  0
