# generated using pymatgen
data_CdH24C36(N3Cl)2
_symmetry_space_group_name_H-M   'P 1'
_cell_length_a   12.47041798
_cell_length_b   19.15560436
_cell_length_c   20.78273959
_cell_angle_alpha   104.45625629
_cell_angle_beta   90.00016376
_cell_angle_gamma   89.99985502
_symmetry_Int_Tables_number   1
_chemical_formula_structural   CdH24C36(N3Cl)2
_chemical_formula_sum   'Cd4 H96 C144 N24 Cl8'
_cell_volume   4807.36249518
_cell_formula_units_Z   4
loop_
 _symmetry_equiv_pos_site_id
 _symmetry_equiv_pos_as_xyz
  1  'x, y, z'
loop_
 _atom_site_type_symbol
 _atom_site_label
 _atom_site_symmetry_multiplicity
 _atom_site_fract_x
 _atom_site_fract_y
 _atom_site_fract_z
 _atom_site_occupancy
 _atom_site_pbe_bader_charge
 _atom_site_pbe_bader_spin_density
 _atom_site_pbe_cm5_charge
 _atom_site_pbe_ddec_charge
 _atom_site_pbe_ddec_spin_density
 _atom_site_pbe_ddec_sum_bond_order
 _atom_site_pbe_magmom
Cd  Cd0  1  0.49837518  0.92121586  0.29752208  1  1.161525  0  0.664547  0.688351  0  2.465536  0
Cd  Cd1  1  0.00161652  0.42121622  0.29751918  1  1.161463  0  0.664588  0.688396  0  2.465504  0
Cd  Cd2  1  0.99837605  0.57878508  0.70247923  1  1.161561  0  0.664592  0.688448  0  2.465452  0
Cd  Cd3  1  0.50162140  0.07878328  0.70248113  1  1.161439  0  0.66458  0.688461  0  2.465497  0
H  H4  1  0.94093650  0.74915505  0.66064233  1  0.103356  0  0.10342  0.110001  0  1.030101  0
H  H5  1  0.85106769  0.68799215  0.55714788  1  0.138779  0  0.100438  0.125516  0  1.023208  0
H  H6  1  0.89286848  0.87849306  0.48291213  1  0.106363  0  0.112006  0.124685  0  0.982539  0
H  H7  1  0.97998919  0.94080122  0.58870896  1  0.087853  0  0.111801  0.117104  0  0.977979  0
H  H8  1  0.09671821  0.91490876  0.96999784  1  0.091163  0  0.105634  0.108369  0  0.993767  0
H  H9  1  0.13491925  0.97432050  0.08797084  1  0.094259  0  0.112044  0.12401  0  0.982  0
H  H10  1  0.22594727  0.16860658  0.03292509  1  0.099111  0  0.11073  0.122979  0  0.980368  0
H  H11  1  0.18969164  0.10876004  0.91393910  1  0.107785  0  0.107165  0.122817  0  0.995142  0
H  H12  1  0.66843621  0.79441579  0.26616820  1  0.141612  0  0.107863  0.085115  0  1.018714  0
H  H13  1  0.78935142  0.72126422  0.31849394  1  0.112054  0  0.113186  0.131284  0  0.993793  0
H  H14  1  0.68452995  0.85141257  0.50948965  1  0.039602  0  0.10996  0.124716  0  1.010999  0
H  H15  1  0.56007917  0.91422518  0.44818484  1  0.127917  0  0.112227  0.090445  0  1.002435  0
H  H16  1  0.77534988  0.51164644  0.31947577  1  0.139832  0  0.109913  0.090386  0  1.004336  0
H  H17  1  0.70035871  0.63278611  0.37484509  1  0.125477  0  0.104495  0.116432  0  1.042911  0
H  H18  1  0.01532402  0.69083556  0.45868154  1  0.111275  0  0.106777  0.119895  0  1.022133  0
H  H19  1  0.07287554  0.56396948  0.40503816  1  0.107972  0  0.101312  0.077159  0  1.042898  0
H  H20  1  0.95318361  0.28818078  0.16842686  1  0.113642  0  0.100373  0.083942  0  1.038365  0
H  H21  1  0.02059828  0.16553911  0.10828681  1  0.072411  0  0.106727  0.118095  0  1.020235  0
H  H22  1  0.30142950  0.20807288  0.23420476  1  0.087689  0  0.112066  0.130308  0  0.988037  0
H  H23  1  0.21932069  0.32713906  0.29022340  1  0.140794  0  0.105816  0.08908  0  1.018812  0
H  H24  1  0.47870343  0.95142341  0.15478965  1  0.137037  0  0.10369  0.08767  0  1.027245  0
H  H25  1  0.37164449  0.01965295  0.08791527  1  0.107989  0  0.112873  0.130587  0  0.987287  0
H  H26  1  0.18003207  0.10313379  0.26381659  1  0.091217  0  0.103933  0.118295  0  1.050185  0
H  H27  1  0.28935186  0.02643314  0.32065762  1  0.134846  0  0.103609  0.081876  0  1.031223  0
H  H28  1  0.55907214  0.24916504  0.66064463  1  0.10354  0  0.103415  0.109934  0  1.030058  0
H  H29  1  0.64893188  0.18799663  0.55714859  1  0.138638  0  0.100424  0.125512  0  1.02318  0
H  H30  1  0.60713884  0.37849597  0.48291049  1  0.106229  0  0.111981  0.124616  0  0.982562  0
H  H31  1  0.52002079  0.44080424  0.58870815  1  0.087956  0  0.111779  0.117055  0  0.978016  0
H  H32  1  0.40328467  0.41489675  0.97000388  1  0.091085  0  0.105721  0.108512  0  0.993756  0
H  H33  1  0.36507448  0.47431231  0.08797625  1  0.093948  0  0.112079  0.123972  0  0.982051  0
H  H34  1  0.27405939  0.66860058  0.03292389  1  0.099295  0  0.1107  0.122926  0  0.980377  0
H  H35  1  0.31033059  0.60875239  0.91393951  1  0.108152  0  0.107245  0.122962  0  0.995125  0
H  H36  1  0.83156000  0.29441464  0.26616458  1  0.141552  0  0.107818  0.085022  0  1.018786  0
H  H37  1  0.71064130  0.22126592  0.31849413  1  0.111797  0  0.113239  0.131374  0  0.993691  0
H  H38  1  0.81548241  0.35141629  0.50949049  1  0.039604  0  0.109924  0.124621  0  1.011073  0
H  H39  1  0.93992705  0.41422821  0.44818284  1  0.12783  0  0.112217  0.090454  0  1.002341  0
H  H40  1  0.72465246  0.01164651  0.31947609  1  0.139701  0  0.109921  0.09041  0  1.004321  0
H  H41  1  0.79964022  0.13278554  0.37484251  1  0.125386  0  0.104497  0.116446  0  1.042908  0
H  H42  1  0.48467893  0.19083691  0.45868405  1  0.111301  0  0.106813  0.119935  0  1.022148  0
H  H43  1  0.42712925  0.06397037  0.40504143  1  0.108034  0  0.101287  0.077186  0  1.042789  0
H  H44  1  0.54680574  0.78818100  0.16842476  1  0.1138  0  0.100415  0.084015  0  1.038274  0
H  H45  1  0.47939912  0.66553771  0.10828558  1  0.07241  0  0.106737  0.118087  0  1.020225  0
H  H46  1  0.19856191  0.70806752  0.23420117  1  0.087731  0  0.112046  0.130316  0  0.987954  0
H  H47  1  0.28066171  0.82713790  0.29021996  1  0.140825  0  0.10579  0.089082  0  1.018804  0
H  H48  1  0.02129149  0.45142481  0.15478799  1  0.136968  0  0.103661  0.087665  0  1.027309  0
H  H49  1  0.12835257  0.51965577  0.08791584  1  0.107988  0  0.112844  0.130521  0  0.98732  0
H  H50  1  0.31996148  0.60313205  0.26381789  1  0.091317  0  0.103901  0.11827  0  1.050287  0
H  H51  1  0.21064064  0.52642938  0.32065634  1  0.134762  0  0.103619  0.081837  0  1.031174  0
H  H52  1  0.44092765  0.75083518  0.33935160  1  0.103018  0  0.103437  0.109972  0  1.030068  0
H  H53  1  0.35107032  0.81200521  0.44284753  1  0.138596  0  0.100436  0.125546  0  1.023158  0
H  H54  1  0.39286817  0.62150856  0.51709059  1  0.106325  0  0.112007  0.124687  0  0.982537  0
H  H55  1  0.47998300  0.55919706  0.41129410  1  0.087772  0  0.111782  0.117075  0  0.977992  0
H  H56  1  0.59671993  0.58509539  0.02999964  1  0.091316  0  0.105626  0.108371  0  0.993751  0
H  H57  1  0.63492531  0.52568145  0.91202717  1  0.094147  0  0.11203  0.123952  0  0.981988  0
H  H58  1  0.72594040  0.33139317  0.96707375  1  0.099373  0  0.110679  0.122885  0  0.980389  0
H  H59  1  0.68967722  0.39123867  0.08605944  1  0.107948  0  0.107196  0.122881  0  0.995104  0
H  H60  1  0.16843658  0.70558505  0.73383394  1  0.141573  0  0.107821  0.085029  0  1.018775  0
H  H61  1  0.28934726  0.77873862  0.68150791  1  0.112071  0  0.113212  0.131335  0  0.993739  0
H  H62  1  0.18452941  0.64859094  0.49050928  1  0.039584  0  0.109945  0.124669  0  1.010928  0
H  H63  1  0.06008316  0.58577471  0.55181208  1  0.127945  0  0.112215  0.090401  0  1.002495  0
H  H64  1  0.27534493  0.98835533  0.68052196  1  0.139855  0  0.109917  0.090333  0  1.004383  0
H  H65  1  0.20035877  0.86721629  0.62515073  1  0.125539  0  0.104484  0.116415  0  1.042945  0
H  H66  1  0.51532487  0.80916493  0.54131785  1  0.111311  0  0.106758  0.119854  0  1.022056  0
H  H67  1  0.57287375  0.93603309  0.59496180  1  0.108107  0  0.101286  0.07715  0  1.042954  0
H  H68  1  0.45318763  0.21182084  0.83157617  1  0.113684  0  0.100366  0.083931  0  1.038289  0
H  H69  1  0.52060067  0.33446305  0.89171367  1  0.072366  0  0.106732  0.118057  0  1.020246  0
H  H70  1  0.80143467  0.29193055  0.76579842  1  0.087862  0  0.112059  0.130354  0  0.987988  0
H  H71  1  0.71933006  0.17286070  0.70977879  1  0.141026  0  0.105801  0.089087  0  1.01871  0
H  H72  1  0.97869948  0.54857918  0.84521055  1  0.137007  0  0.103694  0.087712  0  1.027142  0
H  H73  1  0.87164080  0.48034876  0.91208283  1  0.10799  0  0.112881  0.130612  0  0.987283  0
H  H74  1  0.68003510  0.39686601  0.73618122  1  0.091244  0  0.103889  0.118231  0  1.050288  0
H  H75  1  0.78935353  0.47356760  0.67934108  1  0.134823  0  0.103594  0.081843  0  1.031223  0
H  H76  1  0.05906970  0.25083762  0.33935795  1  0.103544  0  0.103426  0.109999  0  1.030047  0
H  H77  1  0.14893049  0.31200484  0.44285387  1  0.138647  0  0.100451  0.12555  0  1.023116  0
H  H78  1  0.10712729  0.12150770  0.51709289  1  0.106271  0  0.112038  0.124686  0  0.982447  0
H  H79  1  0.02001461  0.05919685  0.41129304  1  0.087834  0  0.111781  0.1171  0  0.977941  0
H  H80  1  0.90327917  0.08509630  0.02999469  1  0.091319  0  0.105641  0.108384  0  0.993799  0
H  H81  1  0.86507493  0.02568025  0.91202311  1  0.094076  0  0.112064  0.123953  0  0.982041  0
H  H82  1  0.77405572  0.83139904  0.96708008  1  0.099221  0  0.110677  0.122891  0  0.980442  0
H  H83  1  0.81031858  0.89124557  0.08606367  1  0.107879  0  0.107211  0.122868  0  0.995067  0
H  H84  1  0.33156519  0.20558120  0.73383307  1  0.141558  0  0.107843  0.085049  0  1.018766  0
H  H85  1  0.21064596  0.27873439  0.68151058  1  0.111928  0  0.113244  0.131338  0  0.993774  0
H  H86  1  0.31547224  0.14858766  0.49051380  1  0.039642  0  0.109961  0.124689  0  1.011038  0
H  H87  1  0.43991982  0.08577019  0.55181413  1  0.127885  0  0.112203  0.09042  0  1.002393  0
H  H88  1  0.22464750  0.48835163  0.68052815  1  0.139658  0  0.109911  0.090383  0  1.004418  0
H  H89  1  0.29964027  0.36721196  0.62515835  1  0.12589  0  0.10451  0.116438  0  1.042897  0
H  H90  1  0.98467416  0.30916789  0.54131736  1  0.111427  0  0.106768  0.119913  0  1.022082  0
H  H91  1  0.92712425  0.43603452  0.59496134  1  0.108042  0  0.101264  0.077097  0  1.042968  0
H  H92  1  0.04680896  0.71181891  0.83157358  1  0.113741  0  0.100386  0.083956  0  1.038314  0
H  H93  1  0.97939589  0.83446003  0.89171399  1  0.072447  0  0.106722  0.118057  0  1.020246  0
H  H94  1  0.69856387  0.79193112  0.76579619  1  0.087781  0  0.11207  0.130346  0  0.987956  0
H  H95  1  0.78067028  0.67286278  0.70977609  1  0.140959  0  0.105796  0.089109  0  1.018872  0
H  H96  1  0.52129234  0.04857358  0.84520921  1  0.137028  0  0.103686  0.087662  0  1.027251  0
H  H97  1  0.62835450  0.98034403  0.91208215  1  0.10806  0  0.112848  0.130593  0  0.987299  0
H  H98  1  0.81996932  0.89686966  0.73618279  1  0.091376  0  0.103897  0.118228  0  1.050287  0
H  H99  1  0.71064472  0.97357032  0.67934321  1  0.134885  0  0.103609  0.081836  0  1.031202  0
C  C100  1  0.01431140  0.88421291  0.69361313  1  -0.044414  0  -0.025649  -0.089842  0  4.06222  0
C  C101  1  0.05030546  0.91338391  0.74883202  1  -0.176177  0  -0.038089  -0.032801  0  4.294256  0
C  C102  1  0.08468691  0.94540545  0.81048844  1  0.297024  0  -0.041073  -0.039563  0  4.297036  0
C  C103  1  0.11286727  0.97469281  0.86745516  1  -0.536253  0  -0.016843  -0.067191  0  4.037703  0
C  C104  1  0.96663386  0.84953774  0.63252001  1  0.05712  0  -0.01038  0.101239  0  4.148855  0
C  C105  1  0.92967611  0.77776982  0.62203657  1  -0.013628  0  -0.08056  -0.100175  0  3.9343  0
C  C106  1  0.87874671  0.74341925  0.56340267  1  0.015613  0  -0.090101  -0.163613  0  3.969228  0
C  C107  1  0.86548634  0.77954740  0.51291104  1  0.294093  0  0.092573  0.174471  0  4.018546  0
C  C108  1  0.90261570  0.85062064  0.52229011  1  -0.012267  0  -0.090671  -0.170184  0  4.002565  0
C  C109  1  0.95187234  0.88550854  0.58146685  1  -0.125408  0  -0.079459  -0.105294  0  3.955014  0
C  C110  1  0.13942973  0.00800089  0.93384376  1  0.069702  0  -0.004808  0.111445  0  4.132612  0
C  C111  1  0.12622557  0.97019959  0.98367084  1  -0.040163  0  -0.079015  -0.10429  0  3.960456  0
C  C112  1  0.14728707  0.00336250  0.04968850  1  0.022976  0  -0.089386  -0.168754  0  4.009551  0
C  C113  1  0.18288482  0.07508158  0.06772664  1  0.291211  0  0.092071  0.171153  0  4.033409  0
C  C114  1  0.19701407  0.11315252  0.01874167  1  -0.123889  0  -0.090643  -0.16997  0  3.999425  0
C  C115  1  0.17587348  0.08017271  0.95246355  1  0.077911  0  -0.075066  -0.097488  0  3.923147  0
C  C116  1  0.67175136  0.80320389  0.32005217  1  0.463375  0  0.043145  0.105768  0  3.98135  0
C  C117  1  0.74028650  0.76342154  0.34950567  1  -0.050149  0  -0.094829  -0.228875  0  3.966206  0
C  C118  1  0.74666332  0.77962408  0.41918869  1  0.332401  0  0.113111  0.223348  0  4.026881  0
C  C119  1  0.68146741  0.83568149  0.45547241  1  0.064282  0  -0.09522  -0.234569  0  3.962766  0
C  C120  1  0.61371011  0.87166269  0.42161374  1  0.504903  0  0.047013  0.111805  0  3.96319  0
C  C121  1  0.82484301  0.55279661  0.35205324  1  0.484877  0  0.047997  0.111781  0  3.947866  0
C  C122  1  0.78409291  0.62064240  0.38216068  1  -0.041289  0  -0.092111  -0.223706  0  3.952965  0
C  C123  1  0.85280913  0.67251983  0.42094480  1  0.255984  0  0.112791  0.225826  0  4.012618  0
C  C124  1  0.95922262  0.65248629  0.42894927  1  -0.026475  0  -0.094637  -0.226603  0  3.967941  0
C  C125  1  0.99172520  0.58279272  0.39872831  1  0.538633  0  0.040957  0.102452  0  3.975628  0
C  C126  1  0.02999089  0.26739365  0.18108512  1  0.487555  0  0.039308  0.101086  0  3.968366  0
C  C127  1  0.06810514  0.20007249  0.14752920  1  0.024676  0  -0.094651  -0.227222  0  3.974073  0
C  C128  1  0.16672662  0.17617396  0.16668398  1  0.326296  0  0.113495  0.222685  0  4.033872  0
C  C129  1  0.22366380  0.22325420  0.21813967  1  -0.031093  0  -0.095667  -0.231057  0  3.964227  0
C  C130  1  0.17904856  0.28951332  0.24902928  1  0.453552  0  0.040085  0.099017  0  3.98064  0
C  C131  1  0.41004253  0.98478855  0.17603337  1  0.498213  0  0.042494  0.106891  0  3.962143  0
C  C132  1  0.35184655  0.02353001  0.13971515  1  -0.016565  0  -0.093357  -0.226447  0  3.967489  0
C  C133  1  0.26810195  0.06822743  0.17107134  1  0.330716  0  0.109799  0.217173  0  4.034908  0
C  C134  1  0.24574439  0.07067479  0.23778956  1  0.02278  0  -0.094051  -0.224551  0  3.960083  0
C  C135  1  0.30666952  0.02879734  0.26966968  1  0.401144  0  0.041697  0.103339  0  3.965237  0
C  C136  1  0.48569431  0.38421372  0.69361263  1  -0.042608  0  -0.025627  -0.089803  0  4.062201  0
C  C137  1  0.44971403  0.41339662  0.74883082  1  -0.178216  0  -0.0381  -0.032697  0  4.294172  0
C  C138  1  0.41533916  0.44541390  0.81049053  1  0.297667  0  -0.041022  -0.039763  0  4.297128  0
C  C139  1  0.38716056  0.47469213  0.86746040  1  -0.535995  0  -0.016886  -0.06692  0  4.037665  0
C  C140  1  0.53337427  0.34954398  0.63252045  1  0.057127  0  -0.010347  0.101147  0  4.148971  0
C  C141  1  0.57033225  0.27777439  0.62203476  1  -0.013735  0  -0.080531  -0.099962  0  3.934071  0
C  C142  1  0.62125108  0.24342160  0.56339996  1  0.015289  0  -0.090136  -0.163731  0  3.969163  0
C  C143  1  0.63451508  0.27954919  0.51290823  1  0.294658  0  0.092614  0.17457  0  4.0184  0
C  C144  1  0.59738710  0.35062249  0.52228677  1  -0.012307  0  -0.090689  -0.170155  0  4.002604  0
C  C145  1  0.54813622  0.38551045  0.58146439  1  -0.125604  0  -0.079487  -0.105273  0  3.955223  0
C  C146  1  0.36059618  0.50799641  0.93385124  1  0.069647  0  -0.004545  0.111438  0  4.132842  0
C  C147  1  0.37378277  0.47019246  0.98367843  1  -0.040031  0  -0.079156  -0.104424  0  3.96072  0
C  C148  1  0.35271468  0.50335263  0.04969329  1  0.022611  0  -0.089544  -0.168784  0  4.009764  0
C  C149  1  0.31712075  0.57507446  0.06772718  1  0.291708  0  0.092122  0.171164  0  4.033464  0
C  C150  1  0.30299674  0.61314595  0.01874279  1  -0.123967  0  -0.090667  -0.16984  0  3.999502  0
C  C151  1  0.32414823  0.58016774  0.95246749  1  0.077078  0  -0.075179  -0.09771  0  3.923483  0
C  C152  1  0.82825068  0.30320598  0.32005217  1  0.463624  0  0.043159  0.105759  0  3.981496  0
C  C153  1  0.75971102  0.26342102  0.34950688  1  -0.049741  0  -0.094824  -0.2289  0  3.965879  0
C  C154  1  0.75334408  0.27962573  0.41919038  1  0.332719  0  0.113021  0.223348  0  4.026914  0
C  C155  1  0.81853754  0.33568359  0.45547144  1  0.064148  0  -0.095101  -0.23434  0  3.962681  0
C  C156  1  0.88628893  0.37166902  0.42161434  1  0.504829  0  0.047  0.111732  0  3.962738  0
C  C157  1  0.67515692  0.05279728  0.35205313  1  0.485094  0  0.047971  0.111752  0  3.948053  0
C  C158  1  0.71590850  0.12064355  0.38215931  1  -0.041576  0  -0.092106  -0.223757  0  3.952942  0
C  C159  1  0.64719388  0.17252269  0.42094562  1  0.256281  0  0.112816  0.225933  0  4.012718  0
C  C160  1  0.54078210  0.15248714  0.42895185  1  -0.026083  0  -0.09469  -0.226598  0  3.967983  0
C  C161  1  0.50827804  0.08279523  0.39873314  1  0.538167  0  0.040962  0.102312  0  3.975277  0
C  C162  1  0.46999764  0.76739441  0.18108534  1  0.487565  0  0.039307  0.1011  0  3.968433  0
C  C163  1  0.43188670  0.70007222  0.14752863  1  0.024684  0  -0.094644  -0.22718  0  3.974059  0
C  C164  1  0.33327021  0.67616896  0.16668071  1  0.326167  0  0.113531  0.222879  0  4.033803  0
C  C165  1  0.27632908  0.72325089  0.21813668  1  -0.031212  0  -0.095677  -0.23122  0  3.964247  0
C  C166  1  0.32093860  0.78951050  0.24902601  1  0.454103  0  0.040183  0.099225  0  3.980586  0
C  C167  1  0.08995156  0.48478987  0.17603229  1  0.498371  0  0.042471  0.106827  0  3.962044  0
C  C168  1  0.14815074  0.52353065  0.13971477  1  -0.016571  0  -0.093337  -0.226385  0  3.967606  0
C  C169  1  0.23189531  0.56822526  0.17106950  1  0.330459  0  0.109845  0.217274  0  4.034834  0
C  C170  1  0.25425237  0.57067313  0.23779029  1  0.02285  0  -0.094009  -0.224482  0  3.959814  0
C  C171  1  0.19332594  0.52879360  0.26966886  1  0.401165  0  0.041677  0.103365  0  3.965145  0
C  C172  1  0.51431510  0.61578597  0.30639022  1  -0.043855  0  -0.025614  -0.089649  0  4.062072  0
C  C173  1  0.55029939  0.58660360  0.25116686  1  -0.176642  0  -0.038107  -0.03298  0  4.294259  0
C  C174  1  0.58468468  0.55459226  0.18951284  1  0.296493  0  -0.041018  -0.039546  0  4.297462  0
C  C175  1  0.61284886  0.52530216  0.13254410  1  -0.535241  0  -0.016959  -0.06716  0  4.037857  0
C  C176  1  0.46663273  0.65045624  0.36747771  1  0.057126  0  -0.010417  0.101182  0  4.149188  0
C  C177  1  0.42967155  0.72222421  0.37796014  1  -0.013283  0  -0.080595  -0.100175  0  3.934178  0
C  C178  1  0.37874871  0.75657915  0.43659591  1  0.015679  0  -0.090056  -0.163596  0  3.969081  0
C  C179  1  0.36548872  0.72045264  0.48708886  1  0.294325  0  0.092604  0.17449  0  4.01852  0
C  C180  1  0.40261910  0.64938097  0.47771262  1  -0.012342  0  -0.090648  -0.17016  0  4.002668  0
C  C181  1  0.45187159  0.61449085  0.41853498  1  -0.125338  0  -0.079476  -0.105302  0  3.955162  0
C  C182  1  0.63941884  0.49199627  0.06615144  1  0.069507  0  -0.004603  0.11156  0  4.132425  0
C  C183  1  0.62622423  0.52980022  0.01632570  1  -0.040484  0  -0.078989  -0.1043  0  3.9603  0
C  C184  1  0.64728992  0.49663951  0.95030879  1  0.022898  0  -0.089467  -0.168686  0  4.009425  0
C  C185  1  0.68288545  0.42491768  0.93227249  1  0.291218  0  0.092042  0.171047  0  4.033666  0
C  C186  1  0.69700946  0.38684995  0.98125582  1  -0.124164  0  -0.090621  -0.169803  0  3.99969  0
C  C187  1  0.67586840  0.41982494  0.04753279  1  0.077758  0  -0.075095  -0.097602  0  3.923301  0
C  C188  1  0.17174831  0.69679748  0.67994818  1  0.463634  0  0.04319  0.10582  0  3.981382  0
C  C189  1  0.24028556  0.73658136  0.65049418  1  -0.05017  0  -0.094798  -0.228825  0  3.966016  0
C  C190  1  0.24665811  0.72037826  0.58081057  1  0.332576  0  0.113041  0.223252  0  4.026833  0
C  C191  1  0.18146545  0.66432040  0.54452614  1  0.064276  0  -0.095122  -0.234397  0  3.962662  0
C  C192  1  0.11371487  0.62833605  0.57838301  1  0.504798  0  0.046991  0.111769  0  3.963003  0
C  C193  1  0.32484046  0.94720456  0.64794540  1  0.484778  0  0.048009  0.111919  0  3.947892  0
C  C194  1  0.28409129  0.87935882  0.61783838  1  -0.041383  0  -0.092136  -0.223726  0  3.952905  0
C  C195  1  0.35280992  0.82748130  0.57905485  1  0.256008  0  0.112813  0.225797  0  4.012579  0
C  C196  1  0.45922250  0.84751632  0.57105090  1  -0.026514  0  -0.094656  -0.226548  0  3.967911  0
C  C197  1  0.49172415  0.91720715  0.60126985  1  0.538458  0  0.040975  0.102467  0  3.975452  0
C  C198  1  0.52999653  0.23260905  0.81891741  1  0.487648  0  0.039339  0.10118  0  3.968226  0
C  C199  1  0.56810908  0.29993015  0.85247099  1  0.024624  0  -0.094611  -0.227121  0  3.973958  0
C  C200  1  0.66672637  0.32383018  0.83331624  1  0.326097  0  0.1135  0.222841  0  4.033821  0
C  C201  1  0.72366669  0.27675041  0.78186269  1  -0.031294  0  -0.095651  -0.2312  0  3.96433  0
C  C202  1  0.67905156  0.21048919  0.75097299  1  0.453824  0  0.040212  0.09923  0  3.980539  0
C  C203  1  0.91003700  0.51521412  0.82396721  1  0.498478  0  0.042518  0.106857  0  3.961982  0
C  C204  1  0.85184183  0.47647281  0.86028413  1  -0.016547  0  -0.093425  -0.22655  0  3.967632  0
C  C205  1  0.76810046  0.43177550  0.82892975  1  0.330542  0  0.109884  0.217319  0  4.034834  0
C  C206  1  0.74574260  0.42932709  0.76221124  1  0.022813  0  -0.093968  -0.224389  0  3.959823  0
C  C207  1  0.80666984  0.47120608  0.73033062  1  0.401211  0  0.041725  0.103318  0  3.9653  0
C  C208  1  0.98568919  0.11578569  0.30638514  1  -0.042839  0  -0.025685  -0.089878  0  4.062454  0
C  C209  1  0.94970716  0.08660500  0.25117028  1  -0.177666  0  -0.038104  -0.032799  0  4.294377  0
C  C210  1  0.91532170  0.05459423  0.18950911  1  0.297238  0  -0.041044  -0.039569  0  4.297013  0
C  C211  1  0.88714615  0.02530256  0.13254237  1  -0.535914  0  -0.016833  -0.067138  0  4.037917  0
C  C212  1  0.03336673  0.15045925  0.36748029  1  0.057054  0  -0.010353  0.101238  0  4.149014  0
C  C213  1  0.07032609  0.22222610  0.37796638  1  -0.013798  0  -0.080549  -0.10005  0  3.934344  0
C  C214  1  0.12125068  0.25657720  0.43660040  1  0.015722  0  -0.090148  -0.163747  0  3.969293  0
C  C215  1  0.13451184  0.22045175  0.48709217  1  0.29441  0  0.092604  0.17442  0  4.018615  0
C  C216  1  0.09738088  0.14937904  0.47771322  1  -0.012373  0  -0.090692  -0.170142  0  4.002511  0
C  C217  1  0.04812986  0.11449115  0.41853552  1  -0.125392  0  -0.079468  -0.10534  0  3.955175  0
C  C218  1  0.86057888  0.99200041  0.06615272  1  0.069398  0  -0.004723  0.111501  0  4.132749  0
C  C219  1  0.87377021  0.02980171  0.01632468  1  -0.040179  0  -0.078955  -0.104294  0  3.960259  0
C  C220  1  0.85270630  0.99664042  0.95030739  1  0.022879  0  -0.0895  -0.168655  0  4.009367  0
C  C221  1  0.81711577  0.92491918  0.93227357  1  0.291561  0  0.092063  0.171034  0  4.033473  0
C  C222  1  0.80298812  0.88685201  0.98125941  1  -0.124206  0  -0.090596  -0.169774  0  3.999619  0
C  C223  1  0.82413273  0.91983074  0.04753583  1  0.077598  0  -0.07515  -0.097642  0  3.923412  0
C  C224  1  0.32824923  0.19679472  0.67994899  1  0.463412  0  0.04318  0.105876  0  3.981456  0
C  C225  1  0.25971249  0.23657815  0.65049670  1  -0.050053  0  -0.094827  -0.228863  0  3.966201  0
C  C226  1  0.25333807  0.22037399  0.58081379  1  0.332314  0  0.113064  0.223231  0  4.026802  0
C  C227  1  0.31853158  0.16431711  0.54452971  1  0.064366  0  -0.095195  -0.234483  0  3.962756  0
C  C228  1  0.38628647  0.12833268  0.57838667  1  0.504898  0  0.047025  0.111816  0  3.962967  0
C  C229  1  0.17515517  0.44720092  0.64794863  1  0.485177  0  0.047964  0.111737  0  3.948113  0
C  C230  1  0.21590607  0.37935513  0.61784215  1  -0.041888  0  -0.092079  -0.223669  0  3.953119  0
C  C231  1  0.14718986  0.32747985  0.57905709  1  0.256148  0  0.112709  0.225703  0  4.012777  0
C  C232  1  0.04077637  0.34751501  0.57105058  1  -0.026786  0  -0.094675  -0.226647  0  3.967768  0
C  C233  1  0.00827379  0.41721073  0.60127011  1  0.538707  0  0.041045  0.102523  0  3.9755  0
C  C234  1  0.97000168  0.73260604  0.81891435  1  0.487657  0  0.03937  0.101148  0  3.96837  0
C  C235  1  0.93189144  0.79992773  0.85247089  1  0.024641  0  -0.094646  -0.227144  0  3.973985  0
C  C236  1  0.83326996  0.82382788  0.83331695  1  0.326344  0  0.113538  0.222755  0  4.033703  0
C  C237  1  0.77632877  0.77674710  0.78186067  1  -0.028648  0  -0.095664  -0.231109  0  3.964135  0
C  C238  1  0.82094241  0.71048798  0.75096912  1  0.45096  0  0.040164  0.099099  0  3.980573  0
C  C239  1  0.58995646  0.01521113  0.82396707  1  0.498157  0  0.042497  0.106921  0  3.962111  0
C  C240  1  0.64815324  0.97646913  0.86028325  1  -0.01659  0  -0.093409  -0.226544  0  3.967504  0
C  C241  1  0.73189864  0.93177172  0.82892850  1  0.330737  0  0.109855  0.217197  0  4.03484  0
C  C242  1  0.75425540  0.92932759  0.76221102  1  0.022715  0  -0.094003  -0.224422  0  3.959884  0
C  C243  1  0.69332625  0.97120612  0.73033114  1  0.401313  0  0.041731  0.103449  0  3.965087  0
N  N244  1  0.81750151  0.74289832  0.45160291  1  -1.203032  0  -0.242319  -0.139122  0  3.643915  0
N  N245  1  0.60873902  0.85617861  0.35495320  1  -1.264867  0  -0.337693  -0.243902  0  3.519733  0
N  N246  1  0.92674663  0.53369620  0.36018755  1  -1.238916  0  -0.331002  -0.235948  0  3.485651  0
N  N247  1  0.20689935  0.10776667  0.13550946  1  -1.237752  0  -0.245028  -0.144585  0  3.661166  0
N  N248  1  0.08317118  0.31141910  0.23162498  1  -1.228613  0  -0.334817  -0.246759  0  3.485652  0
N  N249  1  0.38815969  0.98703502  0.23987864  1  -1.22917  0  -0.334312  -0.235292  0  3.501438  0
N  N250  1  0.68250618  0.24289844  0.45160076  1  -1.203266  0  -0.242316  -0.139322  0  3.64402  0
N  N251  1  0.89125736  0.35617846  0.35494991  1  -1.265089  0  -0.337679  -0.243838  0  3.519742  0
N  N252  1  0.57325742  0.03369646  0.36018765  1  -1.23884  0  -0.330954  -0.235865  0  3.485608  0
N  N253  1  0.29310321  0.60776388  0.13550951  1  -1.237736  0  -0.245122  -0.144867  0  3.661428  0
N  N254  1  0.41681582  0.81141778  0.23162414  1  -1.229047  0  -0.334877  -0.246985  0  3.485592  0
N  N255  1  0.11183550  0.48703362  0.23987891  1  -1.229276  0  -0.334267  -0.235259  0  3.501458  0
N  N256  1  0.31750082  0.75710340  0.54839873  1  -1.203214  0  -0.242328  -0.139117  0  3.643839  0
N  N257  1  0.10874162  0.64382284  0.64504706  1  -1.264909  0  -0.33769  -0.243896  0  3.519566  0
N  N258  1  0.42674237  0.96630538  0.63981425  1  -1.238861  0  -0.330998  -0.236068  0  3.485472  0
N  N259  1  0.70689818  0.39223580  0.86449045  1  -1.237672  0  -0.245158  -0.144897  0  3.66153  0
N  N260  1  0.58317595  0.18858191  0.76837485  1  -1.228892  0  -0.334926  -0.247042  0  3.485696  0
N  N261  1  0.88815707  0.51296930  0.76011939  1  -1.229544  0  -0.334365  -0.235297  0  3.501507  0
N  N262  1  0.18249587  0.25710136  0.54840042  1  -1.202968  0  -0.24228  -0.138953  0  3.643818  0
N  N263  1  0.39125756  0.14381784  0.64504795  1  -1.264912  0  -0.337737  -0.243982  0  3.519694  0
N  N264  1  0.07325316  0.46630456  0.63981266  1  -1.239021  0  -0.331006  -0.235933  0  3.485652  0
N  N265  1  0.79310204  0.89223463  0.86449039  1  -1.237907  0  -0.245065  -0.144662  0  3.66125  0
N  N266  1  0.91682220  0.68858165  0.76837330  1  -1.228967  0  -0.334956  -0.246997  0  3.485621  0
N  N267  1  0.61183769  0.01296574  0.76012156  1  -1.229431  0  -0.334324  -0.235364  0  3.501655  0
Cl  Cl268  1  0.64951187  0.90742714  0.20683847  1  -0.727121  0  -0.415317  -0.61973  0  0.935868  0
Cl  Cl269  1  0.35111247  0.93244403  0.39089700  1  -0.729366  0  -0.412434  -0.611094  0  0.923531  0
Cl  Cl270  1  0.85048203  0.40743082  0.20683647  1  -0.727105  0  -0.415313  -0.619718  0  0.935859  0
Cl  Cl271  1  0.14888122  0.43244150  0.39089851  1  -0.729303  0  -0.41245  -0.611128  0  0.923495  0
Cl  Cl272  1  0.14951455  0.59256941  0.79316169  1  -0.727126  0  -0.415315  -0.619736  0  0.935844  0
Cl  Cl273  1  0.85111295  0.56755441  0.60910107  1  -0.72934  0  -0.412453  -0.611112  0  0.923502  0
Cl  Cl274  1  0.35048391  0.09257362  0.79316462  1  -0.727084  0  -0.415317  -0.619729  0  0.935851  0
Cl  Cl275  1  0.64888892  0.06755243  0.60910559  1  -0.729326  0  -0.412443  -0.611127  0  0.923523  0
