# generated using pymatgen
data_ZnH7C16SN3O5F2
_symmetry_space_group_name_H-M   'P 1'
_cell_length_a   12.74830886
_cell_length_b   15.98777057
_cell_length_c   17.35192688
_cell_angle_alpha   96.16435043
_cell_angle_beta   89.91796354
_cell_angle_gamma   93.20730839
_symmetry_Int_Tables_number   1
_chemical_formula_structural   ZnH7C16SN3O5F2
_chemical_formula_sum   'Zn2 H14 C32 S2 N6 O10 F4'
_cell_volume   3510.62458360
_cell_formula_units_Z   2
loop_
 _symmetry_equiv_pos_site_id
 _symmetry_equiv_pos_as_xyz
  1  'x, y, z'
loop_
 _atom_site_type_symbol
 _atom_site_label
 _atom_site_symmetry_multiplicity
 _atom_site_fract_x
 _atom_site_fract_y
 _atom_site_fract_z
 _atom_site_occupancy
 _atom_site_pbe_bader_charge
 _atom_site_pbe_bader_spin_density
 _atom_site_pbe_cm5_charge
 _atom_site_pbe_ddec_charge
 _atom_site_pbe_ddec_spin_density
 _atom_site_pbe_ddec_sum_bond_order
 _atom_site_pbe_magmom
Zn  Zn0  1  0.49618655  0.41213928  0.49744196  1  1.288436  0  0.668174  0.836502  0  2.41108  0
Zn  Zn1  1  0.50381059  0.58786071  0.50257517  1  1.28726  0  0.668175  0.836578  0  2.411322  0
H  H2  1  0.39578760  0.71513801  0.42564269  1  0.134635  0  0.135829  0.114812  0  0.960816  0
H  H3  1  0.39792834  0.87397372  0.42605706  1  0.127834  0  0.119285  0.130847  0  1.00217  0
H  H4  1  0.64055915  0.89188984  0.60202922  1  0.138254  0  0.130639  0.163682  0  0.964267  0
H  H5  1  0.35939306  0.10810769  0.39799567  1  0.13796  0  0.130697  0.163837  0  0.964212  0
H  H6  1  0.60203552  0.12602121  0.57395782  1  0.12848  0  0.119206  0.130827  0  1.002226  0
H  H7  1  0.60417850  0.28485569  0.57437438  1  0.134918  0  0.135776  0.114899  0  0.960816  0
H  H8  1  0.50678785  0.61903771  0.25984189  1  0.111434  0  0.106595  0.112715  0  0.997305  0
H  H9  1  0.50649951  0.61391849  0.11446875  1  0.101544  0  0.105177  0.108824  0  1.0193  0
H  H10  1  0.49096567  0.34265384  0.09938112  1  0.104181  0  0.115653  0.141278  0  0.983772  0
H  H11  1  0.50914555  0.65733987  0.90063852  1  0.104527  0  0.115563  0.141453  0  0.983902  0
H  H12  1  0.49358344  0.38607455  0.88554501  1  0.102024  0  0.105146  0.108866  0  1.019239  0
H  H13  1  0.49328119  0.38095850  0.74017502  1  0.110918  0  0.106497  0.112706  0  0.997039  0
H  H14  1  0.07056708  0.31249089  0.49220893  1  0.614717  0  0.33557  0.360937  0  0.877269  0
H  H15  1  0.92942363  0.68750950  0.50754715  1  0.615019  0  0.335631  0.361376  0  0.876912  0
C  C16  1  0.49954164  0.49434029  0.34867262  1  1.59401  0  0.215657  0.611893  0  4.168021  0
C  C17  1  0.29548743  0.50158381  0.50047381  1  1.545881  0  0.201802  0.61466  0  4.21704  0
C  C18  1  0.50047701  0.50566409  0.65134207  1  1.594726  0  0.215685  0.611978  0  4.16835  0
C  C19  1  0.70452091  0.49841228  0.49945019  1  1.545494  0  0.202515  0.615518  0  4.215222  0
C  C20  1  0.44817058  0.75768843  0.46316391  1  0.492323  0  0.068752  0.140422  0  3.892108  0
C  C21  1  0.44940951  0.84430048  0.46358386  1  0.004159  0  -0.078349  -0.209825  0  3.927322  0
C  C22  1  0.51975169  0.89396864  0.51426747  1  0.353645  0  0.108602  0.227565  0  4.037293  0
C  C23  1  0.58555175  0.85527358  0.56210441  1  0.062911  0  -0.070486  -0.297254  0  3.884521  0
C  C24  1  0.57748495  0.76765161  0.55672264  1  1.159808  0  0.256089  0.465576  0  4.04342  0
C  C25  1  0.41440204  0.14472394  0.43791933  1  0.062065  0  -0.070542  -0.297547  0  3.884398  0
C  C26  1  0.48020595  0.10602760  0.48575270  1  0.354806  0  0.108482  0.227539  0  4.037306  0
C  C27  1  0.55055280  0.15569511  0.53643338  1  0.004121  0  -0.07829  -0.209702  0  3.92775  0
C  C28  1  0.55179405  0.24230653  0.53685328  1  0.491985  0  0.068834  0.14014  0  3.892709  0
C  C29  1  0.42247675  0.23234650  0.44329656  1  1.160043  0  0.256134  0.465752  0  4.042664  0
C  C30  1  0.49903670  0.48560520  0.26158929  1  0.007698  0  -0.0173  -0.133292  0  3.917015  0
C  C31  1  0.50323437  0.55915790  0.22320639  1  -0.001556  0  -0.079879  -0.058355  0  3.989311  0
C  C32  1  0.50313527  0.55660301  0.14323443  1  0.018066  0  -0.092128  -0.164445  0  3.972706  0
C  C33  1  0.49869200  0.47790741  0.09796766  1  0.287328  0  0.089334  0.199155  0  4.054658  0
C  C34  1  0.49447221  0.40363596  0.13421371  1  0.096746  0  -0.091216  -0.273812  0  3.949755  0
C  C35  1  0.49469448  0.40825016  0.21462938  1  0.396663  0  0.108714  0.294279  0  4.026712  0
C  C36  1  0.50563268  0.59635714  0.86580759  1  0.096486  0  -0.091188  -0.274429  0  3.950511  0
C  C37  1  0.50140583  0.52208569  0.90205363  1  0.285819  0  0.089387  0.199364  0  4.054585  0
C  C38  1  0.49695569  0.44339257  0.85678304  1  0.018025  0  -0.091979  -0.164439  0  3.972249  0
C  C39  1  0.49683703  0.44083830  0.77680880  1  -0.001035  0  -0.079654  -0.058178  0  3.988773  0
C  C40  1  0.50102690  0.51439163  0.73842652  1  0.007814  0  -0.017497  -0.133578  0  3.917063  0
C  C41  1  0.50539154  0.59174230  0.78539010  1  0.396885  0  0.108866  0.29461  0  4.026834  0
C  C42  1  0.10752003  0.43031575  0.49782540  1  0.577333  0  0.080882  0.274824  0  4.087491  0
C  C43  1  0.89248973  0.56968705  0.50191826  1  0.583212  0  0.080125  0.273831  0  4.088442  0
C  C44  1  0.18019462  0.49889167  0.50025592  1  -0.071785  0  -0.039463  -0.219659  0  3.905542  0
C  C45  1  0.81982153  0.50110453  0.49952748  1  -0.074934  0  -0.03883  -0.218566  0  3.904829  0
C  C46  1  0.99735319  0.54370758  0.50120863  1  -0.194778  0  -0.044731  -0.139816  0  4.158965  0
C  C47  1  0.00267100  0.45630536  0.49846510  1  -0.115974  0  -0.044555  -0.139585  0  4.158412  0
S  S48  1  0.12025157  0.59481494  0.50305007  1  0.206783  0  0.03809  0.08077  0  2.820489  0
S  S49  1  0.87978243  0.40518590  0.49668365  1  0.206176  0  0.03768  0.080249  0  2.820134  0
N  N50  1  0.51190773  0.71956670  0.50941885  1  -1.242998  0  -0.305729  -0.279972  0  3.444365  0
N  N51  1  0.53071345  0.98328861  0.52157642  1  -0.514398  0  -0.127556  -0.110989  0  3.218695  0
N  N52  1  0.46924572  0.01670698  0.47844197  1  -0.463348  0  -0.127262  -0.110795  0  3.218606  0
N  N53  1  0.48805943  0.28043077  0.49059799  1  -1.243181  0  -0.305505  -0.27965  0  3.444066  0
N  N54  1  0.49813041  0.46615053  0.01604634  1  -0.460149  0  -0.148561  -0.135171  0  3.266945  0
N  N55  1  0.50196960  0.53384004  0.98397356  1  -0.514536  0  -0.148287  -0.134536  0  3.266796  0
O  O56  1  0.50068786  0.42729265  0.38168670  1  -1.151545  0  -0.316456  -0.548192  0  2.366534  0
O  O57  1  0.49900476  0.56915399  0.38250982  1  -1.163429  0  -0.320634  -0.552622  0  2.308707  0
O  O58  1  0.34198466  0.57461107  0.49956306  1  -1.159183  0  -0.33009  -0.559119  0  2.314603  0
O  O59  1  0.33919842  0.43212475  0.50163618  1  -1.14801  0  -0.316855  -0.531831  0  2.328421  0
O  O60  1  0.49914251  0.57270038  0.61832661  1  -1.152031  0  -0.316151  -0.548195  0  2.366999  0
O  O61  1  0.50116121  0.43085917  0.61750133  1  -1.163226  0  -0.32089  -0.552624  0  2.308511  0
O  O62  1  0.65803115  0.42537579  0.50031054  1  -1.159101  0  -0.330416  -0.559505  0  2.314288  0
O  O63  1  0.66079778  0.56788970  0.49845662  1  -1.148062  0  -0.317265  -0.532427  0  2.327113  0
O  O64  1  0.13461982  0.34892413  0.49503397  1  -1.108372  0  -0.339681  -0.406804  0  2.275348  0
O  O65  1  0.86537079  0.65107854  0.50477073  1  -1.109844  0  -0.339554  -0.407063  0  2.275229  0
F  F66  1  0.63895124  0.72813464  0.60158250  1  -0.618683  0  -0.058284  -0.113319  0  1.355447  0
F  F67  1  0.36101286  0.27186410  0.39843618  1  -0.618789  0  -0.058427  -0.113509  0  1.355121  0
F  F68  1  0.49015271  0.33372800  0.24566775  1  -0.627316  0  -0.107704  -0.144683  0  1.348093  0
F  F69  1  0.50994829  0.66626574  0.75435475  1  -0.626889  0  -0.107847  -0.144773  0  1.348165  0
