# generated using pymatgen
data_LaH16C24S3NO7
_symmetry_space_group_name_H-M   'P 1'
_cell_length_a   8.25713710
_cell_length_b   14.03002038
_cell_length_c   14.03002200
_cell_angle_alpha   71.34411583
_cell_angle_beta   87.76652290
_cell_angle_gamma   87.76590226
_symmetry_Int_Tables_number   1
_chemical_formula_structural   LaH16C24S3NO7
_chemical_formula_sum   'La2 H32 C48 S6 N2 O14'
_cell_volume   1538.17282756
_cell_formula_units_Z   2
loop_
 _symmetry_equiv_pos_site_id
 _symmetry_equiv_pos_as_xyz
  1  'x, y, z'
loop_
 _atom_site_type_symbol
 _atom_site_label
 _atom_site_symmetry_multiplicity
 _atom_site_fract_x
 _atom_site_fract_y
 _atom_site_fract_z
 _atom_site_occupancy
 _atom_site_hle17_bader_spin_density
 _atom_site_hle17_ddec_charge
 _atom_site_hle17_ddec_spin_density
 _atom_site_hle17_ddec_sum_bond_order
 _atom_site_hle17_magmom
 _atom_site_hse06_10hf_bader_spin_density
 _atom_site_hse06_10hf_ddec_charge
 _atom_site_hse06_10hf_ddec_spin_density
 _atom_site_hse06_10hf_ddec_sum_bond_order
 _atom_site_hse06_10hf_magmom
 _atom_site_hse06_bader_spin_density
 _atom_site_hse06_ddec_charge
 _atom_site_hse06_ddec_spin_density
 _atom_site_hse06_ddec_sum_bond_order
 _atom_site_hse06_magmom
 _atom_site_pbe_bader_spin_density
 _atom_site_pbe_cm5_charge
 _atom_site_pbe_ddec_charge
 _atom_site_pbe_ddec_spin_density
 _atom_site_pbe_ddec_sum_bond_order
 _atom_site_pbe_magmom
La  La0  1  0.99886114  0.22021182  0.25138993  1  0  2.070072  0  1.767237  0  0  1.960811  0  2.262641  0  0  2.064214  0  2.166979  0  0  1.38466  1.883508  0  2.328444  0
La  La1  1  0.49885927  0.25139514  0.22020635  1  0  2.070116  0  1.767193  0  0  1.960866  0  2.262572  0  0  2.064263  0  2.166913  0  0  1.384683  1.883551  0  2.328393  0
H  H2  1  0.49518406  0.60655063  0.42890433  1  0  0.094545  0  0.961192  0  0  0.106227  0  1.024862  0  0  0.10945  0  1.022771  0  0  0.097878  0.10395  0  1.026386  0
H  H3  1  0.99517677  0.42890214  0.60655141  1  0  0.094542  0  0.96122  0  0  0.106217  0  1.024885  0  0  0.109439  0  1.022796  0  0  0.09787  0.103934  0  1.026414  0
H  H4  1  0.57088887  0.39979224  0.72581191  1  0  0.087401  0  0.97365  0  0  0.098223  0  1.039822  0  0  0.10155  0  1.037471  0  0  0.092521  0.095879  0  1.041488  0
H  H5  1  0.07089151  0.72581042  0.39979119  1  0  0.087409  0  0.973674  0  0  0.09822  0  1.039802  0  0  0.10154  0  1.03747  0  0  0.092523  0.095878  0  1.041466  0
H  H6  1  0.73191150  0.70390286  0.64809624  1  0  0.091624  0  0.96819  0  0  0.102814  0  1.031522  0  0  0.106231  0  1.029066  0  0  0.09621  0.100389  0  1.033306  0
H  H7  1  0.23191317  0.64809356  0.70390190  1  0  0.091657  0  0.968196  0  0  0.10281  0  1.031511  0  0  0.106241  0  1.029035  0  0  0.096208  0.100383  0  1.033299  0
H  H8  1  0.53468241  0.95955381  0.25073603  1  0  0.111036  0  0.946179  0  0  0.121582  0  1.009173  0  0  0.124192  0  1.007452  0  0  0.109939  0.119674  0  1.010467  0
H  H9  1  0.03467951  0.25073638  0.95955375  1  0  0.11104  0  0.946158  0  0  0.121588  0  1.009147  0  0  0.1242  0  1.007427  0  0  0.10993  0.119681  0  1.01043  0
H  H10  1  0.46215747  0.76883328  0.34196509  1  0  0.106394  0  0.948874  0  0  0.120391  0  1.002812  0  0  0.123432  0  1.001581  0  0  0.102674  0.118151  0  1.003884  0
H  H11  1  0.96215868  0.34196326  0.76883181  1  0  0.106458  0  0.948713  0  0  0.120409  0  1.002708  0  0  0.123485  0  1.001436  0  0  0.102692  0.118189  0  1.003752  0
H  H12  1  0.20933578  0.20941918  0.60547431  1  0  0.117209  0  0.924335  0  0  0.13118  0  0.975814  0  0  0.134516  0  0.973371  0  0  0.111257  0.128746  0  0.977608  0
H  H13  1  0.70933495  0.60547159  0.20942053  1  0  0.11724  0  0.924383  0  0  0.131205  0  0.975863  0  0  0.134536  0  0.973423  0  0  0.111276  0.128776  0  0.977655  0
H  H14  1  0.36930613  0.31346506  0.69788539  1  0  0.090233  0  0.994233  0  0  0.102201  0  1.057253  0  0  0.104575  0  1.057022  0  0  0.093393  0.100526  0  1.057434  0
H  H15  1  0.86930290  0.69788661  0.31346405  1  0  0.090352  0  0.994047  0  0  0.102282  0  1.057096  0  0  0.104654  0  1.056867  0  0  0.093453  0.100612  0  1.057277  0
H  H16  1  0.95993644  0.57326097  0.97065877  1  0  0.116935  0  0.927639  0  0  0.128949  0  0.982481  0  0  0.132424  0  0.979798  0  0  0.110728  0.126398  0  0.984483  0
H  H17  1  0.45992766  0.97065956  0.57326542  1  0  0.11697  0  0.927583  0  0  0.128961  0  0.982449  0  0  0.132451  0  0.979749  0  0  0.110729  0.126407  0  0.984451  0
H  H18  1  0.87560734  0.65762283  0.78150764  1  0  0.105602  0  0.948217  0  0  0.119677  0  1.002611  0  0  0.122581  0  1.001517  0  0  0.102097  0.117642  0  1.003406  0
H  H19  1  0.37559907  0.78150869  0.65762705  1  0  0.10562  0  0.948237  0  0  0.119696  0  1.002631  0  0  0.122599  0  1.001538  0  0  0.102091  0.117659  0  1.003429  0
H  H20  1  0.79975484  0.12866332  0.06293045  1  0  0.060339  0  0.926998  0  0  0.066216  0  0.999693  0  0  0.069087  0  0.993122  0  0  0.133768  0.063983  0  1.004518  0
H  H21  1  0.29976996  0.06294658  0.12866188  1  0  0.060397  0  0.927021  0  0  0.06637  0  0.999626  0  0  0.06924  0  0.993062  0  0  0.13378  0.064136  0  1.004448  0
H  H22  1  0.78164204  0.91710466  0.99833720  1  0  0.095203  0  0.918289  0  0  0.118224  0  0.973562  0  0  0.118858  0  0.973784  0  0  0.106543  0.117693  0  0.973476  0
H  H23  1  0.28164956  0.99833419  0.91711317  1  0  0.095257  0  0.918267  0  0  0.118282  0  0.973542  0  0  0.118916  0  0.973764  0  0  0.106553  0.117747  0  0.973461  0
H  H24  1  0.67126836  0.02619806  0.00811602  1  0  0.103121  0  0.963777  0  0  0.122079  0  1.029219  0  0  0.122796  0  1.029554  0  0  0.110702  0.121431  0  1.029135  0
H  H25  1  0.17128070  0.00812015  0.02620849  1  0  0.10312  0  0.963795  0  0  0.122088  0  1.029234  0  0  0.122805  0  1.029568  0  0  0.110671  0.121434  0  1.029155  0
H  H26  1  0.64244705  0.90647831  0.10168675  1  0  0.099083  0  0.922  0  0  0.121118  0  0.980575  0  0  0.121561  0  0.98078  0  0  0.106059  0.120666  0  0.980543  0
H  H27  1  0.14245132  0.10168728  0.90648477  1  0  0.099069  0  0.922096  0  0  0.121126  0  0.980646  0  0  0.121573  0  0.980846  0  0  0.106057  0.120663  0  0.980624  0
H  H28  1  0.04254431  0.91956027  0.21130149  1  0  0.114396  0  0.954776  0  0  0.128004  0  1.026863  0  0  0.130302  0  1.024745  0  0  0.110684  0.126225  0  1.02855  0
H  H29  1  0.54255606  0.21130263  0.91954994  1  0  0.114345  0  0.954782  0  0  0.127966  0  1.026858  0  0  0.130266  0  1.024737  0  0  0.110638  0.126185  0  1.028538  0
H  H30  1  0.00783358  0.84544620  0.13040294  1  0  0.093557  0  0.919595  0  0  0.117654  0  0.974685  0  0  0.117918  0  0.974966  0  0  0.105034  0.117376  0  0.974564  0
H  H31  1  0.50783893  0.13039630  0.84544707  1  0  0.093574  0  0.919562  0  0  0.117656  0  0.974673  0  0  0.11792  0  0.974956  0  0  0.105049  0.117363  0  0.974563  0
H  H32  1  0.86661219  0.84482666  0.23058333  1  0  0.094953  0  0.964237  0  0  0.115815  0  1.029538  0  0  0.115533  0  1.031041  0  0  0.101901  0.115899  0  1.028586  0
H  H33  1  0.36661431  0.23058176  0.84481914  1  0  0.094996  0  0.964104  0  0  0.115833  0  1.029454  0  0  0.115548  0  1.030963  0  0  0.101918  0.115913  0  1.028503  0
C  C34  1  0.61942397  0.66592119  0.52946763  1  0  0.075006  0  3.835303  0  0  0.091352  0  4.072852  0  0  0.091353  0  4.096995  0  0  -0.01035  0.091203  0  4.056433  0
C  C35  1  0.11942236  0.52946709  0.66592080  1  0  0.075084  0  3.83544  0  0  0.09138  0  4.072912  0  0  0.091378  0  4.097057  0  0  -0.010329  0.091232  0  4.056497  0
C  C36  1  0.54106666  0.59062521  0.50434216  1  0  -0.131733  0  3.656481  0  0  -0.164194  0  3.907481  0  0  -0.166498  0  3.927136  0  0  -0.08736  -0.162456  0  3.89413  0
C  C37  1  0.04106298  0.50434034  0.59062452  1  0  -0.13175  0  3.656463  0  0  -0.164226  0  3.907516  0  0  -0.166528  0  3.927172  0  0  -0.087382  -0.162475  0  3.894152  0
C  C38  1  0.51950838  0.49512192  0.57507616  1  0  0.074574  0  3.845166  0  0  0.089602  0  4.086727  0  0  0.090286  0  4.110067  0  0  -0.011021  0.088974  0  4.070838  0
C  C39  1  0.01950806  0.57507571  0.49512026  1  0  0.074567  0  3.845216  0  0  0.089608  0  4.086649  0  0  0.09029  0  4.109989  0  0  -0.011019  0.088986  0  4.070752  0
C  C40  1  0.58163939  0.47497319  0.67161622  1  0  -0.156694  0  3.686555  0  0  -0.188033  0  3.943249  0  0  -0.190387  0  3.961902  0  0  -0.095135  -0.186167  0  3.930491  0
C  C41  1  0.08164114  0.67161482  0.47497251  1  0  -0.157295  0  3.686345  0  0  -0.188062  0  3.943223  0  0  -0.190418  0  3.961872  0  0  -0.095149  -0.186198  0  3.930477  0
C  C42  1  0.65897612  0.54916425  0.69931423  1  0  0.077043  0  3.845715  0  0  0.086057  0  4.095526  0  0  0.086512  0  4.119306  0  0  -0.014666  0.085578  0  4.079323  0
C  C43  1  0.15898341  0.69931287  0.54916145  1  0  0.078627  0  3.843978  0  0  0.086142  0  4.095437  0  0  0.086596  0  4.119217  0  0  -0.014695  0.085653  0  4.079256  0
C  C44  1  0.67564163  0.64465963  0.62732116  1  0  -0.146602  0  3.665908  0  0  -0.175095  0  3.916624  0  0  -0.177748  0  3.935998  0  0  -0.091394  -0.173058  0  3.903399  0
C  C45  1  0.17564664  0.62731930  0.64465763  1  0  -0.147229  0  3.665569  0  0  -0.175121  0  3.916502  0  0  -0.177789  0  3.935881  0  0  -0.091377  -0.173078  0  3.903283  0
C  C46  1  0.63662219  0.76598478  0.45578230  1  0  -0.015511  0  3.73965  0  0  -0.003059  0  3.997748  0  0  -0.001171  0  4.021158  0  0  -0.00862  -0.004136  0  3.981789  0
C  C47  1  0.13662173  0.45577901  0.76598414  1  0  -0.015512  0  3.739801  0  0  -0.00301  0  3.997846  0  0  -0.001115  0  4.021256  0  0  -0.008591  -0.004111  0  3.981926  0
C  C48  1  0.70542490  0.94459227  0.36812551  1  0  -0.143979  0  3.723655  0  0  -0.125392  0  3.990393  0  0  -0.132359  0  4.00885  0  0  -0.02538  -0.121096  0  3.978357  0
C  C49  1  0.20542088  0.36812572  0.94459368  1  0  -0.14416  0  3.724003  0  0  -0.125464  0  3.990637  0  0  -0.132396  0  4.009039  0  0  -0.025402  -0.121186  0  3.978616  0
C  C50  1  0.59038139  0.91033669  0.31860609  1  0  -0.081334  0  3.784936  0  0  -0.1153  0  4.055322  0  0  -0.112342  0  4.073349  0  0  -0.099457  -0.116834  0  4.042838  0
C  C51  1  0.09037770  0.31860776  0.91033888  1  0  -0.081323  0  3.785032  0  0  -0.115315  0  4.055385  0  0  -0.112374  0  4.073416  0  0  -0.099441  -0.116842  0  4.042893  0
C  C52  1  0.55281051  0.80878300  0.36740737  1  0  -0.151307  0  3.797092  0  0  -0.174838  0  4.061081  0  0  -0.179777  0  4.081979  0  0  -0.110483  -0.171456  0  4.046725  0
C  C53  1  0.05280814  0.36740584  0.80878401  1  0  -0.151401  0  3.797013  0  0  -0.17491  0  4.061017  0  0  -0.179883  0  4.0819  0  0  -0.11054  -0.171536  0  4.046651  0
C  C54  1  0.77477933  0.04501266  0.33885038  1  0  0.668703  0  3.952294  0  0  0.623264  0  4.244326  0  0  0.659663  0  4.237916  0  0  0.203744  0.598236  0  4.24779  0
C  C55  1  0.27477440  0.33885448  0.04501315  1  0  0.668864  0  3.952397  0  0  0.623372  0  4.24444  0  0  0.659766  0  4.238022  0  0  0.203754  0.598343  0  4.247895  0
C  C56  1  0.43123865  0.41823757  0.55031946  1  0  -0.026273  0  3.751352  0  0  -0.016174  0  4.012848  0  0  -0.014885  0  4.036232  0  0  -0.013744  -0.016847  0  3.996908  0
C  C57  1  0.93123254  0.55031938  0.41823729  1  0  -0.026211  0  3.751264  0  0  -0.016148  0  4.012797  0  0  -0.014854  0  4.036176  0  0  -0.013732  -0.016825  0  3.996867  0
C  C58  1  0.27906611  0.32112325  0.46481624  1  0  -0.141563  0  3.736544  0  0  -0.125904  0  4.009189  0  0  -0.132503  0  4.027773  0  0  -0.02204  -0.121703  0  3.996877  0
C  C59  1  0.77906172  0.46481355  0.32112544  1  0  -0.141464  0  3.736542  0  0  -0.125834  0  4.009205  0  0  -0.132428  0  4.027786  0  0  -0.022006  -0.121623  0  3.996882  0
C  C60  1  0.27440317  0.27806274  0.56849994  1  0  -0.067283  0  3.757593  0  0  -0.097066  0  4.015146  0  0  -0.094143  0  4.031457  0  0  -0.095709  -0.098714  0  4.003857  0
C  C61  1  0.77439738  0.56849647  0.27806404  1  0  -0.067429  0  3.757654  0  0  -0.097207  0  4.015241  0  0  -0.094282  0  4.031548  0  0  -0.095797  -0.098866  0  4.003961  0
C  C62  1  0.36205423  0.33260225  0.61678619  1  0  -0.142091  0  3.793037  0  0  -0.164401  0  4.050279  0  0  -0.169398  0  4.072082  0  0  -0.113202  -0.160965  0  4.035189  0
C  C63  1  0.86204785  0.61678599  0.33260057  1  0  -0.142191  0  3.792752  0  0  -0.164459  0  4.050041  0  0  -0.169454  0  4.071836  0  0  -0.113228  -0.161032  0  4.034967  0
C  C64  1  0.20210289  0.28454476  0.39105783  1  0  0.643847  0  4.000016  0  0  0.595738  0  4.302301  0  0  0.631069  0  4.29826  0  0  0.194521  0.571482  0  4.304034  0
C  C65  1  0.70210039  0.39105440  0.28454686  1  0  0.643811  0  4.000151  0  0  0.5957  0  4.302462  0  0  0.631029  0  4.298424  0  0  0.19449  0.571447  0  4.30418  0
C  C66  1  0.72339657  0.52865254  0.79968476  1  0  -0.031837  0  3.754681  0  0  -0.018618  0  4.016181  0  0  -0.017337  0  4.039712  0  0  -0.016038  -0.019261  0  4.000138  0
C  C67  1  0.22339630  0.79968305  0.52865085  1  0  -0.032492  0  3.75471  0  0  -0.018677  0  4.016268  0  0  -0.017396  0  4.039794  0  0  -0.016044  -0.01932  0  4.000234  0
C  C68  1  0.80391374  0.45065213  0.97781624  1  0  -0.127463  0  3.695871  0  0  -0.105965  0  3.955343  0  0  -0.1134  0  3.974534  0  0  -0.018956  -0.101347  0  3.942802  0
C  C69  1  0.30391569  0.97781281  0.45065210  1  0  -0.127499  0  3.695871  0  0  -0.105997  0  3.955347  0  0  -0.113439  0  3.974549  0  0  -0.01899  -0.101381  0  3.942805  0
C  C70  1  0.87438349  0.54271093  0.93178242  1  0  -0.068669  0  3.7672  0  0  -0.100839  0  4.028316  0  0  -0.097765  0  4.04581  0  0  -0.095355  -0.102492  0  4.016191  0
C  C71  1  0.37438404  0.93178031  0.54271219  1  0  -0.0686  0  3.767132  0  0  -0.100769  0  4.028276  0  0  -0.097706  0  4.045769  0  0  -0.095314  -0.102416  0  4.01614  0
C  C72  1  0.82840610  0.58715439  0.83131046  1  0  -0.14211  0  3.783681  0  0  -0.165647  0  4.044773  0  0  -0.170442  0  4.065979  0  0  -0.112031  -0.162372  0  4.030071  0
C  C73  1  0.32840094  0.83130882  0.58715587  1  0  -0.142154  0  3.783857  0  0  -0.165726  0  4.044837  0  0  -0.170519  0  4.066045  0  0  -0.112035  -0.162444  0  4.030132  0
C  C74  1  0.83823344  0.37921961  0.07774223  1  0  0.65696  0  3.953049  0  0  0.611579  0  4.248312  0  0  0.646784  0  4.244392  0  0  0.200041  0.587434  0  4.249968  0
C  C75  1  0.33823679  0.07773981  0.37921984  1  0  0.656964  0  3.953014  0  0  0.611597  0  4.24825  0  0  0.646805  0  4.244325  0  0  0.200081  0.587473  0  4.249896  0
C  C76  1  0.88662355  0.07111169  0.10701187  1  0  0.410719  0  3.791268  0  0  0.334823  0  4.08662  0  0  0.364875  0  4.085476  0  0  0.187115  0.314443  0  4.087036  0
C  C77  1  0.38664824  0.10702244  0.07110978  1  0  0.410459  0  3.791559  0  0  0.334395  0  4.087012  0  0  0.364442  0  4.085874  0  0  0.187042  0.314018  0  4.087425  0
C  C78  1  0.73191140  0.95545087  0.05078199  1  0  -0.168796  0  3.687742  0  0  -0.268606  0  3.933234  0  0  -0.265139  0  3.944432  0  0  -0.126456  -0.270664  0  3.925615  0
C  C79  1  0.23192042  0.05078235  0.95545743  1  0  -0.169001  0  3.687821  0  0  -0.268889  0  3.933274  0  0  -0.265426  0  3.94447  0  0  -0.126541  -0.270923  0  3.925651  0
C  C80  1  0.95067693  0.89150951  0.17349230  1  0  -0.173291  0  3.661307  0  0  -0.27509  0  3.908313  0  0  -0.271295  0  3.918018  0  0  -0.133554  -0.277414  0  3.901824  0
C  C81  1  0.45068336  0.17349306  0.89150436  1  0  -0.173322  0  3.661226  0  0  -0.275141  0  3.908189  0  0  -0.27135  0  3.917899  0  0  -0.133585  -0.277443  0  3.901696  0
S  S82  1  0.76727394  0.85124897  0.47453406  1  0  0.12903  0  2.633076  0  0  0.13002  0  2.951013  0  0  0.128191  0  2.959235  0  0  0.102756  0.130951  0  2.945961  0
S  S83  1  0.26726538  0.47453366  0.85125067  1  0  0.129072  0  2.633226  0  0  0.130018  0  2.951114  0  0  0.128172  0  2.959321  0  0  0.102746  0.130959  0  2.946076  0
S  S84  1  0.39036373  0.42863497  0.42772438  1  0  0.166339  0  2.615854  0  0  0.16324  0  2.935119  0  0  0.16175  0  2.943922  0  0  0.121474  0.163885  0  2.929505  0
S  S85  1  0.89036277  0.42772283  0.42863524  1  0  0.166343  0  2.615834  0  0  0.163263  0  2.935125  0  0  0.161771  0  2.943928  0  0  0.121498  0.16391  0  2.929504  0
S  S86  1  0.67907543  0.42047509  0.89699266  1  0  0.140683  0  2.676456  0  0  0.137407  0  3.007645  0  0  0.13668  0  3.014369  0  0  0.105174  0.13756  0  3.00363  0
S  S87  1  0.17908421  0.89699051  0.42047058  1  0  0.140741  0  2.676655  0  0  0.137425  0  3.007714  0  0  0.136702  0  3.014437  0  0  0.105165  0.137574  0  3.003712  0
N  N88  1  0.86061960  0.97683159  0.10777739  1  0  -0.104352  0  3.509086  0  0  0.001437  0  3.74505  0  0  -0.019598  0  3.770573  0  0  -0.287099  0.015521  0  3.727433  0
N  N89  1  0.36063210  0.10778153  0.97683039  1  0  -0.104092  0  3.509045  0  0  0.001847  0  3.74484  0  0  -0.019191  0  3.770373  0  0  -0.286951  0.015931  0  3.727204  0
O  O90  1  0.71187734  0.11432503  0.26437952  1  0  -0.745371  0  2.101966  0  0  -0.693634  0  2.363884  0  0  -0.732579  0  2.359954  0  0  -0.40631  -0.665194  0  2.36498  0
O  O91  1  0.21188074  0.26438201  0.11432632  1  0  -0.745324  0  2.101918  0  0  -0.693585  0  2.363873  0  0  -0.732534  0  2.359947  0  0  -0.406257  -0.665155  0  2.364995  0
O  O92  1  0.89815251  0.05974476  0.38273132  1  0  -0.627024  0  1.945334  0  0  -0.586942  0  2.179863  0  0  -0.615983  0  2.17125  0  0  -0.354913  -0.566082  0  2.185016  0
O  O93  1  0.39814135  0.38273585  0.05974795  1  0  -0.627028  0  1.945382  0  0  -0.586938  0  2.179924  0  0  -0.615981  0  2.171314  0  0  -0.354925  -0.56607  0  2.185064  0
O  O94  1  0.08857150  0.22258310  0.42046262  1  0  -0.625842  0  1.948744  0  0  -0.586223  0  2.182814  0  0  -0.616159  0  2.175415  0  0  -0.361338  -0.564921  0  2.187133  0
O  O95  1  0.58857086  0.42045832  0.22258338  1  0  -0.625884  0  1.948833  0  0  -0.586235  0  2.182873  0  0  -0.616168  0  2.175466  0  0  -0.361364  -0.564934  0  2.187188  0
O  O96  1  0.24891888  0.31784494  0.29724538  1  0  -0.736155  0  2.001553  0  0  -0.687679  0  2.249439  0  0  -0.724084  0  2.242623  0  0  -0.399571  -0.661072  0  2.252721  0
O  O97  1  0.74892525  0.29724432  0.31784294  1  0  -0.7361  0  2.001638  0  0  -0.687641  0  2.24957  0  0  -0.724047  0  2.242753  0  0  -0.399551  -0.661039  0  2.25284  0
O  O98  1  0.94468583  0.40006826  0.13029195  1  0  -0.627818  0  1.924685  0  0  -0.584746  0  2.151029  0  0  -0.615016  0  2.145671  0  0  -0.350808  -0.5632  0  2.153931  0
O  O99  1  0.44468309  0.13028905  0.40007251  1  0  -0.627837  0  1.924678  0  0  -0.584772  0  2.151009  0  0  -0.615041  0  2.145651  0  0  -0.350759  -0.563236  0  2.153914  0
O  O100  1  0.76536387  0.29402182  0.10735569  1  0  -0.74515  0  2.005972  0  0  -0.699108  0  2.266333  0  0  -0.734654  0  2.25969  0  0  -0.392474  -0.673059  0  2.269447  0
O  O101  1  0.26537160  0.10735362  0.29401865  1  0  -0.745106  0  2.005891  0  0  -0.699063  0  2.26623  0  0  -0.734606  0  2.259585  0  0  -0.392479  -0.673031  0  2.269366  0
O  O102  1  0.00005772  0.09277939  0.15214904  1  0  -0.566399  0  2.094478  0  0  -0.523208  0  2.365907  0  0  -0.551804  0  2.359415  0  0  -0.337439  -0.502952  0  2.369721  0
O  O103  1  0.50006803  0.15216276  0.09277203  1  0  -0.566252  0  2.094656  0  0  -0.523054  0  2.366141  0  0  -0.551621  0  2.359595  0  0  -0.337383  -0.502816  0  2.36999  0
