# generated using pymatgen
data_Cu2H10C19N7O8
_symmetry_space_group_name_H-M   'P 1'
_cell_length_a   8.81942222
_cell_length_b   11.01391720
_cell_length_c   11.24016496
_cell_angle_alpha   80.77398931
_cell_angle_beta   71.86545526
_cell_angle_gamma   67.79030500
_symmetry_Int_Tables_number   1
_chemical_formula_structural   Cu2H10C19N7O8
_chemical_formula_sum   'Cu4 H20 C38 N14 O16'
_cell_volume   959.48239753
_cell_formula_units_Z   2
loop_
 _symmetry_equiv_pos_site_id
 _symmetry_equiv_pos_as_xyz
  1  'x, y, z'
loop_
 _atom_site_type_symbol
 _atom_site_label
 _atom_site_symmetry_multiplicity
 _atom_site_fract_x
 _atom_site_fract_y
 _atom_site_fract_z
 _atom_site_occupancy
 _atom_site_hle17_ddec_charge
 _atom_site_hle17_ddec_spin_density
 _atom_site_hle17_ddec_sum_bond_order
 _atom_site_hle17_magmom
 _atom_site_hse06_10hf_ddec_charge
 _atom_site_hse06_10hf_ddec_spin_density
 _atom_site_hse06_10hf_ddec_sum_bond_order
 _atom_site_hse06_10hf_magmom
 _atom_site_hse06_ddec_charge
 _atom_site_hse06_ddec_spin_density
 _atom_site_hse06_ddec_sum_bond_order
 _atom_site_hse06_magmom
 _atom_site_pbe_cm5_charge
 _atom_site_pbe_ddec_charge
 _atom_site_pbe_ddec_spin_density
 _atom_site_pbe_ddec_sum_bond_order
 _atom_site_pbe_magmom
Cu  Cu0  1  0.12473660  0.29321926  0.17089764  1  0.892886  0.644494  1.657111  0.464  0.892341  0.788026  2.034217  0.609  1.006893  0.874069  1.939707  0.705  0.708344  0.821438  0.709336  2.09673  0.541
Cu  Cu1  1  0.87526389  0.70677848  0.82909823  1  0.89292  -0.644514  1.657165  -0.464  0.89232  -0.788027  2.034235  -0.609  1.006927  -0.874069  1.939668  -0.705  0.708329  0.821402  -0.709326  2.096726  -0.541
Cu  Cu2  1  0.51968273  0.38763032  0.12227273  1  0.507512  0.081266  1.911136  0.062  0.340741  0.006517  2.438574  0.005  0.330926  0.000477  2.398673  0.001  0.590371  0.365887  0.032685  2.451977  0.026
Cu  Cu3  1  0.48032383  0.61236646  0.87772649  1  0.507524  -0.081318  1.911078  -0.062  0.340652  -0.006514  2.43851  -0.005  0.330866  -0.000483  2.398611  -0.001  0.590349  0.365804  -0.032707  2.451947  -0.026
H  H4  1  0.07634557  0.64263005  0.40098186  1  0.123237  -2e-06  0.93026  0.0  0.133394  7.2e-05  0.987435  0.0  0.136962  5e-05  0.984997  0.0  0.11327  0.13037  1.4e-05  0.989861  0.0
H  H5  1  0.92365648  0.35736962  0.59901338  1  0.123241  3e-06  0.930273  0.0  0.133393  -7.2e-05  0.987451  0.0  0.136962  -5e-05  0.98501  0.0  0.113318  0.130372  -1.4e-05  0.989876  0.0
H  H6  1  0.14299572  0.92743411  0.01518231  1  0.100157  0.000103  0.955382  0.0  0.112142  1.9e-05  1.017109  0.0  0.11468  8e-06  1.016912  0.0  0.105707  0.109924  -1.9e-05  1.0179  0.0
H  H7  1  0.85700359  0.07256861  0.98481657  1  0.100199  -9.8e-05  0.955297  0.0  0.112144  -1.8e-05  1.017074  0.0  0.114686  -8e-06  1.016867  0.0  0.105688  0.109923  1.9e-05  1.017882  0.0
H  H8  1  0.17680992  0.13358890  0.42235389  1  0.128927  -0.000107  0.985877  0.0  0.132515  -6.5e-05  1.050881  0.0  0.135567  -4.8e-05  1.047193  0.0  0.149843  0.130581  -8.9e-05  1.053241  0.0
H  H9  1  0.82317939  0.86641992  0.57764963  1  0.128835  0.000104  0.98608  0.0  0.132548  6.5e-05  1.05095  0.0  0.135517  4.8e-05  1.04738  0.0  0.149838  0.130615  8.8e-05  1.053307  0.0
H  H10  1  0.52562485  0.31569895  0.41246047  1  0.1227  0.000182  0.904163  0.0  0.134481  0.000277  0.959122  0.0  0.138312  0.000245  0.953879  0.0  0.154935  0.13167  0.000235  0.962744  0.0
H  H11  1  0.47438038  0.68430080  0.58753944  1  0.122711  -0.000183  0.904176  0.0  0.134494  -0.000277  0.959118  0.0  0.138325  -0.000245  0.953875  0.0  0.154957  0.131683  -0.000235  0.962742  0.0
H  H12  1  0.27841964  0.99418926  0.57415443  1  0.12938  1.1e-05  0.986611  0.0  0.133663  -1.6e-05  1.054942  0.0  0.138407  -1e-05  1.051678  0.0  0.107059  0.130342  -3.6e-05  1.057323  0.0
H  H13  1  0.72157149  0.00581558  0.42584758  1  0.129348  -3e-06  0.986603  0.0  0.133617  1.5e-05  1.054951  0.0  0.138361  1e-05  1.051686  0.0  0.10705  0.130301  3.6e-05  1.057323  0.0
H  H14  1  0.26816350  0.92319348  0.79889364  1  0.106091  1e-05  0.947918  0.0  0.115512  -1.5e-05  1.009867  0.0  0.118852  -1.2e-05  1.007449  0.0  0.108242  0.112744  -2.5e-05  1.012175  0.0
H  H15  1  0.73183001  0.07680636  0.20110511  1  0.106059  -1.1e-05  0.947958  0.0  0.115534  1.5e-05  1.009856  0.0  0.118877  1.3e-05  1.007433  0.0  0.108234  0.112764  2.5e-05  1.012163  0.0
H  H16  1  0.32792467  0.05852107  0.92830693  1  0.136081  -1.8e-05  0.975152  0.0  0.143694  -2.2e-05  1.036296  0.0  0.147438  -1.7e-05  1.03444  0.0  0.114114  0.140901  -3.2e-05  1.03799  0.0
H  H17  1  0.67206601  0.94147689  0.07169361  1  0.136153  1.7e-05  0.975071  0.0  0.143688  2.1e-05  1.03629  0.0  0.147433  1.7e-05  1.034434  0.0  0.114126  0.140899  3.1e-05  1.03798  0.0
H  H18  1  0.46029922  0.15608631  0.00355595  1  0.12839  -0.000115  0.954236  0.0  0.1305  -0.000104  1.027465  0.0  0.134158  -0.000102  1.022713  0.0  0.147072  0.127977  -0.000101  1.030968  0.0
H  H19  1  0.53968999  0.84391382  0.99645256  1  0.128416  0.000122  0.954272  0.0  0.130489  0.000104  1.027527  0.0  0.134143  0.000102  1.022786  0.0  0.147109  0.127965  0.000101  1.031026  0.0
H  H20  1  0.38298416  0.44599416  0.71029646  1  0.127974  -6e-06  0.906684  0.0  0.136102  -1.6e-05  0.966933  0.0  0.139221  -1.2e-05  0.962858  0.0  0.154401  0.134111  -1.9e-05  0.969416  0.0
H  H21  1  0.61703107  0.55399949  0.28969880  1  0.128012  -0.0  0.906726  0.0  0.136135  1.6e-05  0.96697  0.0  0.139254  1.2e-05  0.962894  0.0  0.154386  0.134144  1.9e-05  0.969458  0.0
H  H22  1  0.09222176  0.81291150  0.61184432  1  0.418202  -3.6e-05  0.836431  0.0  0.388758  -0.000134  0.913835  0.0  0.40166  -4.7e-05  0.898761  0.0  0.317609  0.379359  -0.000218  0.925084  0.0
H  H23  1  0.90777486  0.18708639  0.38815589  1  0.418246  3.6e-05  0.836413  0.0  0.388807  0.000134  0.91379  0.0  0.401706  4.7e-05  0.898718  0.0  0.317612  0.379409  0.000217  0.925054  0.0
C  C24  1  0.14185768  0.90234297  0.20884036  1  -0.024688  0.005778  3.685222  0.006  -0.013784  0.003774  3.920774  0.005  -0.014767  0.002518  3.938803  0.003  -0.002604  -0.01363  0.004918  3.909398  0.006
C  C25  1  0.85814509  0.09765890  0.79116507  1  -0.024563  -0.00578  3.685216  -0.006  -0.013626  -0.003774  3.92069  -0.005  -0.014596  -0.002514  3.938716  -0.003  -0.00252  -0.013439  -0.004918  3.909258  -0.006
C  C26  1  0.12789390  0.81882731  0.31783988  1  -0.10586  -0.000134  3.755919  0.0  -0.094483  0.000167  4.001825  0.0  -0.104438  7.9e-05  4.026023  0.0  -0.023678  -0.08916  -0.00071  3.987487  -0.001
C  C27  1  0.87210547  0.18117248  0.68215946  1  -0.105971  0.000143  3.755904  0.0  -0.094551  -0.000165  4.001777  0.0  -0.104534  -8.4e-05  4.026021  0.0  -0.023701  -0.089237  0.00071  3.987444  0.001
C  C28  1  0.09003549  0.70621387  0.31632703  1  -0.065233  0.002753  3.676267  0.003  -0.103294  0.001645  3.932363  0.002  -0.10167  0.000984  3.951827  0.001  -0.075161  -0.105225  0.001644  3.921908  0.002
C  C29  1  0.90996269  0.29378594  0.68367255  1  -0.06518  -0.002758  3.676313  -0.003  -0.103262  -0.001646  3.932422  -0.002  -0.101628  -0.000981  3.951883  -0.001  -0.075157  -0.1052  -0.001643  3.921964  -0.002
C  C30  1  0.07342080  0.67104297  0.20822145  1  -0.04748  0.007643  3.679365  0.008  -0.031991  0.004963  3.913765  0.006  -0.036336  0.003538  3.928847  0.004  -0.006903  -0.030625  0.004838  3.905954  0.005
C  C31  1  0.92658654  0.32895477  0.79177746  1  -0.047465  -0.00763  3.679599  -0.008  -0.032023  -0.004962  3.913965  -0.006  -0.036326  -0.003539  3.929074  -0.004  -0.006907  -0.030632  -0.004837  3.906131  -0.005
C  C32  1  0.09624818  0.75066421  0.09759956  1  -0.026546  -0.007432  3.682269  -0.008  -0.015275  -0.005278  3.915362  -0.006  -0.013277  -0.0037  3.927515  -0.005  0.003447  -0.01771  -0.006096  3.908701  -0.007
C  C33  1  0.90375741  0.24933832  0.90239448  1  -0.026787  0.007429  3.682623  0.008  -0.015273  0.005278  3.915435  0.006  -0.013407  0.003702  3.927766  0.005  0.003365  -0.01772  0.006096  3.908775  0.007
C  C34  1  0.12683221  0.86565767  0.10081620  1  -0.112109  -0.002301  3.72065  -0.002  -0.141688  -0.001424  3.970423  -0.001  -0.145632  -0.001015  3.989959  -0.001  -0.085769  -0.139671  -0.001248  3.959068  -0.001
C  C35  1  0.87316281  0.13434908  0.89918558  1  -0.11205  0.00229  3.720765  0.002  -0.141678  0.001425  3.970473  0.001  -0.145578  0.001013  3.990038  0.001  -0.0857  -0.139674  0.001248  3.959135  0.001
C  C36  1  0.18062936  0.02733762  0.19430510  1  0.658382  -0.003229  3.886552  -0.005  0.606461  -0.000852  4.193184  -0.003  0.643866  -0.001078  4.184253  -0.003  0.20793  0.581504  -0.000412  4.19867  -0.003
C  C37  1  0.81937058  0.97266320  0.80569663  1  0.658243  0.003224  3.886615  0.005  0.606306  0.000852  4.193243  0.003  0.643703  0.001077  4.18433  0.003  0.207804  0.581342  0.000411  4.19873  0.003
C  C38  1  0.15365184  0.84921240  0.43225101  1  0.657786  0.000341  3.812933  0.0  0.605044  0.000235  4.119699  0.0  0.63959  0.000184  4.108982  0.0  0.229296  0.581248  -0.00011  4.127296  0.0
C  C39  1  0.84634146  0.15078751  0.56775045  1  0.65794  -0.000341  3.812834  0.0  0.605094  -0.000236  4.119726  0.0  0.639647  -0.000184  4.109007  0.0  0.229236  0.581305  0.00011  4.12731  0.0
C  C40  1  0.04233965  0.54396862  0.21597735  1  0.627458  -0.004312  3.923916  -0.008  0.585402  -0.000127  4.229102  -0.003  0.623162  -0.000522  4.223763  -0.003  0.19101  0.560385  0.000325  4.233585  -0.003
C  C41  1  0.95766099  0.45603113  0.78402084  1  0.627602  0.004301  3.923669  0.008  0.585486  0.000127  4.228938  0.003  0.62324  0.000522  4.22361  0.003  0.191075  0.560456  -0.000325  4.233425  0.003
C  C42  1  0.08670114  0.72134749  0.97366932  1  0.663022  0.004523  3.864209  0.007  0.619616  0.000693  4.157302  0.003  0.65786  0.000951  4.14871  0.003  0.212426  0.594521  0.000248  4.163203  0.003
C  C43  1  0.91330233  0.27865415  0.02632709  1  0.663044  -0.004526  3.863995  -0.007  0.619495  -0.000691  4.157227  -0.003  0.657773  -0.000951  4.148635  -0.003  0.212405  0.594403  -0.000248  4.163129  -0.003
C  C44  1  0.25650016  0.19289974  0.39187742  1  0.200314  -0.002075  3.586058  -0.001  0.140522  0.000452  3.853196  0.001  0.156679  -0.000376  3.866397  0.0  0.175243  0.130534  0.0012  3.843609  0.002
C  C45  1  0.74349844  0.80710115  0.60812635  1  0.200278  0.002094  3.586107  0.001  0.14038  -0.000454  3.85327  -0.001  0.156593  0.000376  3.866535  0.0  0.175196  0.130373  -0.001202  3.843681  -0.002
C  C46  1  0.43679788  0.28673147  0.38564983  1  0.191693  0.00086  3.56953  0.002  0.126853  0.00145  3.831832  0.002  0.14195  0.001158  3.835778  0.002  0.173233  0.118289  0.001686  3.828348  0.003
C  C47  1  0.56320509  0.71326826  0.61434877  1  0.191688  -0.000862  3.569557  -0.002  0.126886  -0.001449  3.831817  -0.002  0.141986  -0.00116  3.835761  -0.002  0.173231  0.118317  -0.001686  3.828339  -0.003
C  C48  1  0.35024051  0.15924934  0.58509253  1  0.352412  0.000212  3.79539  0.0  0.329457  0.000267  4.061656  0.0  0.341732  0.000263  4.079817  0.0  0.227371  0.321283  0.000219  4.049185  0.0
C  C49  1  0.64975534  0.84075255  0.41491076  1  0.352338  -0.0002  3.795355  0.0  0.329393  -0.000268  4.061621  0.0  0.341672  -0.000263  4.079778  0.0  0.227375  0.321214  -0.000219  4.049156  0.0
C  C50  1  0.30749338  0.04799064  0.63226846  1  -0.210041  -0.000246  3.706456  0.0  -0.237439  -0.00013  3.970719  0.0  -0.246921  -0.000139  3.992826  0.0  -0.093869  -0.23081  -0.000119  3.955111  0.0
C  C51  1  0.69249979  0.95201222  0.36773345  1  -0.209957  0.000221  3.706403  0.0  -0.237347  0.000131  3.970683  0.0  -0.246827  0.000138  3.99279  0.0  -0.093853  -0.230719  0.00012  3.955073  0.0
C  C52  1  0.30165153  0.00955523  0.75764884  1  0.018792  0.000118  3.708262  0.0  0.000585  8e-06  3.964717  0.0  0.003774  3.4e-05  3.98385  0.0  -0.06777  -0.001249  3.4e-05  3.951527  0.0
C  C53  1  0.69834079  0.99044669  0.24235428  1  0.018788  -0.000115  3.708256  0.0  0.000519  -1.1e-05  3.964699  0.0  0.003705  -3.2e-05  3.983833  0.0  -0.067817  -0.001317  -3.4e-05  3.951521  0.0
C  C54  1  0.33596432  0.08275358  0.82935384  1  -0.163028  -0.000363  3.654669  0.0  -0.187504  -9.5e-05  3.908496  0.0  -0.193984  -0.000104  3.926128  0.0  -0.077129  -0.182935  -0.000116  3.896755  0.0
C  C55  1  0.66403823  0.91724423  0.17064605  1  -0.163053  0.000374  3.654648  0.0  -0.187487  9.8e-05  3.908439  0.0  -0.193967  0.000102  3.926073  0.0  -0.077102  -0.182924  0.000116  3.896704  0.0
C  C56  1  0.37923383  0.19096920  0.76933163  1  0.372732  0.000302  3.756455  0.0  0.349506  0.000218  4.017046  0.0  0.363719  0.000179  4.03184  0.0  0.238675  0.339803  0.000207  4.006793  0.0
C  C57  1  0.62076300  0.80903067  0.23067000  1  0.372636  -0.000314  3.756607  0.0  0.349536  -0.000218  4.017004  0.0  0.363749  -0.000177  4.031795  0.0  0.238664  0.339833  -0.000207  4.006753  0.0
C  C58  1  0.45484782  0.24593473  0.94646772  1  0.182542  -0.000964  3.592952  0.0  0.107477  -0.000376  3.881511  0.0  0.11815  -0.000309  3.891124  0.0  0.16521  0.102032  -0.000436  3.874159  0.0
C  C59  1  0.54515029  0.75406716  0.05353688  1  0.182565  0.00091  3.593212  0.0  0.10755  0.000378  3.881765  0.0  0.118218  0.000308  3.891387  0.0  0.165201  0.10211  0.000437  3.874398  0.0
C  C60  1  0.41795465  0.39560685  0.79396961  1  0.199613  0.00019  3.570725  0.0  0.130336  -0.000131  3.840583  0.0  0.142698  -0.000106  3.850696  0.0  0.173519  0.12403  -9.3e-05  3.831717  0.0
C  C61  1  0.58205141  0.60438597  0.20602769  1  0.19955  -0.000158  3.570587  0.0  0.130296  0.000131  3.840454  0.0  0.142661  0.000108  3.850563  0.0  0.173465  0.123988  9.5e-05  3.831595  0.0
N  N62  1  0.28054434  0.25840330  0.28317877  1  -0.24246  0.039416  3.206447  0.048  -0.210804  0.037714  3.521185  0.048  -0.240471  0.032472  3.538161  0.044  -0.251707  -0.19327  0.039328  3.512344  0.049
N  N63  1  0.71945426  0.74159759  0.71682500  1  -0.242303  -0.039425  3.206291  -0.048  -0.210681  -0.037713  3.521089  -0.048  -0.240363  -0.032472  3.538053  -0.044  -0.251686  -0.193135  -0.03933  3.512228  -0.049
N  N64  1  0.39755209  0.31631336  0.27761822  1  -0.209843  0.006145  3.270168  0.007  -0.148518  0.002907  3.603564  0.003  -0.148987  0.001841  3.606714  0.002  -0.267395  -0.150306  0.004883  3.600512  0.006
N  N65  1  0.60244968  0.68368639  0.72238062  1  -0.209896  -0.006142  3.270131  -0.007  -0.148561  -0.002908  3.603524  -0.003  -0.149033  -0.001841  3.606687  -0.002  -0.267423  -0.150351  -0.004883  3.600478  -0.006
N  N66  1  0.35103547  0.20848227  0.45966260  1  -0.133603  0.000834  3.545621  0.001  -0.044837  0.000862  3.761192  0.001  -0.061791  0.000663  3.780717  0.001  -0.206777  -0.03329  0.000958  3.746774  0.001
N  N67  1  0.64896116  0.79152057  0.54034037  1  -0.133536  -0.00084  3.545509  -0.001  -0.044778  -0.000861  3.761103  -0.001  -0.061736  -0.000663  3.780613  -0.001  -0.206755  -0.033228  -0.000958  3.746687  -0.001
N  N68  1  0.38925583  0.22881027  0.64943340  1  -0.418892  8.2e-05  3.05805  0.0  -0.396423  0.000195  3.331216  0.0  -0.410034  9.3e-05  3.342985  0.0  -0.307634  -0.387647  0.000305  3.323543  0.0
N  N69  1  0.61074495  0.77118859  0.35056847  1  -0.418911  -7.2e-05  3.058169  0.0  -0.396482  -0.000196  3.331293  0.0  -0.410094  -9.3e-05  3.343062  0.0  -0.307669  -0.387704  -0.000305  3.32362  0.0
N  N70  1  0.41388012  0.27254220  0.83483906  1  -0.12848  -0.00034  3.531686  0.0  -0.041296  -0.000129  3.753582  0.0  -0.059198  -7.3e-05  3.77689  0.0  -0.20578  -0.028677  -0.000184  3.735709  0.0
N  N71  1  0.58611925  0.72745759  0.16516027  1  -0.128414  0.000346  3.531608  0.0  -0.04128  0.000131  3.753456  0.0  -0.059181  7.3e-05  3.776761  0.0  -0.205697  -0.028662  0.000184  3.735579  0.0
N  N72  1  0.48526889  0.34600594  0.97145162  1  -0.215796  0.001468  3.271831  0.002  -0.158716  -0.000254  3.611186  0.0  -0.16173  -0.000284  3.610698  0.0  -0.276258  -0.159069  4e-05  3.610758  0.0
N  N73  1  0.51473268  0.65399594  0.02855406  1  -0.215736  -0.001428  3.27189  -0.002  -0.158647  0.000251  3.611225  0.0  -0.161669  0.000285  3.610757  0.0  -0.27623  -0.158996  -3.6e-05  3.61079  0.0
N  N74  1  0.46163276  0.44108073  0.87467302  1  -0.21175  0.000186  3.26515  0.001  -0.153123  0.000105  3.600338  0.0  -0.156307  8.3e-05  3.599671  0.0  -0.27479  -0.153351  0.000258  3.599243  0.001
N  N75  1  0.53837612  0.55891107  0.12532385  1  -0.211837  -0.00021  3.265094  -0.001  -0.153264  -0.000107  3.600343  0.0  -0.156445  -8.2e-05  3.599666  0.0  -0.27486  -0.153497  -0.000254  3.599249  -0.001
O  O76  1  0.06218403  0.13128361  0.24663131  1  -0.641599  0.057823  2.108528  0.076  -0.591985  0.048429  2.377862  0.067  -0.635812  0.038808  2.367483  0.057  -0.321664  -0.565112  0.049492  2.385966  0.066
O  O77  1  0.93781443  0.86871817  0.75336878  1  -0.641552  -0.057809  2.108538  -0.076  -0.591919  -0.048429  2.37787  -0.067  -0.635751  -0.038805  2.367484  -0.057  -0.32164  -0.565047  -0.049491  2.385959  -0.066
O  O78  1  0.32059876  0.02715278  0.12157235  1  -0.60898  -1.8e-05  1.988162  0.001  -0.566732  0.00061  2.233844  0.002  -0.594457  -0.000102  2.22722  0.001  -0.303397  -0.547937  0.002126  2.238274  0.004
O  O79  1  0.67939828  0.97284703  0.87842657  1  -0.608955  1.7e-05  1.988154  -0.001  -0.566667  -0.000611  2.233801  -0.002  -0.594394  0.000103  2.227191  -0.001  -0.303333  -0.547882  -0.002128  2.238233  -0.004
O  O80  1  0.20167268  0.93968809  0.43649712  1  -0.558231  0.000269  2.007929  0.0  -0.5134  0.000199  2.235694  0.0  -0.534347  6.3e-05  2.22751  0.0  -0.287394  -0.499695  -8.9e-05  2.241554  0.0
O  O81  1  0.79832971  0.06030687  0.56350594  1  -0.558268  -0.00027  2.007936  0.0  -0.513455  -0.000199  2.235798  0.0  -0.534384  -6.2e-05  2.227597  0.0  -0.287391  -0.499752  9e-05  2.241655  0.0
O  O82  1  0.11939167  0.76929113  0.53230110  1  -0.553347  6.8e-05  2.100131  0.0  -0.504828  2.7e-05  2.322075  0.0  -0.526565  0.000106  2.304896  0.0  -0.33128  -0.490181  -0.000106  2.334575  0.0
O  O83  1  0.88060353  0.23070479  0.46769795  1  -0.553455  -6.4e-05  2.100065  0.0  -0.504848  -2.7e-05  2.321996  0.0  -0.526588  -0.000106  2.304823  0.0  -0.331233  -0.490202  0.000105  2.334502  0.0
O  O84  1  0.94099375  0.51391474  0.31069225  1  -0.603126  0.002456  1.863436  0.004  -0.578862  0.000926  2.085434  0.002  -0.606681  -0.000494  2.076863  0.0  -0.336882  -0.56005  0.001918  2.091286  0.003
O  O85  1  0.05901374  0.48608211  0.68931034  1  -0.60316  -0.002452  1.863356  -0.004  -0.578862  -0.000927  2.085367  -0.002  -0.606682  0.000494  2.076803  0.0  -0.33691  -0.560049  -0.001921  2.091218  -0.003
O  O86  1  0.13603736  0.46962284  0.12250066  1  -0.578405  0.11109  2.050353  0.145  -0.553499  0.076278  2.334815  0.108  -0.60216  0.057969  2.327722  0.087  -0.321909  -0.527579  0.080357  2.34329  0.11
O  O87  1  0.86396527  0.53037785  0.87749697  1  -0.578504  -0.111061  2.050314  -0.145  -0.553564  -0.076278  2.334805  -0.108  -0.602237  -0.05797  2.32771  -0.087  -0.321942  -0.527651  -0.080355  2.343285  -0.11
O  O88  1  0.94536635  0.71058075  0.97727254  1  -0.57693  -0.085844  2.073381  -0.113  -0.547642  -0.061093  2.353534  -0.087  -0.597489  -0.047139  2.34687  -0.071  -0.316606  -0.516698  -0.065264  2.358823  -0.09
O  O89  1  0.05463859  0.28941703  0.02272686  1  -0.576924  0.085872  2.07333  0.113  -0.547629  0.061095  2.35358  0.087  -0.597459  0.047142  2.346899  0.071  -0.31661  -0.516675  0.065266  2.358861  0.09
O  O90  1  0.20904991  0.71731803  0.87766008  1  -0.609866  -0.000506  2.026289  -0.002  -0.558934  -0.00059  2.297251  -0.002  -0.583171  0.000403  2.283928  0.0  -0.325918  -0.545  -0.001484  2.305429  -0.003
O  O91  1  0.79095695  0.28268361  0.12233830  1  -0.609855  0.000506  2.02622  0.002  -0.558923  0.00059  2.297281  0.002  -0.583153  -0.000403  2.283938  0.0  -0.325928  -0.544987  0.001485  2.305454  0.003
