# generated using pymatgen
data_SrH11C7NO8
_symmetry_space_group_name_H-M   'P 1'
_cell_length_a   7.06686372
_cell_length_b   8.68292918
_cell_length_c   10.00251273
_cell_angle_alpha   71.33537487
_cell_angle_beta   73.64728572
_cell_angle_gamma   81.06495777
_symmetry_Int_Tables_number   1
_chemical_formula_structural   SrH11C7NO8
_chemical_formula_sum   'Sr2 H22 C14 N2 O16'
_cell_volume   556.52544684
_cell_formula_units_Z   2
loop_
 _symmetry_equiv_pos_site_id
 _symmetry_equiv_pos_as_xyz
  1  'x, y, z'
loop_
 _atom_site_type_symbol
 _atom_site_label
 _atom_site_symmetry_multiplicity
 _atom_site_fract_x
 _atom_site_fract_y
 _atom_site_fract_z
 _atom_site_occupancy
 _atom_site_hle17_bader_spin_density
 _atom_site_hle17_ddec_charge
 _atom_site_hle17_ddec_spin_density
 _atom_site_hle17_ddec_sum_bond_order
 _atom_site_hle17_magmom
 _atom_site_hse06_10hf_bader_spin_density
 _atom_site_hse06_10hf_ddec_charge
 _atom_site_hse06_10hf_ddec_spin_density
 _atom_site_hse06_10hf_ddec_sum_bond_order
 _atom_site_hse06_10hf_magmom
 _atom_site_hse06_bader_spin_density
 _atom_site_hse06_ddec_charge
 _atom_site_hse06_ddec_spin_density
 _atom_site_hse06_ddec_sum_bond_order
 _atom_site_hse06_magmom
 _atom_site_pbe_bader_spin_density
 _atom_site_pbe_cm5_charge
 _atom_site_pbe_ddec_charge
 _atom_site_pbe_ddec_spin_density
 _atom_site_pbe_ddec_sum_bond_order
 _atom_site_pbe_magmom
Sr  Sr0  1  0.27144744  0.12341392  0.40137265  1  0  1.643656  0  1.075573  0  0  1.509382  0  1.440152  0  0  1.545597  0  1.394933  0  0  0.947355  1.482428  0  1.473258  0
Sr  Sr1  1  0.72855206  0.87658136  0.59863812  1  0  1.643683  0  1.075543  0  0  1.509359  0  1.440235  0  0  1.545575  0  1.395013  0  0  0.947365  1.482403  0  1.473348  0
H  H2  1  0.37761972  0.93743666  0.91463002  1  0  0.081663  0  0.930658  0  0  0.089717  0  0.996906  0  0  0.093306  0  0.992544  0  0  0.12564  0.086985  0  1.000176  0
H  H3  1  0.62236570  0.06257669  0.08536765  1  0  0.081744  0  0.930468  0  0  0.089766  0  0.996755  0  0  0.093357  0  0.992388  0  0  0.125647  0.087033  0  1.000026  0
H  H4  1  0.03071681  0.65599026  0.29729850  1  0  0.09035  0  0.973215  0  0  0.098496  0  1.038073  0  0  0.102117  0  1.033923  0  0  0.123439  0.095796  0  1.041089  0
H  H5  1  0.96928378  0.34401972  0.70269898  1  0  0.090383  0  0.973113  0  0  0.098527  0  1.037975  0  0  0.10215  0  1.033824  0  0  0.123446  0.095826  0  1.040991  0
H  H6  1  0.88418583  0.72467300  0.89044088  1  0  0.103814  0  0.977766  0  0  0.115456  0  1.041543  0  0  0.118861  0  1.037858  0  0  0.123302  0.112798  0  1.044545  0
H  H7  1  0.11579503  0.27532925  0.10956280  1  0  0.103848  0  0.977845  0  0  0.115505  0  1.041601  0  0  0.118911  0  1.037916  0  0  0.123312  0.112848  0  1.044604  0
H  H8  1  0.91918929  0.39264433  0.41959950  1  0  0.42221  0  0.879543  0  0  0.3907  0  0.944847  0  0  0.401202  0  0.929376  0  0  0.295922  0.383225  0  0.95589  0
H  H9  1  0.08080676  0.60735456  0.58040598  1  0  0.422226  0  0.87951  0  0  0.390718  0  0.944811  0  0  0.401222  0  0.929335  0  0  0.295932  0.383243  0  0.955855  0
H  H10  1  0.87031395  0.24255139  0.55627592  1  0  0.409869  0  0.900253  0  0  0.381113  0  0.961757  0  0  0.391994  0  0.945771  0  0  0.295388  0.373415  0  0.973075  0
H  H11  1  0.12968510  0.75744636  0.44372326  1  0  0.40984  0  0.9003  0  0  0.381099  0  0.961784  0  0  0.39198  0  0.945799  0  0  0.295375  0.373401  0  0.973102  0
H  H12  1  0.34337869  0.38956081  0.54356913  1  0  0.42063  0  0.87904  0  0  0.389916  0  0.942048  0  0  0.399775  0  0.927597  0  0  0.302169  0.382842  0  0.952428  0
H  H13  1  0.65661597  0.61043685  0.45643298  1  0  0.420642  0  0.879022  0  0  0.389939  0  0.942011  0  0  0.399796  0  0.927561  0  0  0.302195  0.382864  0  0.952393  0
H  H14  1  0.31512882  0.83426160  0.23321530  1  0  0.392318  0  0.926322  0  0  0.345686  0  1.014293  0  0  0.357856  0  0.997019  0  0  0.284787  0.337008  0  1.026556  0
H  H15  1  0.68487145  0.16573861  0.76678495  1  0  0.392307  0  0.926319  0  0  0.345689  0  1.014273  0  0  0.357859  0  0.996999  0  0  0.284789  0.33701  0  1.026537  0
H  H16  1  0.54041444  0.38719424  0.41861950  1  0  0.419824  0  0.884006  0  0  0.384955  0  0.953246  0  0  0.396888  0  0.935815  0  0  0.294655  0.376478  0  0.965624  0
H  H17  1  0.45957566  0.61280454  0.58138223  1  0  0.419785  0  0.884045  0  0  0.384919  0  0.953278  0  0  0.396842  0  0.935863  0  0  0.294654  0.376442  0  0.965654  0
H  H18  1  0.35769098  0.37984185  0.06803567  1  0  0.423197  0  0.884086  0  0  0.391197  0  0.950207  0  0  0.402066  0  0.934328  0  0  0.287555  0.38346  0  0.961485  0
H  H19  1  0.64230600  0.62016075  0.93196059  1  0  0.423168  0  0.884166  0  0  0.391144  0  0.950297  0  0  0.402015  0  0.934418  0  0  0.28751  0.383411  0  0.961569  0
H  H20  1  0.44221500  0.79202183  0.35937158  1  0  0.422685  0  0.870067  0  0  0.391976  0  0.93426  0  0  0.403158  0  0.917778  0  0  0.302018  0.383881  0  0.946224  0
H  H21  1  0.55777908  0.20796848  0.64063468  1  0  0.422591  0  0.870163  0  0  0.391932  0  0.934311  0  0  0.403118  0  0.917823  0  0  0.302011  0.383836  0  0.946275  0
H  H22  1  0.46018797  0.43118039  0.16602828  1  0  0.429002  0  0.872879  0  0  0.396311  0  0.939266  0  0  0.40814  0  0.921993  0  0  0.290352  0.38791  0  0.951515  0
H  H23  1  0.53980004  0.56881103  0.83397592  1  0  0.428995  0  0.872875  0  0  0.396301  0  0.939274  0  0  0.408132  0  0.921997  0  0  0.290344  0.3879  0  0.951522  0
C  C24  1  0.18124656  0.91278801  0.72073716  1  0  0.687692  0  3.923998  0  0  0.638422  0  4.212915  0  0  0.673468  0  4.204647  0  0  0.223231  0.614691  0  4.217716  0
C  C25  1  0.81876258  0.08721237  0.27926422  1  0  0.687809  0  3.924334  0  0  0.638433  0  4.213406  0  0  0.673475  0  4.20514  0  0  0.223191  0.614702  0  4.218209  0
C  C26  1  0.13635560  0.83848276  0.88280103  1  0  -0.111831  0  3.740842  0  0  -0.087368  0  3.985377  0  0  -0.100248  0  4.007794  0  0  -0.006622  -0.079486  0  3.97049  0
C  C27  1  0.86364437  0.16151989  0.11719761  1  0  -0.111899  0  3.740884  0  0  -0.08738  0  3.985417  0  0  -0.100254  0  4.007829  0  0  -0.006667  -0.079499  0  3.970529  0
C  C28  1  0.25126455  0.86273562  0.96672241  1  0  0.140777  0  3.670607  0  0  0.095148  0  3.932809  0  0  0.105367  0  3.946656  0  0  0.069695  0.088837  0  3.923355  0
C  C29  1  0.74873868  0.13725123  0.03327592  1  0  0.14073  0  3.670448  0  0  0.095135  0  3.932623  0  0  0.105356  0  3.946467  0  0  0.069705  0.088826  0  3.923168  0
C  C30  1  0.05742071  0.70581854  0.17914510  1  0  0.136222  0  3.645023  0  0  0.093178  0  3.897099  0  0  0.103115  0  3.911413  0  0  0.062627  0.086954  0  3.887396  0
C  C31  1  0.94257740  0.29418773  0.82085592  1  0  0.13604  0  3.645098  0  0  0.093016  0  3.89719  0  0  0.10295  0  3.911506  0  0  0.062568  0.086795  0  3.887485  0
C  C32  1  0.93352709  0.67506964  0.10480278  1  0  -0.127707  0  3.755213  0  0  -0.102192  0  4.002405  0  0  -0.115865  0  4.026335  0  0  -0.014753  -0.093693  0  3.986588  0
C  C33  1  0.06648311  0.32493205  0.89518002  1  0  -0.127261  0  3.75449  0  0  -0.101773  0  4.001655  0  0  -0.115441  0  4.025586  0  0  -0.014602  -0.093277  0  3.985836  0
C  C34  1  0.97464291  0.74462518  0.95417792  1  0  -0.01527  0  3.682346  0  0  -0.058761  0  3.930202  0  0  -0.05131  0  3.946577  0  0  -0.051012  -0.063025  0  3.919073  0
C  C35  1  0.02535465  0.25537374  0.04582925  1  0  -0.015541  0  3.68199  0  0  -0.059077  0  3.929883  0  0  -0.051629  0  3.946251  0  0  -0.051124  -0.063339  0  3.91875  0
C  C36  1  0.76040538  0.57254816  0.18431512  1  0  0.67069  0  3.896916  0  0  0.610616  0  4.200872  0  0  0.644415  0  4.194759  0  0  0.221154  0.587829  0  4.204265  0
C  C37  1  0.23961292  0.42744996  0.81568799  1  0  0.670527  0  3.897169  0  0  0.610525  0  4.201031  0  0  0.644324  0  4.194914  0  0  0.221129  0.587739  0  4.204426  0
N  N38  1  0.21142007  0.79928307  0.11201275  1  0  -0.302652  0  3.146538  0  0  -0.239012  0  3.403692  0  0  -0.254203  0  3.417004  0  0  -0.301053  -0.228851  0  3.394444  0
N  N39  1  0.78857764  0.20072685  0.88798934  1  0  -0.302621  0  3.14665  0  0  -0.239007  0  3.403807  0  0  -0.2542  0  3.41712  0  0  -0.301026  -0.228845  0  3.394557  0
O  O40  1  0.64145756  0.56388942  0.11373964  1  0  -0.624569  0  2.01575  0  0  -0.56138  0  2.237904  0  0  -0.587759  0  2.229034  0  0  -0.297125  -0.542885  0  2.24349  0
O  O41  1  0.35853828  0.43612293  0.88625417  1  0  -0.624395  0  2.016236  0  0  -0.561232  0  2.23837  0  0  -0.587608  0  2.229496  0  0  -0.297034  -0.542738  0  2.24396  0
O  O42  1  0.74131762  0.49948390  0.32055281  1  0  -0.676574  0  2.045785  0  0  -0.600985  0  2.261246  0  0  -0.62779  0  2.249408  0  0  -0.305909  -0.582331  0  2.269255  0
O  O43  1  0.25869248  0.50052019  0.67944135  1  0  -0.676671  0  2.045725  0  0  -0.60108  0  2.261116  0  0  -0.627892  0  2.249295  0  0  -0.305925  -0.582425  0  2.269127  0
O  O44  1  0.04303613  0.93265058  0.65719078  1  0  -0.730172  0  1.989467  0  0  -0.667746  0  2.232431  0  0  -0.695003  0  2.222928  0  0  -0.372406  -0.648609  0  2.238986  0
O  O45  1  0.95696417  0.06736067  0.34279541  1  0  -0.730172  0  1.989935  0  0  -0.667715  0  2.232949  0  0  -0.694968  0  2.22345  0  0  -0.37236  -0.648578  0  2.239502  0
O  O46  1  0.35551191  0.95559674  0.65338010  1  0  -0.748465  0  2.004395  0  0  -0.684637  0  2.250936  0  0  -0.712093  0  2.241024  0  0  -0.396675  -0.665212  0  2.257369  0
O  O47  1  0.64449182  0.04439986  0.34662643  1  0  -0.748528  0  2.004337  0  0  -0.684647  0  2.25089  0  0  -0.712117  0  2.241005  0  0  -0.396658  -0.665235  0  2.25735  0
O  O48  1  0.98080295  0.31119916  0.49270866  1  0  -0.880736  0  1.827039  0  0  -0.829694  0  2.00446  0  0  -0.849136  0  1.972815  0  0  -0.636114  -0.815262  0  2.026655  0
O  O49  1  0.01919733  0.68880105  0.50729258  1  0  -0.880707  0  1.827011  0  0  -0.829693  0  2.004423  0  0  -0.849132  0  1.972776  0  0  -0.636114  -0.815258  0  2.026619  0
O  O50  1  0.33447671  0.86170764  0.31977490  1  0  -0.885847  0  1.913816  0  0  -0.818115  0  2.109153  0  0  -0.839327  0  2.074027  0  0  -0.612916  -0.803109  0  2.134341  0
O  O51  1  0.66552839  0.13828901  0.68022534  1  0  -0.885753  0  1.913918  0  0  -0.81807  0  2.109179  0  0  -0.839283  0  2.074048  0  0  -0.612925  -0.803065  0  2.134369  0
O  O52  1  0.43249795  0.31859548  0.48923368  1  0  -0.868765  0  1.835253  0  0  -0.805074  0  2.009893  0  0  -0.826595  0  1.978743  0  0  -0.601654  -0.789725  0  2.032088  0
O  O53  1  0.56750014  0.68139857  0.51077271  1  0  -0.868785  0  1.835256  0  0  -0.805087  0  2.009908  0  0  -0.826595  0  1.978762  0  0  -0.601712  -0.789739  0  2.032101  0
O  O54  1  0.36269928  0.35673873  0.17093483  1  0  -0.922021  0  1.784564  0  0  -0.867318  0  1.97015  0  0  -0.887999  0  1.937015  0  0  -0.653063  -0.852355  0  1.99367  0
O  O55  1  0.63730049  0.64325293  0.82906588  1  0  -0.921975  0  1.784565  0  0  -0.867236  0  1.97025  0  0  -0.887936  0  1.937131  0  0  -0.653011  -0.852272  0  1.993766  0
