# generated using pymatgen
data_ZnH18C26(NO3)2
_symmetry_space_group_name_H-M   'P 1'
_cell_length_a   9.81924771
_cell_length_b   11.19960202
_cell_length_c   28.09862650
_cell_angle_alpha   90.14553492
_cell_angle_beta   101.79932641
_cell_angle_gamma   94.76742545
_symmetry_Int_Tables_number   1
_chemical_formula_structural   ZnH18C26(NO3)2
_chemical_formula_sum   'Zn2 H36 C52 N4 O12'
_cell_volume   3013.68999304
_cell_formula_units_Z   2
loop_
 _symmetry_equiv_pos_site_id
 _symmetry_equiv_pos_as_xyz
  1  'x, y, z'
loop_
 _atom_site_type_symbol
 _atom_site_label
 _atom_site_symmetry_multiplicity
 _atom_site_fract_x
 _atom_site_fract_y
 _atom_site_fract_z
 _atom_site_occupancy
 _atom_site_pbe_bader_charge
 _atom_site_pbe_bader_spin_density
 _atom_site_pbe_cm5_charge
 _atom_site_pbe_ddec_charge
 _atom_site_pbe_ddec_spin_density
 _atom_site_pbe_ddec_sum_bond_order
 _atom_site_pbe_magmom
Zn  Zn0  1  0.64098567  0.48555946  0.51122980  1  1.291248  0  0.661886  0.838488  0  2.447288  0
Zn  Zn1  1  0.36010282  0.51519471  0.48755031  1  1.281487  0  0.663403  0.839837  0  2.457347  0
H  H2  1  0.70219078  0.89861810  0.50611249  1  0.095119  0  0.106746  0.124748  0  0.986153  0
H  H3  1  0.72747111  0.76004124  0.13572481  1  0.115748  0  0.116223  0.123867  0  0.976534  0
H  H4  1  0.62596189  0.35540187  0.35468283  1  0.07818  0  0.105138  0.107807  0  0.987416  0
H  H5  1  0.36031146  0.64426132  0.63744217  1  0.083452  0  0.10489  0.108174  0  0.991891  0
H  H6  1  0.61919894  0.35516899  0.26509195  1  0.071497  0  0.109554  0.120061  0  0.979135  0
H  H7  1  0.35238937  0.65787790  0.72571744  1  0.07464  0  0.109388  0.119182  0  0.979626  0
H  H8  1  0.26775762  0.27426124  0.10814954  1  0.100619  0  0.115158  0.122088  0  0.97979  0
H  H9  1  0.66966691  0.77746696  0.88719131  1  0.116291  0  0.115198  0.122613  0  0.979312  0
H  H10  1  0.25734039  0.26947193  0.01940802  1  0.057242  0  0.106729  0.105368  0  1.007235  0
H  H11  1  0.68108637  0.78138791  0.97598920  1  0.065903  0  0.106243  0.106402  0  1.004642  0
H  H12  1  0.27123263  0.25660316  0.95116153  1  0.051808  0  0.106739  0.107079  0  1.004404  0
H  H13  1  0.29589099  0.10231751  0.47979840  1  0.075958  0  0.107258  0.124472  0  0.98469  0
H  H14  1  0.71546199  0.76581377  0.04693931  1  0.064366  0  0.106368  0.105279  0  1.006139  0
H  H15  1  0.38094726  0.89526299  0.48207266  1  0.104141  0  0.105926  0.103918  0  0.996585  0
H  H16  1  0.61658732  0.10655470  0.49601219  1  0.099093  0  0.107212  0.104044  0  0.988498  0
H  H17  1  0.66897193  0.14215608  0.59184249  1  0.007219  0  0.079937  0.105644  0  1.017472  0
H  H18  1  0.66712062  0.06914069  0.64787873  1  -0.004004  0  0.083258  0.108297  0  1.004388  0
H  H19  1  0.52809573  0.03673916  0.59704250  1  0.04666  0  0.081996  0.110297  0  1.015957  0
H  H20  1  0.45277789  0.17514263  0.65553094  1  0.021864  0  0.086804  0.075523  0  0.972618  0
H  H21  1  0.45974270  0.24836035  0.60048234  1  0.006373  0  0.084655  0.077336  0  0.994022  0
H  H22  1  0.69746154  0.34547577  0.63753631  1  0.06517  0  0.090868  0.099458  0  1.004039  0
H  H23  1  0.69075753  0.27106324  0.69277325  1  0.000377  0  0.09  0.086471  0  0.982559  0
H  H24  1  0.87723297  0.56883789  0.46825785  1  0.158302  0  0.14193  0.112543  0  0.955483  0
H  H25  1  0.19805833  0.87357163  0.35445990  1  0.03015  0  0.08558  0.113396  0  0.998782  0
H  H26  1  0.06040029  0.77020978  0.36441843  1  -0.00176  0  0.082304  0.105996  0  1.010704  0
H  H27  1  0.22158562  0.78788698  0.40797081  1  -0.020601  0  0.078807  0.1027  0  1.032231  0
H  H28  1  0.18169497  0.68124587  0.30405663  1  0.022386  0  0.086081  0.07437  0  0.976245  0
H  H29  1  0.20923008  0.59830625  0.35803237  1  0.053594  0  0.085267  0.080166  0  0.998488  0
H  H30  1  0.43997574  0.72013759  0.38650987  1  0.046381  0  0.09268  0.096611  0  0.998771  0
H  H31  1  0.41556291  0.79187895  0.32986386  1  0.011642  0  0.09231  0.088629  0  0.975622  0
H  H32  1  0.12348250  0.43342729  0.53012507  1  0.14463  0  0.142326  0.109988  0  0.953459  0
H  H33  1  0.89934283  0.40396323  0.54965482  1  0.41895  0  0.32616  0.294308  0  0.895011  0
H  H34  1  0.10336820  0.59955537  0.44905778  1  0.444623  0  0.322426  0.290618  0  0.90819  0
H  H35  1  0.59483063  0.35347015  0.75186656  1  0.078838  0  0.106038  0.11578  0  0.990774  0
H  H36  1  0.40994464  0.67932905  0.25355569  1  0.089479  0  0.108101  0.119961  0  0.984957  0
H  H37  1  0.26973816  0.25620950  0.86303925  1  0.102379  0  0.116433  0.123343  0  0.976909  0
C  C38  1  0.43348756  0.26954403  0.49136132  1  1.566184  0  0.206961  0.631177  0  4.190495  0
C  C39  1  0.41396959  0.42859117  0.12147136  1  -0.011252  0  -0.011107  -0.070088  0  4.001793  0
C  C40  1  0.48603080  0.49451514  0.64552742  1  0.01943  0  -0.013263  -0.080005  0  3.905914  0
C  C41  1  0.51593168  0.51409540  0.35358836  1  -0.050075  0  -0.012938  -0.079022  0  3.928163  0
C  C42  1  0.40276814  0.42548633  0.01968309  1  0.005283  0  0.00507  0.043154  0  3.972896  0
C  C43  1  0.55641394  0.61333449  0.97688288  1  -0.040949  0  0.004242  0.040045  0  3.975955  0
C  C44  1  0.56662923  0.61082843  0.02956513  1  0.01126  0  0.004885  0.043205  0  3.973135  0
C  C45  1  0.40118876  0.42293062  0.96749330  1  -0.01065  0  0.004654  0.04071  0  3.975366  0
C  C46  1  0.48771975  0.51808294  0.04965854  1  0.019169  0  0.003075  -0.003677  0  3.916207  0
C  C47  1  0.47673279  0.51766583  0.94721458  1  0.053906  0  0.003502  -0.001856  0  3.914444  0
C  C48  1  0.32456909  0.33971909  0.04153372  1  -0.012746  0  -0.083988  -0.126667  0  3.9772  0
C  C49  1  0.56371556  0.73205614  0.50062282  1  1.540691  0  0.205426  0.630031  0  4.191576  0
C  C50  1  0.62277639  0.70600342  0.95436349  1  -0.01259  0  -0.082399  -0.124593  0  3.975698  0
C  C51  1  0.32937715  0.34127416  0.09154978  1  -0.030052  0  -0.06869  -0.06885  0  3.977759  0
C  C52  1  0.61689604  0.70517416  0.90426590  1  -0.055185  0  -0.069103  -0.07135  0  3.977362  0
C  C53  1  0.49042256  0.49663779  0.59238141  1  1.556546  0  0.218656  0.605456  0  4.160084  0
C  C54  1  0.51550395  0.50525311  0.40679237  1  1.578954  0  0.215993  0.602134  0  4.174333  0
C  C55  1  0.32815201  0.33046085  0.93651098  1  -0.061303  0  -0.082235  -0.125686  0  3.975871  0
C  C56  1  0.65205309  0.69588974  0.06125415  1  -0.065199  0  -0.082825  -0.125907  0  3.975129  0
C  C57  1  0.40509033  0.13789355  0.48591143  1  -0.114133  0  -0.089068  -0.224563  0  3.873716  0
C  C58  1  0.59272987  0.86348758  0.49853894  1  -0.041115  0  -0.090726  -0.227977  0  3.880601  0
C  C59  1  0.50952628  0.06497567  0.48984732  1  0.034804  0  -0.072523  -0.028282  0  4.027265  0
C  C60  1  0.47279400  0.51656186  0.89600159  1  -0.041727  0  0.003597  0.037822  0  3.99976  0
C  C61  1  0.48817037  0.93665959  0.48897227  1  -0.099865  0  -0.07379  -0.031551  0  4.024328  0
C  C62  1  0.07491073  0.49285027  0.50174614  1  0.674622  0  0.121107  0.17067  0  3.873639  0
C  C63  1  0.92633135  0.51003613  0.49676557  1  0.719093  0  0.119883  0.168392  0  3.871076  0
C  C64  1  0.39439785  0.41642540  0.81327246  1  1.366763  0  0.23976  0.431704  0  4.105697  0
C  C65  1  0.59129416  0.60685773  0.18486134  1  1.352953  0  0.241021  0.437503  0  4.104286  0
C  C66  1  0.54461962  0.61046286  0.82233931  1  1.342589  0  0.240435  0.431946  0  4.103539  0
C  C67  1  0.41738635  0.42714645  0.17435350  1  1.305979  0  0.239764  0.436235  0  4.10812  0
C  C68  1  0.40697124  0.58868997  0.71203055  1  -0.006966  0  -0.088095  -0.158549  0  3.997177  0
C  C69  1  0.57445785  0.42534891  0.28230968  1  0.029243  0  -0.08936  -0.160387  0  3.999879  0
C  C70  1  0.41243187  0.58123259  0.66301552  1  -0.012592  0  -0.085311  -0.084261  0  4.00139  0
C  C71  1  0.49428856  0.51770784  0.10103126  1  -0.050237  0  0.003377  0.035622  0  4.003175  0
C  C72  1  0.57730063  0.42544440  0.33199844  1  0.014354  0  -0.085311  -0.085325  0  4.005438  0
C  C73  1  0.55374934  0.41063192  0.67753713  1  0.007838  0  0.00552  0.129283  0  3.916985  0
C  C74  1  0.45459405  0.60766466  0.32578948  1  0.039334  0  0.003606  0.122917  0  3.923895  0
C  C75  1  0.54520103  0.41819848  0.72653735  1  -0.034095  0  -0.086154  -0.21288  0  3.945026  0
C  C76  1  0.45462891  0.60722103  0.27597334  1  -0.029764  0  -0.08557  -0.211453  0  3.942017  0
C  C77  1  0.47405022  0.50624877  0.74359226  1  0.281726  0  0.085266  0.196038  0  4.033803  0
C  C78  1  0.51204387  0.51667482  0.25459712  1  0.249954  0  0.086352  0.200023  0  4.039891  0
C  C79  1  0.62671427  0.31005806  0.66075119  1  -0.011116  0  -0.163072  -0.204305  0  3.961375  0
C  C80  1  0.52484827  0.21011812  0.63251494  1  0.022083  0  -0.164487  -0.084164  0  3.951781  0
C  C81  1  0.60122596  0.10876406  0.61648781  1  -0.065678  0  -0.248189  -0.354894  0  3.986879  0
C  C82  1  0.39762242  0.42097758  0.86615540  1  -0.037112  0  -0.011581  -0.073669  0  4.002018  0
C  C83  1  0.39159111  0.70747048  0.34774109  1  -0.010548  0  -0.160796  -0.195965  0  3.951104  0
C  C84  1  0.23249863  0.68628889  0.34286300  1  -0.007566  0  -0.166209  -0.087468  0  3.954636  0
C  C85  1  0.17452906  0.78456300  0.36882127  1  -0.030859  0  -0.246756  -0.358255  0  3.989137  0
C  C86  1  0.58132641  0.60629198  0.13157465  1  -0.011697  0  -0.010807  -0.069356  0  3.996546  0
C  C87  1  0.32646602  0.32905839  0.88669192  1  0.035024  0  -0.067491  -0.06595  0  3.972671  0
C  C88  1  0.65998633  0.69362879  0.11144542  1  0.017425  0  -0.06768  -0.067919  0  3.971302  0
C  C89  1  0.54428228  0.61088992  0.87502113  1  -0.00983  0  -0.01127  -0.069905  0  3.998108  0
N  N90  1  0.47056157  0.51140792  0.79469121  1  -1.178494  0  -0.227912  -0.202701  0  3.559841  0
N  N91  1  0.50675075  0.51720249  0.20288409  1  -1.19328  0  -0.230452  -0.222316  0  3.587631  0
N  N92  1  0.15227133  0.54396621  0.47492647  1  -1.173121  0  -0.423593  -0.359191  0  3.223233  0
N  N93  1  0.84941022  0.45881296  0.52372922  1  -1.159557  0  -0.42314  -0.36066  0  3.22241  0
O  O94  1  0.56115148  0.31189840  0.49993616  1  -1.166718  0  -0.3253  -0.56322  0  2.325825  0
O  O95  1  0.66849227  0.68081785  0.21244486  1  -1.102466  0  -0.283968  -0.442243  0  2.061713  0
O  O96  1  0.34657286  0.35234484  0.19298232  1  -1.090649  0  -0.282934  -0.440912  0  2.065589  0
O  O97  1  0.60688838  0.69067414  0.80326393  1  -1.100408  0  -0.283051  -0.442049  0  2.067606  0
O  O98  1  0.43576727  0.69048420  0.49183426  1  -1.174954  0  -0.32592  -0.566007  0  2.333294  0
O  O99  1  0.32778600  0.33078099  0.48758616  1  -1.150378  0  -0.328738  -0.561486  0  2.26549  0
O  O100  1  0.66900433  0.67016984  0.51119054  1  -1.161389  0  -0.325918  -0.5555  0  2.265185  0
O  O101  1  0.60735044  0.48444538  0.58070871  1  -1.165716  0  -0.314475  -0.542353  0  2.316165  0
O  O102  1  0.39716464  0.50666741  0.41865046  1  -1.160683  0  -0.310054  -0.538927  0  2.331824  0
O  O103  1  0.37682450  0.51322174  0.56280794  1  -1.169034  0  -0.320899  -0.570237  0  2.317882  0
O  O104  1  0.63178914  0.49541031  0.43574423  1  -1.17424  0  -0.319868  -0.564583  0  2.303334  0
O  O105  1  0.32988043  0.33461948  0.78646006  1  -1.108666  0  -0.283156  -0.441764  0  2.068201  0
