# generated using pymatgen
data_Zn4H4C24S4N2Cl2O17
_symmetry_space_group_name_H-M   'P 1'
_cell_length_a   19.63712053
_cell_length_b   19.69710758
_cell_length_c   33.28522754
_cell_angle_alpha   79.17965584
_cell_angle_beta   79.35583245
_cell_angle_gamma   64.04917485
_symmetry_Int_Tables_number   1
_chemical_formula_structural   Zn4H4C24S4N2Cl2O17
_chemical_formula_sum   'Zn16 H16 C96 S16 N8 Cl8 O68'
_cell_volume   11293.65605014
_cell_formula_units_Z   4
loop_
 _symmetry_equiv_pos_site_id
 _symmetry_equiv_pos_as_xyz
  1  'x, y, z'
loop_
 _atom_site_type_symbol
 _atom_site_label
 _atom_site_symmetry_multiplicity
 _atom_site_fract_x
 _atom_site_fract_y
 _atom_site_fract_z
 _atom_site_occupancy
 _atom_site_pbe_bader_charge
 _atom_site_pbe_bader_spin_density
 _atom_site_pbe_cm5_charge
 _atom_site_pbe_ddec_charge
 _atom_site_pbe_ddec_spin_density
 _atom_site_pbe_ddec_sum_bond_order
 _atom_site_pbe_magmom
Zn  Zn0  1  0.05819967  0.40010023  0.47808885  1  1.318144  0  0.673666  0.971807  0  2.336784  0
Zn  Zn1  1  0.98368158  0.48351346  0.56002593  1  1.322123  0  0.675224  0.966144  0  2.381549  0
Zn  Zn2  1  0.05943287  0.56074060  0.48192745  1  1.325006  0  0.679777  0.97666  0  2.351621  0
Zn  Zn3  1  0.89956990  0.55399939  0.48005797  1  1.323149  0  0.680168  0.977212  0  2.350783  0
Zn  Zn4  1  0.69399109  0.35106728  0.27003641  1  1.318228  0  0.674064  0.970587  0  2.344141  0
Zn  Zn5  1  0.68998502  0.18924280  0.26742279  1  1.315325  0  0.673164  0.964296  0  2.36405  0
Zn  Zn6  1  0.76780166  0.26792890  0.18960029  1  1.322265  0  0.680078  0.978074  0  2.344148  0
Zn  Zn7  1  0.84680770  0.19285051  0.27304072  1  1.322108  0  0.679499  0.97101  0  2.362644  0
Zn  Zn8  1  0.26640601  0.76832924  0.68943647  1  1.311714  0  0.673264  0.961672  0  2.367981  0
Zn  Zn9  1  0.34923419  0.69507451  0.77159824  1  1.31684  0  0.67507  0.967849  0  2.370862  0
Zn  Zn10  1  0.19285595  0.84923855  0.77091251  1  1.32482  0  0.679214  0.976256  0  2.346247  0
Zn  Zn11  1  0.19333920  0.68640299  0.76768893  1  1.325456  0  0.68047  0.977538  0  2.347799  0
Zn  Zn12  1  0.56198189  0.05899547  0.98241680  1  1.315234  0  0.673987  0.966055  0  2.358245  0
Zn  Zn13  1  0.39966553  0.05590106  0.97908238  1  1.318759  0  0.67337  0.962227  0  2.360058  0
Zn  Zn14  1  0.55735802  0.90243331  0.97777219  1  1.321547  0  0.679556  0.975177  0  2.352279  0
Zn  Zn15  1  0.48052156  0.98382400  0.06027631  1  1.327512  0  0.679341  0.973139  0  2.350663  0
H  H16  1  0.74852021  0.45246528  0.35017620  1  0.168557  0  0.130127  0.150174  0  0.961761  0
H  H17  1  0.00168368  0.29694013  0.39980664  1  0.13762  0  0.129568  0.148991  0  0.963109  0
H  H18  1  0.20126173  0.70059194  0.59858269  1  0.117655  0  0.129167  0.148813  0  0.963783  0
H  H19  1  0.04952140  0.54979617  0.65090666  1  0.141394  0  0.130101  0.149619  0  0.963732  0
H  H20  1  0.46408232  0.24023788  0.34046755  1  0.124906  0  0.123072  0.148862  0  0.967022  0
H  H21  1  0.47905886  0.70334505  0.60089578  1  0.14662  0  0.123306  0.148973  0  0.96627  0
H  H22  1  0.20288949  0.98013973  0.60067660  1  0.1254  0  0.122649  0.147978  0  0.968703  0
H  H23  1  0.94725385  0.96964060  0.34970672  1  0.142109  0  0.125391  0.152012  0  0.963127  0
H  H24  1  0.65140300  0.15119195  0.04921682  1  0.173877  0  0.129705  0.149499  0  0.963355  0
H  H25  1  0.59906570  0.09826319  0.20070544  1  0.124525  0  0.129842  0.149184  0  0.96444  0
H  H26  1  0.54986819  0.77215744  0.14807671  1  0.150813  0  0.125051  0.152336  0  0.963337  0
H  H27  1  0.15985291  0.14073452  0.04082691  1  0.141244  0  0.122131  0.147301  0  0.968613  0
H  H28  1  0.29673230  0.00178553  0.89982434  1  0.134569  0  0.129274  0.151898  0  0.959884  0
H  H29  1  0.45168782  0.74959515  0.85047298  1  0.109328  0  0.130328  0.150382  0  0.963168  0
H  H30  1  0.30081208  0.27975210  0.90182299  1  0.1429  0  0.123261  0.148783  0  0.966152  0
H  H31  1  0.79098504  0.00866826  0.90921311  1  0.156271  0  0.122622  0.147725  0  0.967671  0
C  C32  1  0.06283105  0.31687120  0.56162332  1  1.577559  0  0.215543  0.623622  0  4.207487  0
C  C33  1  0.06923940  0.56907784  0.56875061  1  1.601282  0  0.233526  0.608581  0  4.174583  0
C  C34  1  0.18451986  0.43936871  0.43780950  1  1.578323  0  0.215819  0.622226  0  4.210044  0
C  C35  1  0.93619023  0.68270297  0.43920833  1  1.572639  0  0.216928  0.621888  0  4.203566  0
C  C36  1  0.93164465  0.42867455  0.43192533  1  1.605745  0  0.235139  0.613424  0  4.167767  0
C  C37  1  0.81632004  0.56038686  0.56286189  1  1.585374  0  0.215691  0.621151  0  4.212857  0
C  C38  1  0.56673156  0.31131718  0.31117148  1  1.570763  0  0.219752  0.614078  0  4.212982  0
C  C39  1  0.68002491  0.18150451  0.18137611  1  1.60014  0  0.233717  0.6108  0  4.171009  0
C  C40  1  0.68944497  0.43519868  0.18719636  1  1.571475  0  0.215954  0.622357  0  4.207605  0
C  C41  1  0.93340116  0.18830295  0.19031803  1  1.584672  0  0.217227  0.623914  0  4.203059  0
C  C42  1  0.81720726  0.31938482  0.31944295  1  1.624264  0  0.233263  0.609552  0  4.171615  0
C  C43  1  0.81093857  0.06424062  0.31198448  1  1.56725  0  0.218917  0.60949  0  4.217175  0
C  C44  1  0.43308869  0.69039246  0.68803518  1  1.559555  0  0.218338  0.611382  0  4.213686  0
C  C45  1  0.31932613  0.81962663  0.81843173  1  1.616435  0  0.234619  0.61204  0  4.16945  0
C  C46  1  0.18757925  0.93435780  0.68762764  1  1.562132  0  0.219777  0.612425  0  4.215564  0
C  C47  1  0.06760127  0.80853985  0.81075640  1  1.571171  0  0.216723  0.621993  0  4.205965  0
C  C48  1  0.18328311  0.67968102  0.68070489  1  1.606858  0  0.234096  0.611528  0  4.170315  0
C  C49  1  0.31478275  0.56510502  0.81213641  1  1.599845  0  0.216916  0.623024  0  4.21109  0
C  C50  1  0.43832983  0.18288506  0.93849260  1  1.576306  0  0.219254  0.613323  0  4.214118  0
C  C51  1  0.43021476  0.93290811  0.93068290  1  1.614342  0  0.234192  0.610123  0  4.17087  0
C  C52  1  0.68656127  0.93911437  0.93841046  1  1.561187  0  0.218837  0.610966  0  4.21438  0
C  C53  1  0.56002080  0.81789051  0.06100235  1  1.560289  0  0.220612  0.612702  0  4.209826  0
C  C54  1  0.56836053  0.07007422  0.06852545  1  1.602724  0  0.234792  0.612695  0  4.169331  0
C  C55  1  0.31336594  0.06205650  0.06148644  1  1.579721  0  0.219079  0.610941  0  4.214214  0
C  C56  1  0.90226680  0.40281039  0.40186271  1  0.028696  0  0.00538  -0.050269  0  3.912846  0
C  C57  1  0.84890706  0.34758569  0.34716711  1  -0.023427  0  0.005463  -0.046952  0  3.910802  0
C  C58  1  0.83131602  0.44604385  0.38703606  1  0.202433  0  0.095033  0.072626  0  3.907895  0
C  C59  1  0.92061109  0.30507944  0.36125036  1  0.240782  0  0.094433  0.069509  0  3.909927  0
C  C60  1  0.80439188  0.41881893  0.36075913  1  0.055738  0  -0.059936  -0.123389  0  3.908012  0
C  C61  1  0.94651723  0.33129871  0.38853008  1  0.04768  0  -0.060197  -0.121805  0  3.909701  0
C  C62  1  0.09730219  0.59996803  0.59694276  1  0.02327  0  0.005908  -0.046589  0  3.912217  0
C  C63  1  0.15131381  0.65263367  0.65255428  1  0.087589  0  0.004822  -0.049451  0  3.912963  0
C  C64  1  0.13953203  0.64339707  0.58290105  1  0.193385  0  0.094268  0.07029  0  3.912795  0
C  C65  1  0.10760067  0.61065154  0.66659267  1  0.168035  0  0.095475  0.072512  0  3.909244  0
C  C66  1  0.16720676  0.66824736  0.60997371  1  0.081321  0  -0.061031  -0.123911  0  3.911044  0
C  C67  1  0.08210330  0.58362316  0.63951427  1  0.050259  0  -0.06034  -0.122533  0  3.905258  0
C  C68  1  0.30575718  0.45481309  0.40067376  1  0.161468  0  0.010692  0.099993  0  4.092236  0
C  C69  1  0.44718816  0.29679889  0.34861157  1  0.05319  0  -0.08589  -0.128007  0  3.954473  0
C  C70  1  0.25955598  0.41562417  0.41337039  1  -0.106887  0  -0.029592  -0.187613  0  3.94535  0
C  C71  1  0.49216120  0.33667998  0.33629872  1  -0.152628  0  -0.024107  -0.121729  0  3.979041  0
C  C72  1  0.37922232  0.33961006  0.37230878  1  -0.161251  0  -0.019689  0.004405  0  4.074878  0
C  C73  1  0.37411051  0.41125295  0.37729802  1  -0.142236  0  -0.027203  -0.083795  0  4.085747  0
C  C74  1  0.72533337  0.57605245  0.63086893  1  0.127485  0  0.010103  0.101565  0  4.091049  0
C  C75  1  0.52365141  0.67464542  0.62112088  1  -0.029881  0  -0.085453  -0.128412  0  3.955936  0
C  C76  1  0.74221644  0.58533781  0.58819306  1  -0.110178  0  -0.029559  -0.190342  0  3.949402  0
C  C77  1  0.50821729  0.66504725  0.66357547  1  -0.121372  0  -0.023633  -0.119399  0  3.979863  0
C  C78  1  0.60299004  0.64261555  0.60905243  1  -0.185216  0  -0.018967  0.002345  0  4.076499  0
C  C79  1  0.64583441  0.60902377  0.64275926  1  -0.10614  0  -0.027862  -0.083443  0  4.08878  0
C  C80  1  0.07602564  0.22603414  0.62973637  1  0.147324  0  0.010702  0.10305  0  4.089693  0
C  C81  1  0.17346259  0.02471737  0.62067697  1  0.058009  0  -0.086692  -0.130754  0  3.960358  0
C  C82  1  0.08606670  0.24283069  0.58704069  1  -0.117297  0  -0.030939  -0.191154  0  3.950025  0
C  C83  1  0.16267279  0.00946231  0.66311182  1  -0.158186  0  -0.022195  -0.117859  0  3.978029  0
C  C84  1  0.14141394  0.10383785  0.60835236  1  -0.173047  0  -0.019511  0.004507  0  4.076694  0
C  C85  1  0.10743507  0.14668352  0.64186988  1  -0.121635  0  -0.027406  -0.085554  0  4.089547  0
C  C86  1  0.84200487  0.79903619  0.39692543  1  0.164336  0  0.010696  0.09913  0  4.095688  0
C  C87  1  0.90320039  0.94881136  0.35371709  1  0.01259  0  -0.083232  -0.125014  0  3.94425  0
C  C88  1  0.91008385  0.75732363  0.41438154  1  -0.148611  0  -0.029713  -0.188787  0  3.944322  0
C  C89  1  0.83500461  0.98951113  0.33690536  1  -0.170758  0  -0.023184  -0.118091  0  3.975039  0
C  C90  1  0.90577159  0.87938651  0.37591303  1  -0.10907  0  -0.018578  0.003333  0  4.070367  0
C  C91  1  0.83951614  0.86883677  0.37514369  1  -0.150843  0  -0.027584  -0.083494  0  4.088021  0
C  C92  1  0.65394761  0.15135459  0.15178959  1  0.119236  0  0.005341  -0.050341  0  3.910583  0
C  C93  1  0.59858895  0.09602018  0.09813441  1  0.015271  0  0.004954  -0.050398  0  3.912472  0
C  C94  1  0.66885069  0.16468570  0.10887651  1  0.162117  0  0.094701  0.073045  0  3.908058  0
C  C95  1  0.58536992  0.08102265  0.14105697  1  0.192568  0  0.093907  0.070701  0  3.910308  0
C  C96  1  0.64080315  0.13884596  0.08246962  1  0.040217  0  -0.060233  -0.12278  0  3.907702  0
C  C97  1  0.61119734  0.10906511  0.16745439  1  0.024452  0  -0.059829  -0.12146  0  3.908078  0
C  C98  1  0.67233950  0.52596650  0.11894141  1  0.191341  0  0.011666  0.101851  0  4.09148  0
C  C99  1  0.57705721  0.72749786  0.12802464  1  0.10567  0  -0.083479  -0.125717  0  3.946636  0
C  C100  1  0.66450609  0.50924061  0.16172733  1  -0.101164  0  -0.031018  -0.190246  0  3.946148  0
C  C101  1  0.58520953  0.74273742  0.08549561  1  -0.223642  0  -0.022419  -0.12059  0  3.974681  0
C  C102  1  0.60858774  0.64834139  0.14032444  1  -0.218661  0  -0.018891  0.005499  0  4.073646  0
C  C103  1  0.64025858  0.60536371  0.10677109  1  -0.178133  0  -0.026917  -0.086596  0  4.087707  0
C  C104  1  0.08097883  0.12506170  0.17906372  1  0.169795  0  0.01113  0.099938  0  4.092726  0
C  C105  1  0.16773395  0.12473516  0.07328121  1  0.061251  0  -0.085836  -0.128384  0  3.958271  0
C  C106  1  0.00854509  0.16283420  0.16598844  1  -0.115229  0  -0.029698  -0.18998  0  3.94306  0
C  C107  1  0.23910444  0.08677117  0.08687858  1  -0.245973  0  -0.023914  -0.120787  0  3.976753  0
C  C108  1  0.10977434  0.13843165  0.10685026  1  -0.198556  0  -0.019809  0.001251  0  4.07692  0
C  C109  1  0.13868759  0.11092310  0.14524308  1  -0.145022  0  -0.027033  -0.083305  0  4.086142  0
C  C110  1  0.34559372  0.84888868  0.84834085  1  0.079423  0  0.0051  -0.050005  0  3.913084  0
C  C111  1  0.40176731  0.90150853  0.90295155  1  0.062362  0  0.005006  -0.04867  0  3.914112  0
C  C112  1  0.30250559  0.91952880  0.86313121  1  0.163213  0  0.094787  0.071339  0  3.91323  0
C  C113  1  0.44403199  0.83002203  0.88900200  1  0.181514  0  0.095247  0.071635  0  3.910722  0
C  C114  1  0.33024531  0.94610475  0.88931610  1  0.074935  0  -0.060957  -0.126335  0  3.910418  0
C  C115  1  0.41741927  0.80454501  0.86170744  1  0.059979  0  -0.060312  -0.122443  0  3.907846  0
C  C116  1  0.40932288  0.44728164  0.85352629  1  0.140007  0  0.009883  0.100125  0  4.092919  0
C  C117  1  0.34559488  0.29964492  0.89752192  1  0.032758  0  -0.08492  -0.127836  0  3.95389  0
C  C118  1  0.34051733  0.49053803  0.83703250  1  -0.134852  0  -0.029709  -0.18971  0  3.946903  0
C  C119  1  0.41423153  0.25776916  0.91373525  1  -0.150487  0  -0.023149  -0.118897  0  3.978233  0
C  C120  1  0.34344620  0.36911514  0.87562563  1  -0.18709  0  -0.019538  0.001924  0  4.073507  0
C  C121  1  0.41084748  0.37807800  0.87565002  1  -0.106939  0  -0.027205  -0.082187  0  4.087541  0
C  C122  1  0.94594334  0.79418787  0.84824809  1  0.111708  0  0.011402  0.101098  0  4.092094  0
C  C123  1  0.80710259  0.95221001  0.90115334  1  -0.012857  0  -0.085666  -0.127493  0  3.954233  0
C  C124  1  0.99314572  0.83233854  0.83573891  1  -0.060133  0  -0.030051  -0.190337  0  3.945381  0
C  C125  1  0.76130314  0.91318791  0.91349423  1  -0.153131  0  -0.022996  -0.121143  0  3.977112  0
C  C126  1  0.87484230  0.90872250  0.87752474  1  -0.109843  0  -0.019203  0.002083  0  4.074968  0
C  C127  1  0.87854221  0.83774833  0.87226770  1  -0.147308  0  -0.027303  -0.084778  0  4.085577  0
S  S128  1  0.30012197  0.32587065  0.39678930  1  0.281304  0  0.088653  0.139683  0  2.736658  0
S  S129  1  0.45264604  0.42596144  0.35325101  1  0.287298  0  0.093416  0.148032  0  2.761737  0
S  S130  1  0.66086653  0.63414612  0.56289468  1  0.295792  0  0.098247  0.154644  0  2.734317  0
S  S131  1  0.58923232  0.61729011  0.68913792  1  0.300863  0  0.092602  0.146973  0  2.767151  0
S  S132  1  0.13362449  0.16150042  0.56204809  1  0.286604  0  0.089726  0.141739  0  2.737451  0
S  S133  1  0.11403003  0.09027637  0.68836606  1  0.30668  0  0.099659  0.157457  0  2.759406  0
S  S134  1  0.97047296  0.80370089  0.40399144  1  0.303089  0  0.097613  0.153714  0  2.729841  0
S  S135  1  0.77382156  0.94413153  0.34769221  1  0.288199  0  0.088506  0.140813  0  2.762678  0
S  S136  1  0.61776801  0.59072743  0.18669291  1  0.289076  0  0.089047  0.140744  0  2.734577  0
S  S137  1  0.63090871  0.66174902  0.06018203  1  0.307808  0  0.099761  0.158809  0  2.756041  0
S  S138  1  0.01156344  0.18076069  0.11252963  1  0.320013  0  0.096293  0.152846  0  2.732782  0
S  S139  1  0.23658836  0.06765742  0.14024435  1  0.362664  0  0.097037  0.153928  0  2.757245  0
S  S140  1  0.27823009  0.44631505  0.84867083  1  0.302475  0  0.099049  0.155295  0  2.733175  0
S  S141  1  0.47646667  0.30194821  0.90265919  1  0.293408  0  0.091201  0.145109  0  2.765646  0
S  S142  1  0.95480865  0.92111226  0.85336925  1  0.287969  0  0.095391  0.151516  0  2.733393  0
S  S143  1  0.79965253  0.82394386  0.89654185  1  0.285514  0  0.099017  0.157221  0  2.757503  0
N  N144  1  0.78152810  0.52422629  0.39728408  1  0.42184  0  0.060224  0.518476  0  4.243274  0
N  N145  1  0.97434160  0.23086788  0.34702481  1  0.438105  0  0.060925  0.519816  0  4.244739  0
N  N146  1  0.15520613  0.66773832  0.53855603  1  0.421075  0  0.061333  0.520608  0  4.243431  0
N  N147  1  0.08353140  0.59458985  0.71092873  1  0.425837  0  0.060694  0.518438  0  4.243892  0
N  N148  1  0.71714552  0.20501435  0.08889333  1  0.44524  0  0.060817  0.518741  0  4.243877  0
N  N149  1  0.54523870  0.03261507  0.16107084  1  0.443121  0  0.061522  0.519694  0  4.245817  0
N  N150  1  0.22402926  0.96939142  0.85289506  1  0.432773  0  0.060107  0.517769  0  4.24718  0
N  N151  1  0.51838254  0.77613711  0.90337885  1  0.445825  0  0.059801  0.515952  0  4.249947  0
Cl  Cl152  1  0.28674902  0.54315469  0.41122266  1  -0.145913  0  0.019764  -0.012746  0  1.508784  0
Cl  Cl153  1  0.78905012  0.53161033  0.66614534  1  -0.155817  0  0.011069  -0.025231  0  1.496458  0
Cl  Cl154  1  0.03160678  0.28963038  0.66479507  1  -0.163876  0  0.012807  -0.023295  0  1.497444  0
Cl  Cl155  1  0.76895745  0.77289191  0.40013955  1  -0.144657  0  0.018141  -0.014297  0  1.517041  0
Cl  Cl156  1  0.71362479  0.46208186  0.08396945  1  -0.139893  0  0.018936  -0.013754  0  1.506406  0
Cl  Cl157  1  0.10148047  0.09794620  0.22869449  1  -0.149428  0  0.019012  -0.013284  0  1.515653  0
Cl  Cl158  1  0.48437803  0.47099320  0.84904393  1  -0.15237  0  0.011534  -0.024186  0  1.49462  0
Cl  Cl159  1  0.96343795  0.70665363  0.83712293  1  -0.134858  0  0.02022  -0.012366  0  1.515244  0
O  O160  1  0.00071783  0.49878116  0.49967990  1  -1.238642  0  -0.570713  -1.034018  0  2.520503  0
O  O161  1  0.07405235  0.31523405  0.52251180  1  -1.169948  0  -0.320975  -0.549408  0  2.320088  0
O  O162  1  0.02337343  0.53945422  0.58573086  1  -1.155778  0  -0.304116  -0.52697  0  2.324023  0
O  O163  1  0.15299860  0.50713800  0.44715830  1  -1.167281  0  -0.314276  -0.538645  0  2.375939  0
O  O164  1  0.03411134  0.37588041  0.58035697  1  -1.16678  0  -0.316632  -0.541489  0  2.375315  0
O  O165  1  0.15721631  0.38917575  0.44745690  1  -1.173974  0  -0.321702  -0.549329  0  2.322709  0
O  O166  1  0.09439373  0.57448458  0.53085366  1  -1.155528  0  -0.300465  -0.528345  0  2.360792  0
O  O167  1  0.00046201  0.65990377  0.45310815  1  -1.16365  0  -0.319094  -0.544017  0  2.328327  0
O  O168  1  0.88410044  0.48701593  0.44868978  1  -1.162189  0  -0.302919  -0.530846  0  2.363676  0
O  O169  1  0.89379839  0.64704208  0.44479409  1  -1.148344  0  -0.314135  -0.539441  0  2.371274  0
O  O170  1  0.00098868  0.38910125  0.43813401  1  -1.16452  0  -0.304476  -0.530419  0  2.31069  0
O  O171  1  0.87563556  0.52112969  0.58123252  1  -1.161757  0  -0.315518  -0.540867  0  2.3741  0
O  O172  1  0.81439958  0.58059212  0.52399948  1  -1.147854  0  -0.317207  -0.541291  0  2.328314  0
O  O173  1  0.74891626  0.25071076  0.25010365  1  -1.229298  0  -0.570016  -1.033305  0  2.519455  0
O  O174  1  0.59950745  0.35673015  0.30457503  1  -1.166758  0  -0.319626  -0.546995  0  2.331183  0
O  O175  1  0.66987453  0.15774437  0.21931133  1  -1.154974  0  -0.304866  -0.529672  0  2.317891  0
O  O176  1  0.72847056  0.37608026  0.16893531  1  -1.166704  0  -0.314258  -0.539725  0  2.372464  0
O  O177  1  0.59186197  0.24655593  0.29820996  1  -1.175505  0  -0.31673  -0.539191  0  2.315693  0
O  O178  1  0.66964410  0.43677302  0.22614843  1  -1.150333  0  -0.321753  -0.549579  0  2.324155  0
O  O179  1  0.70884673  0.22839413  0.16584030  1  -1.152308  0  -0.300144  -0.52804  0  2.364368  0
O  O180  1  0.87593245  0.21838374  0.16959213  1  -1.168277  0  -0.318548  -0.544444  0  2.326941  0
O  O181  1  0.85292102  0.24952193  0.31438624  1  -1.162634  0  -0.302012  -0.529232  0  2.364794  0
O  O182  1  0.93134181  0.17880949  0.22942858  1  -1.16626  0  -0.314284  -0.539818  0  2.375333  0
O  O183  1  0.75704433  0.36782638  0.30414485  1  -1.169359  0  -0.303666  -0.528872  0  2.313046  0
O  O184  1  0.74349415  0.09324427  0.30127410  1  -1.16646  0  -0.320747  -0.54837  0  2.334988  0
O  O185  1  0.85912489  0.09364321  0.30315611  1  -1.164376  0  -0.312353  -0.530908  0  2.317454  0
O  O186  1  0.25039612  0.75005976  0.74973398  1  -1.229783  0  -0.57066  -1.033799  0  2.522634  0
O  O187  1  0.37474890  0.72130100  0.66827897  1  -1.167855  0  -0.316422  -0.539098  0  2.310659  0
O  O188  1  0.36041009  0.75107735  0.81159502  1  -1.16976  0  -0.30417  -0.528681  0  2.321302  0
O  O189  1  0.16801593  0.93386447  0.72650409  1  -1.162062  0  -0.316227  -0.540767  0  2.336773  0
O  O190  1  0.43329889  0.67894908  0.72719605  1  -1.155351  0  -0.319137  -0.545005  0  2.341195  0
O  O191  1  0.22630231  0.87660468  0.66807527  1  -1.164536  0  -0.317392  -0.540384  0  2.312882  0
O  O192  1  0.25937428  0.86602137  0.80243278  1  -1.162639  0  -0.301601  -0.530371  0  2.362852  0
O  O193  1  0.09953379  0.85469350  0.80570333  1  -1.177562  0  -0.319399  -0.544538  0  2.332117  0
O  O194  1  0.17951828  0.65294031  0.71843187  1  -1.162917  0  -0.301269  -0.52876  0  2.360968  0
O  O195  1  0.09403420  0.74517174  0.79624923  1  -1.165074  0  -0.314084  -0.539494  0  2.373233  0
O  O196  1  0.21215202  0.72622148  0.66385387  1  -1.162724  0  -0.305681  -0.531375  0  2.319763  0
O  O197  1  0.36165897  0.59588725  0.80181134  1  -1.178454  0  -0.316294  -0.543195  0  2.373143  0
O  O198  1  0.24639512  0.59267667  0.80286064  1  -1.160942  0  -0.317938  -0.542389  0  2.328513  0
O  O199  1  0.49964767  0.00080498  0.99981236  1  -1.229671  0  -0.569976  -1.033306  0  2.520709  0
O  O200  1  0.50352403  0.15687334  0.95164013  1  -1.173892  0  -0.320502  -0.548685  0  2.338379  0
O  O201  1  0.38188032  0.99355611  0.94530589  1  -1.169537  0  -0.305276  -0.530974  0  2.319015  0
O  O202  1  0.65631859  0.89147962  0.94768151  1  -1.158567  0  -0.316543  -0.541089  0  2.336867  0
O  O203  1  0.39257359  0.15071762  0.94461841  1  -1.173738  0  -0.315793  -0.537877  0  2.311914  0
O  O204  1  0.65822159  0.00640246  0.94862801  1  -1.167301  0  -0.316628  -0.53942  0  2.309232  0
O  O205  1  0.49994956  0.89669849  0.93645730  1  -1.167896  0  -0.301463  -0.528808  0  2.363827  0
O  O206  1  0.57219281  0.81820310  0.02181033  1  -1.143323  0  -0.316847  -0.542647  0  2.338892  0
O  O207  1  0.52043647  0.04238996  0.08391418  1  -1.157424  0  -0.302306  -0.531238  0  2.36616  0
O  O208  1  0.52851243  0.87584213  0.08080533  1  -1.166904  0  -0.313398  -0.535042  0  2.316914  0
O  O209  1  0.59306403  0.07920254  0.03067696  1  -1.157333  0  -0.304734  -0.530154  0  2.317059  0
O  O210  1  0.31318835  0.08058432  0.02255448  1  -1.182939  0  -0.317111  -0.539815  0  2.310899  0
O  O211  1  0.37198186  0.02385361  0.08082939  1  -1.166342  0  -0.316892  -0.541715  0  2.337763  0
O  O212  1  0.80095992  0.57498914  0.37953910  1  -0.420496  0  -0.121585  -0.311199  0  1.878284  0
O  O213  1  0.72280593  0.53244672  0.42092492  1  -0.418056  0  -0.126844  -0.314907  0  1.848311  0
O  O214  1  0.00754204  0.23291227  0.31181901  1  -0.43053  0  -0.122255  -0.311893  0  1.879477  0
O  O215  1  0.98441180  0.17378101  0.37234800  1  -0.426191  0  -0.128026  -0.315913  0  1.847483  0
O  O216  1  0.10163160  0.72039223  0.52221051  1  -0.417985  0  -0.12385  -0.312171  0  1.864165  0
O  O217  1  0.22136182  0.63617715  0.52238774  1  -0.427974  0  -0.126013  -0.315809  0  1.856413  0
O  O218  1  0.03212038  0.64826456  0.72757076  1  -0.42215  0  -0.121662  -0.311154  0  1.878224  0
O  O219  1  0.11403279  0.52806691  0.72679603  1  -0.414487  0  -0.126261  -0.314288  0  1.848378  0
O  O220  1  0.78666307  0.16820507  0.08898813  1  -0.437891  0  -0.123743  -0.311965  0  1.862664  0
O  O221  1  0.68411292  0.27024942  0.07195208  1  -0.423925  0  -0.12445  -0.313591  0  1.8574  0
O  O222  1  0.58147740  0.96341714  0.16016779  1  -0.440804  0  -0.125312  -0.313055  0  1.862337  0
O  O223  1  0.48062621  0.06523918  0.17883792  1  -0.423236  0  -0.12554  -0.313668  0  1.848057  0
O  O224  1  0.17306694  0.95056788  0.87114965  1  -0.430631  0  -0.123695  -0.311346  0  1.863704  0
O  O225  1  0.21584722  0.02752468  0.82875722  1  -0.417355  0  -0.12535  -0.313154  0  1.848873  0
O  O226  1  0.51627864  0.74321584  0.93869733  1  -0.430361  0  -0.122248  -0.309458  0  1.86714  0
O  O227  1  0.57549470  0.76586603  0.87809713  1  -0.429465  0  -0.124053  -0.31087  0  1.848165  0
