# generated using pymatgen
data_AgH11C18S2(N3O)2
_symmetry_space_group_name_H-M   'P 1'
_cell_length_a   10.77000735
_cell_length_b   12.87367304
_cell_length_c   15.81290656
_cell_angle_alpha   89.99946703
_cell_angle_beta   90.00001105
_cell_angle_gamma   112.37697176
_symmetry_Int_Tables_number   1
_chemical_formula_structural   AgH11C18S2(N3O)2
_chemical_formula_sum   'Ag4 H44 C72 S8 N24 O8'
_cell_volume   2027.35882853
_cell_formula_units_Z   4
loop_
 _symmetry_equiv_pos_site_id
 _symmetry_equiv_pos_as_xyz
  1  'x, y, z'
loop_
 _atom_site_type_symbol
 _atom_site_label
 _atom_site_symmetry_multiplicity
 _atom_site_fract_x
 _atom_site_fract_y
 _atom_site_fract_z
 _atom_site_occupancy
 _atom_site_pbe_bader_charge
 _atom_site_pbe_bader_spin_density
 _atom_site_pbe_cm5_charge
 _atom_site_pbe_ddec_charge
 _atom_site_pbe_ddec_spin_density
 _atom_site_pbe_ddec_sum_bond_order
 _atom_site_pbe_magmom
Ag  Ag0  1  0.55826263  0.45808334  0.07557075  1  0.623138  0  0.444056  0.335259  0  1.95889  0
Ag  Ag1  1  0.94172866  0.54191673  0.57557025  1  0.623337  0  0.444069  0.335299  0  1.95895  0
Ag  Ag2  1  0.44172370  0.54191847  0.92442828  1  0.623563  0  0.444091  0.335322  0  1.959002  0
Ag  Ag3  1  0.05826756  0.45807832  0.42443068  1  0.623398  0  0.444097  0.335341  0  1.958896  0
H  H4  1  0.07588876  0.98316425  0.68382819  1  0.081321  0  0.117958  0.104776  0  0.967013  0
H  H5  1  0.42411022  0.01683740  0.18382006  1  0.081443  0  0.11791  0.104703  0  0.966958  0
H  H6  1  0.92410824  0.01683248  0.31617969  1  0.081632  0  0.117933  0.10473  0  0.967165  0
H  H7  1  0.57589511  0.98316940  0.81617075  1  0.081775  0  0.117945  0.104743  0  0.967025  0
H  H8  1  0.83761611  0.65237343  0.04016794  1  0.167744  0  0.1182  0.10321  0  1.059661  0
H  H9  1  0.66237950  0.34761784  0.54016508  1  0.167706  0  0.118215  0.103245  0  1.059713  0
H  H10  1  0.16237841  0.34763004  0.95983931  1  0.167909  0  0.11825  0.103192  0  1.059663  0
H  H11  1  0.33762259  0.65238392  0.45983585  1  0.168282  0  0.118212  0.103181  0  1.059725  0
H  H12  1  0.89991234  0.83036286  0.12068504  1  0.072902  0  0.098349  0.101166  0  1.0195  0
H  H13  1  0.60009353  0.16963657  0.62068162  1  0.072674  0  0.098365  0.101183  0  1.01946  0
H  H14  1  0.10007561  0.16963643  0.87931273  1  0.072976  0  0.098362  0.101193  0  1.019473  0
H  H15  1  0.39992595  0.83036262  0.37930982  1  0.072988  0  0.098337  0.101164  0  1.019426  0
H  H16  1  0.13704261  0.96495644  0.14001047  1  0.064786  0  0.094448  0.098575  0  1.01768  0
H  H17  1  0.36295461  0.03504748  0.64000873  1  0.064856  0  0.094423  0.098579  0  1.017561  0
H  H18  1  0.86295129  0.03504367  0.85997718  1  0.064632  0  0.094416  0.098627  0  1.01758  0
H  H19  1  0.63705598  0.96495258  0.35998903  1  0.065152  0  0.09445  0.098621  0  1.017656  0
H  H20  1  0.33238467  0.13192259  0.08797386  1  0.086387  0  0.088339  0.085344  0  1.066626  0
H  H21  1  0.16761834  0.86807781  0.58796959  1  0.086483  0  0.088354  0.085399  0  1.066549  0
H  H22  1  0.66761597  0.86806993  0.91201758  1  0.086382  0  0.088373  0.085493  0  1.066578  0
H  H23  1  0.83240841  0.13191295  0.41202690  1  0.086601  0  0.0883  0.085381  0  1.06658  0
H  H24  1  0.87022173  0.37629211  0.84101922  1  0.098497  0  0.118754  0.092975  0  0.979094  0
H  H25  1  0.62976989  0.62370443  0.34102038  1  0.098332  0  0.118784  0.092987  0  0.979111  0
H  H26  1  0.12977973  0.62371639  0.15898487  1  0.098724  0  0.118753  0.092924  0  0.979124  0
H  H27  1  0.37022410  0.37628979  0.65897676  1  0.098965  0  0.118767  0.09296  0  0.979143  0
H  H28  1  0.27019995  0.96042592  0.90629024  1  0.09187  0  0.114649  0.103311  0  0.981841  0
H  H29  1  0.22979845  0.03957026  0.40628254  1  0.091963  0  0.114646  0.103279  0  0.981883  0
H  H30  1  0.72981272  0.03957666  0.09371385  1  0.092105  0  0.114656  0.103242  0  0.981896  0
H  H31  1  0.77020411  0.96042646  0.59370890  1  0.091702  0  0.114631  0.10331  0  0.981836  0
H  H32  1  0.65873018  0.33928419  0.93023698  1  0.150453  0  0.122047  0.114136  0  1.010499  0
H  H33  1  0.84126541  0.66071284  0.43023535  1  0.15055  0  0.122075  0.114141  0  1.010414  0
H  H34  1  0.34127584  0.66073019  0.06976522  1  0.150304  0  0.122036  0.114143  0  1.010488  0
H  H35  1  0.15872964  0.33928979  0.56976368  1  0.150502  0  0.122058  0.114093  0  1.010501  0
H  H36  1  0.66158413  0.36537182  0.69498727  1  0.117943  0  0.122011  0.105024  0  0.993237  0
H  H37  1  0.83841412  0.63462917  0.19499090  1  0.117982  0  0.122005  0.105022  0  0.993289  0
H  H38  1  0.33839332  0.63462077  0.30501618  1  0.118069  0  0.122013  0.10511  0  0.993238  0
H  H39  1  0.16159639  0.36537678  0.80501572  1  0.118166  0  0.12198  0.105032  0  0.99322  0
H  H40  1  0.68795969  0.72103243  0.81643040  1  0.117253  0  0.121319  0.107607  0  0.991233  0
H  H41  1  0.81203092  0.27896191  0.31643102  1  0.117304  0  0.121354  0.107665  0  0.991069  0
H  H42  1  0.31203900  0.27896598  0.18357432  1  0.117283  0  0.121303  0.107627  0  0.991103  0
H  H43  1  0.18795054  0.72103739  0.68356991  1  0.117266  0  0.121332  0.107649  0  0.991137  0
H  H44  1  0.49769373  0.37410518  0.81243433  1  0.1825  0  0.121449  0.113677  0  1.026947  0
H  H45  1  0.00229872  0.62589226  0.31244051  1  0.18243  0  0.121429  0.113654  0  1.026928  0
H  H46  1  0.50228285  0.62590170  0.18756154  1  0.182838  0  0.121483  0.113711  0  1.026909  0
H  H47  1  0.99770292  0.37410446  0.68756674  1  0.182657  0  0.121457  0.113723  0  1.026865  0
C  C48  1  0.09135417  0.81273191  0.87474314  1  0.444201  0  0.125717  0.171442  0  4.062905  0
C  C49  1  0.40864487  0.18726973  0.37473814  1  0.443956  0  0.125796  0.171528  0  4.062853  0
C  C50  1  0.90864892  0.18727406  0.12526791  1  0.444187  0  0.125793  0.171354  0  4.062792  0
C  C51  1  0.59136039  0.81273287  0.62525646  1  0.444239  0  0.125702  0.171383  0  4.063033  0
C  C52  1  0.00559665  0.97043069  0.03739363  1  -0.075628  0  -0.01559  0.065492  0  4.013344  0
C  C53  1  0.49440881  0.02956700  0.53739258  1  -0.07578  0  -0.015646  0.065525  0  4.013468  0
C  C54  1  0.99439632  0.02956942  0.96260034  1  -0.017495  0  -0.01561  0.06558  0  4.013304  0
C  C55  1  0.50560719  0.97043472  0.46259822  1  -0.017517  0  -0.015631  0.065491  0  4.01298  0
C  C56  1  0.22616365  0.16080785  0.98094494  1  -6.9e-05  0  -0.026751  -0.030118  0  3.970723  0
C  C57  1  0.27383686  0.83919490  0.48094448  1  -9.3e-05  0  -0.02673  -0.030097  0  3.97081  0
C  C58  1  0.77382462  0.83918807  0.01904587  1  0.000217  0  -0.02684  -0.03042  0  3.970963  0
C  C59  1  0.72618409  0.16080345  0.51905645  1  0.000107  0  -0.026723  -0.029946  0  3.97054  0
C  C60  1  0.08208741  0.93362432  0.73859314  1  0.562569  0  0.033555  -0.027366  0  3.973505  0
C  C61  1  0.41791743  0.06637995  0.23858653  1  0.562701  0  0.033605  -0.027265  0  3.973511  0
C  C62  1  0.91791221  0.06637409  0.26141475  1  0.562537  0  0.03359  -0.027287  0  3.973579  0
C  C63  1  0.58209030  0.93362600  0.76140618  1  0.562387  0  0.033646  -0.027267  0  3.973619  0
C  C64  1  0.84682433  0.59064119  0.99604304  1  0.507645  0  0.053843  0.010288  0  3.870595  0
C  C65  1  0.65317074  0.40934655  0.49603760  1  0.507591  0  0.053696  0.010098  0  3.870639  0
C  C66  1  0.15317676  0.40935637  0.00396674  1  0.507938  0  0.053798  0.010291  0  3.870207  0
C  C67  1  0.34683275  0.59065017  0.50395827  1  0.506993  0  0.053694  0.010152  0  3.870554  0
C  C68  1  0.89356678  0.87521648  0.06337852  1  -0.021353  0  -0.089445  -0.151566  0  3.98393  0
C  C69  1  0.60643550  0.12477110  0.56338176  1  -0.020675  0  -0.089472  -0.151818  0  3.984039  0
C  C70  1  0.10642187  0.12478028  0.93661292  1  -0.021135  0  -0.08947  -0.151702  0  3.983945  0
C  C71  1  0.39357827  0.87521969  0.43661158  1  -0.021204  0  -0.089416  -0.151602  0  3.983752  0
C  C72  1  0.34560352  0.26181354  0.95145283  1  1.580024  0  0.18011  0.555589  0  4.259624  0
C  C73  1  0.15439655  0.73818624  0.45145122  1  1.580077  0  0.18004  0.555485  0  4.259623  0
C  C74  1  0.65438120  0.73818071  0.04854367  1  1.579532  0  0.1803  0.555847  0  4.259356  0
C  C75  1  0.84562302  0.26180707  0.54855033  1  1.579594  0  0.180142  0.555694  0  4.259457  0
C  C76  1  0.12895939  0.00947634  0.08273049  1  -0.057129  0  -0.100953  -0.142689  0  4.003323  0
C  C77  1  0.37104566  0.99052244  0.58272659  1  -0.057259  0  -0.100914  -0.142685  0  4.003296  0
C  C78  1  0.87103437  0.99051536  0.91725842  1  -0.057426  0  -0.101019  -0.142896  0  4.003239  0
C  C79  1  0.62898201  0.00947841  0.41726928  1  -0.057602  0  -0.101046  -0.142866  0  4.00328  0
C  C80  1  0.98909878  0.82320501  0.75086081  1  0.418604  0  0.12039  0.158608  0  4.081644  0
C  C81  1  0.51090062  0.17679438  0.25084888  1  0.418622  0  0.120367  0.158631  0  4.08179  0
C  C82  1  0.01090539  0.17679927  0.24915403  1  0.418771  0  0.120395  0.158612  0  4.081737  0
C  C83  1  0.48910278  0.82320822  0.74914193  1  0.418644  0  0.1204  0.158697  0  4.081674  0
C  C84  1  0.23637024  0.10180043  0.05483142  1  -0.113753  0  -0.101531  -0.11206  0  4.018836  0
C  C85  1  0.26363644  0.89819787  0.55482947  1  -0.11391  0  -0.101487  -0.112073  0  4.0189  0
C  C86  1  0.76362553  0.89818958  0.94515749  1  -0.113548  0  -0.101468  -0.112021  0  4.019011  0
C  C87  1  0.73639433  0.10179961  0.44517019  1  -0.114139  0  -0.101454  -0.112063  0  4.018892  0
C  C88  1  0.96263741  0.60949637  0.94841985  1  0.471133  0  0.123742  0.159765  0  4.031428  0
C  C89  1  0.53735237  0.39049201  0.44841707  1  0.47103  0  0.123701  0.159607  0  4.03156  0
C  C90  1  0.03735857  0.39050625  0.05158803  1  0.470765  0  0.123814  0.159691  0  4.031591  0
C  C91  1  0.46264386  0.60950304  0.55158196  1  0.470996  0  0.123699  0.159694  0  4.031571  0
C  C92  1  0.86410013  0.43836473  0.88622952  1  0.493976  0  0.047491  0.047488  0  3.96163  0
C  C93  1  0.63588922  0.56163290  0.38622862  1  0.494121  0  0.047434  0.047433  0  3.961523  0
C  C94  1  0.13589894  0.56164462  0.11377267  1  0.493848  0  0.047594  0.04762  0  3.961636  0
C  C95  1  0.36410669  0.43836552  0.61376915  1  0.493564  0  0.047437  0.047421  0  3.961683  0
C  C96  1  0.18884510  0.92137409  0.86128474  1  0.546989  0  0.035114  -0.030679  0  3.99708  0
C  C97  1  0.31115208  0.07862352  0.36127549  1  0.54716  0  0.035081  -0.030735  0  3.997311  0
C  C98  1  0.81115760  0.07863103  0.13872757  1  0.546613  0  0.035156  -0.030477  0  3.997273  0
C  C99  1  0.68885187  0.92136814  0.63871784  1  0.547653  0  0.035137  -0.030697  0  3.99712  0
C  C100  1  0.74792032  0.41690142  0.93419738  1  0.499679  0  0.052355  0.033597  0  3.916092  0
C  C101  1  0.75206999  0.58309220  0.43419569  1  0.49884  0  0.052418  0.033727  0  3.915797  0
C  C102  1  0.25207704  0.58310624  0.06580355  1  0.499495  0  0.052321  0.033447  0  3.916147  0
C  C103  1  0.24792074  0.41690708  0.56580334  1  0.498799  0  0.052419  0.033741  0  3.915988  0
C  C104  1  0.76248381  0.63621132  0.72111997  1  0.498793  0  0.129838  0.159161  0  4.024039  0
C  C105  1  0.73751669  0.36378847  0.22111678  1  0.498769  0  0.129812  0.159199  0  4.024024  0
C  C106  1  0.23751875  0.36378540  0.27889234  1  0.499147  0  0.12997  0.159395  0  4.023974  0
C  C107  1  0.26248416  0.63621667  0.77887782  1  0.499192  0  0.129802  0.159055  0  4.024218  0
C  C108  1  0.66341532  0.44450942  0.72130598  1  0.516602  0  0.055317  0.056889  0  3.927008  0
C  C109  1  0.83657946  0.55549207  0.22130957  1  0.516278  0  0.055293  0.056799  0  3.92687  0
C  C110  1  0.33656946  0.55548903  0.27869621  1  0.51655  0  0.055146  0.056619  0  3.927051  0
C  C111  1  0.16342865  0.44451473  0.77869388  1  0.51666  0  0.055323  0.056876  0  3.926804  0
C  C112  1  0.67953025  0.64140217  0.78811079  1  0.543697  0  0.062857  0.029723  0  3.868932  0
C  C113  1  0.82046408  0.35859423  0.28810955  1  0.5436  0  0.062886  0.029676  0  3.868748  0
C  C114  1  0.32046327  0.35859710  0.21189519  1  0.543513  0  0.06275  0.029563  0  3.868904  0
C  C115  1  0.17953037  0.64140504  0.71188948  1  0.543595  0  0.062884  0.02976  0  3.8688  0
C  C116  1  0.57687876  0.44829316  0.78560660  1  0.423805  0  0.050415  0.031683  0  3.890012  0
C  C117  1  0.92311210  0.55170580  0.28561340  1  0.423907  0  0.050476  0.031901  0  3.889752  0
C  C118  1  0.42310053  0.55170952  0.21439116  1  0.42343  0  0.050411  0.03174  0  3.889939  0
C  C119  1  0.07688698  0.44829345  0.71439196  1  0.42374  0  0.050408  0.031554  0  3.889905  0
S  S120  1  0.10393427  0.73709125  0.96508545  1  0.123628  0  0.046244  -0.034185  0  2.7135  0
S  S121  1  0.39606240  0.26289910  0.46507608  1  0.123678  0  0.046323  -0.034008  0  2.713902  0
S  S122  1  0.89606094  0.26290969  0.03493129  1  0.123856  0  0.04624  -0.034073  0  2.713658  0
S  S123  1  0.60394156  0.73709256  0.53491788  1  0.123702  0  0.046315  -0.034061  0  2.713593  0
S  S124  1  0.87374923  0.75886059  0.66941491  1  0.150196  0  0.063341  -0.012432  0  2.785377  0
S  S125  1  0.62625118  0.24113905  0.16940948  1  0.150337  0  0.0633  -0.012528  0  2.78552  0
S  S126  1  0.12625457  0.24113276  0.33059613  1  0.150317  0  0.063336  -0.012506  0  2.785634  0
S  S127  1  0.37374727  0.75886694  0.83058260  1  0.150308  0  0.063363  -0.012432  0  2.785442  0
N  N128  1  0.99290914  0.76394671  0.81945879  1  -1.200326  0  -0.309495  -0.306071  0  3.377146  0
N  N129  1  0.50708284  0.23605264  0.31944705  1  -1.200502  0  -0.309477  -0.306089  0  3.377074  0
N  N130  1  0.00709085  0.23606264  0.18055794  1  -1.200462  0  -0.30955  -0.30606  0  3.376878  0
N  N131  1  0.49291432  0.76394241  0.68054565  1  -1.200922  0  -0.309533  -0.306164  0  3.377068  0
N  N132  1  0.73956719  0.49417101  0.98823838  1  -1.180339  0  -0.310326  -0.13289  0  3.526574  0
N  N133  1  0.76042691  0.50582273  0.48824044  1  -1.179262  0  -0.31031  -0.132891  0  3.526437  0
N  N134  1  0.26043258  0.50583581  0.01176318  1  -1.180097  0  -0.310303  -0.13276  0  3.526216  0
N  N135  1  0.23957294  0.49417820  0.51176491  1  -1.179299  0  -0.310319  -0.132874  0  3.526479  0
N  N136  1  0.18225998  0.98083205  0.79350064  1  -1.165181  0  -0.305073  -0.188919  0  3.349829  0
N  N137  1  0.31773751  0.01917236  0.29349375  1  -1.16562  0  -0.305089  -0.188908  0  3.350204  0
N  N138  1  0.81774304  0.01916972  0.20650534  1  -1.165692  0  -0.305159  -0.189004  0  3.35023  0
N  N139  1  0.68226381  0.98082773  0.70650086  1  -1.165541  0  -0.305142  -0.188957  0  3.349845  0
N  N140  1  0.97202855  0.53419292  0.89318361  1  -1.148428  0  -0.292655  -0.240805  0  3.329842  0
N  N141  1  0.52796293  0.46580124  0.39317963  1  -1.148545  0  -0.292653  -0.240757  0  3.329782  0
N  N142  1  0.02797786  0.46581219  0.10682427  1  -1.148564  0  -0.29286  -0.240937  0  3.330147  0
N  N143  1  0.47203090  0.53419466  0.60681498  1  -1.148492  0  -0.292612  -0.240724  0  3.32982  0
N  N144  1  0.75647570  0.53840006  0.68946772  1  -1.166375  0  -0.292622  -0.221646  0  3.421949  0
N  N145  1  0.74352297  0.46160184  0.18946632  1  -1.166405  0  -0.292607  -0.221642  0  3.421805  0
N  N146  1  0.24351705  0.46159753  0.31054017  1  -1.166822  0  -0.292516  -0.221557  0  3.421906  0
N  N147  1  0.25647980  0.53840749  0.81053271  1  -1.16698  0  -0.292563  -0.22151  0  3.421996  0
N  N148  1  0.58735628  0.54725163  0.81992123  1  -1.156299  0  -0.312493  -0.136029  0  3.529497  0
N  N149  1  0.91263546  0.45274519  0.31992561  1  -1.155911  0  -0.312567  -0.136172  0  3.529477  0
N  N150  1  0.41263283  0.45275017  0.18007969  1  -1.15616  0  -0.312429  -0.136021  0  3.529353  0
N  N151  1  0.08735373  0.54725073  0.68008100  1  -1.15646  0  -0.312543  -0.136055  0  3.529579  0
O  O152  1  0.32614741  0.31968796  0.89122396  1  -1.192862  0  -0.347771  -0.584746  0  2.22265  0
O  O153  1  0.17385323  0.68031514  0.39122027  1  -1.19293  0  -0.347709  -0.584687  0  2.222722  0
O  O154  1  0.67384162  0.68030964  0.10877254  1  -1.192637  0  -0.347809  -0.584794  0  2.222645  0
O  O155  1  0.82615705  0.31968829  0.60877623  1  -1.192588  0  -0.347823  -0.584889  0  2.222541  0
O  O156  1  0.45612177  0.28208112  0.99014584  1  -1.18792  0  -0.357195  -0.592519  0  2.276408  0
O  O157  1  0.04387660  0.71791899  0.49014500  1  -1.187933  0  -0.357203  -0.592524  0  2.276381  0
O  O158  1  0.54386525  0.71791817  0.00984624  1  -1.187728  0  -0.357252  -0.59261  0  2.27638  0
O  O159  1  0.95613593  0.28207518  0.50985403  1  -1.187823  0  -0.357135  -0.592509  0  2.27651  0
