# generated using pymatgen
data_Co2H12C15N3O8
_symmetry_space_group_name_H-M   'P 1'
_cell_length_a   10.36919630
_cell_length_b   10.37681820
_cell_length_c   20.53721297
_cell_angle_alpha   90.00063659
_cell_angle_beta   90.00033869
_cell_angle_gamma   101.30598926
_symmetry_Int_Tables_number   1
_chemical_formula_structural   Co2H12C15N3O8
_chemical_formula_sum   'Co8 H48 C60 N12 O32'
_cell_volume   2166.90622929
_cell_formula_units_Z   4
loop_
 _symmetry_equiv_pos_site_id
 _symmetry_equiv_pos_as_xyz
  1  'x, y, z'
loop_
 _atom_site_type_symbol
 _atom_site_label
 _atom_site_symmetry_multiplicity
 _atom_site_fract_x
 _atom_site_fract_y
 _atom_site_fract_z
 _atom_site_occupancy
 _atom_site_pbe_bader_charge
 _atom_site_pbe_bader_spin_density
 _atom_site_pbe_cm5_charge
 _atom_site_pbe_ddec_charge
 _atom_site_pbe_ddec_spin_density
 _atom_site_pbe_ddec_sum_bond_order
 _atom_site_pbe_magmom
Co  Co0  1  0.08342143  0.43304346  0.54968743  1  1.289908  2.611  0.643867  0.988946  2.822871  2.476501  2.595
Co  Co1  1  0.41661957  0.06714975  0.04974612  1  1.289974  2.610828  0.644039  0.988923  2.82213  2.475643  2.595
Co  Co2  1  0.91656887  0.56719368  0.45025881  1  1.290182  2.610984  0.644396  0.989849  2.822409  2.476565  2.595
Co  Co3  1  0.58340584  0.93301908  0.95030626  1  1.290168  2.611063  0.644063  0.989355  2.822896  2.476616  2.595
Co  Co4  1  0.93675846  0.63574265  0.61635606  1  1.282547  2.605845  0.649189  0.941963  2.804413  2.473109  2.58
Co  Co5  1  0.56327369  0.86421982  0.11633017  1  1.282834  2.606122  0.649253  0.942406  2.804577  2.472364  2.58
Co  Co6  1  0.06326414  0.36422532  0.38370411  1  1.282986  2.606103  0.649228  0.942171  2.804399  2.472382  2.58
Co  Co7  1  0.43674623  0.13574916  0.88362288  1  1.282457  2.605927  0.649313  0.942278  2.804589  2.473549  2.58
H  H8  1  0.82835271  0.44161094  0.55508803  1  0.611189  0.002145  0.31441  0.404305  0.001514  0.878712  0.003
H  H9  1  0.67168994  0.05838244  0.05511965  1  0.611058  0.00214  0.314235  0.404043  0.001513  0.879246  0.003
H  H10  1  0.17168747  0.55840018  0.44489326  1  0.610792  0.002143  0.314321  0.404215  0.001511  0.879044  0.003
H  H11  1  0.32835526  0.94161090  0.94491179  1  0.61103  0.002146  0.314291  0.404122  0.001515  0.879065  0.003
H  H12  1  0.32392256  0.44786380  0.55519490  1  0.628545  -0.000752  0.312547  0.399583  -0.000866  0.899052  0.0
H  H13  1  0.17616433  0.05223356  0.05517294  1  0.628554  -0.000754  0.312886  0.400196  -0.000867  0.898246  0.0
H  H14  1  0.67617524  0.55223044  0.44482047  1  0.628248  -0.000756  0.312974  0.400331  -0.000869  0.897992  0.0
H  H15  1  0.82390744  0.94785602  0.94480105  1  0.62898  -0.000751  0.312519  0.399442  -0.000865  0.899175  0.0
H  H16  1  0.28825250  0.37483111  0.48834039  1  0.631539  0.000235  0.293721  0.392112  4.2e-05  0.946061  0.001
H  H17  1  0.21193310  0.12513142  0.98828034  1  0.629517  0.000238  0.293472  0.391853  4.7e-05  0.946413  0.001
H  H18  1  0.71194572  0.62514196  0.51171248  1  0.629531  0.000242  0.293553  0.391989  5.1e-05  0.946203  0.001
H  H19  1  0.78824659  0.87483593  0.01165470  1  0.631606  0.000237  0.293745  0.392161  4.4e-05  0.946028  0.001
H  H20  1  0.61822045  0.94329186  0.40206204  1  0.074593  -2.6e-05  0.109829  0.112539  -3e-05  0.982206  0.0
H  H21  1  0.88166844  0.55671770  0.90179516  1  0.075923  -2.6e-05  0.110116  0.113189  -3e-05  0.982332  0.0
H  H22  1  0.38167415  0.05671485  0.59818754  1  0.07642  -2.6e-05  0.110149  0.113231  -3e-05  0.982248  0.0
H  H23  1  0.11822271  0.44329100  0.09791881  1  0.074951  -2.6e-05  0.109763  0.112489  -3e-05  0.982413  0.0
H  H24  1  0.59966551  0.99637267  0.61010402  1  0.065911  -3.9e-05  0.103484  0.104128  -5.5e-05  1.00749  0.0
H  H25  1  0.90024096  0.50365888  0.10984630  1  0.068715  -3.9e-05  0.103422  0.104022  -5.5e-05  1.007058  0.0
H  H26  1  0.40023212  0.00364877  0.39013047  1  0.068016  -3.9e-05  0.103391  0.103962  -5.5e-05  1.006947  0.0
H  H27  1  0.09967040  0.49638704  0.88987205  1  0.065878  -3.9e-05  0.103352  0.104072  -5.5e-05  1.007296  0.0
H  H28  1  0.77652737  0.90008930  0.56207023  1  0.099165  -7.1e-05  0.118941  0.109045  -0.000267  0.998224  0.0
H  H29  1  0.72348237  0.60008573  0.06181301  1  0.102567  -7.3e-05  0.119088  0.109208  -0.000268  0.998293  0.0
H  H30  1  0.22346416  0.10007890  0.43817546  1  0.102629  -7.4e-05  0.119044  0.109138  -0.000268  0.998231  0.0
H  H31  1  0.27653639  0.40011173  0.93791167  1  0.099495  -7.1e-05  0.118887  0.109036  -0.000267  0.998305  0.0
H  H32  1  0.77664963  0.86373981  0.47770961  1  0.132985  0.000191  0.123068  0.12527  -1.5e-05  0.983695  0.0
H  H33  1  0.72322664  0.63625111  0.97743882  1  0.133071  0.000192  0.122957  0.12518  -1.5e-05  0.982665  0.0
H  H34  1  0.22323433  0.13624337  0.52255020  1  0.133424  0.000192  0.122892  0.125082  -1.5e-05  0.982685  0.0
H  H35  1  0.27664547  0.36374006  0.02227369  1  0.133523  0.000191  0.123082  0.125373  -1.5e-05  0.983447  0.0
H  H36  1  0.87790736  0.14826435  0.59865842  1  0.185131  0.000743  0.156882  0.133256  -3.6e-05  0.954396  0.001
H  H37  1  0.62223000  0.35186802  0.09853331  1  0.186852  0.000746  0.156837  0.133502  -3.5e-05  0.954326  0.001
H  H38  1  0.12221304  0.85185527  0.40145483  1  0.186476  0.000745  0.156952  0.133553  -3.6e-05  0.954321  0.001
H  H39  1  0.37794372  0.64829044  0.90133551  1  0.185189  0.000743  0.156862  0.133236  -3.6e-05  0.954559  0.001
H  H40  1  0.90137944  0.04995864  0.39942813  1  0.177445  0.000501  0.160503  0.136636  -0.000211  0.942689  0.0
H  H41  1  0.59833681  0.44996207  0.89929654  1  0.173781  0.0005  0.160634  0.136872  -0.000211  0.942702  0.0
H  H42  1  0.09835917  0.94994625  0.60069486  1  0.174539  0.000501  0.160584  0.136937  -0.00021  0.942651  0.0
H  H43  1  0.40135721  0.54995115  0.10056497  1  0.17827  0.000502  0.160579  0.136647  -0.00021  0.942704  0.0
H  H44  1  0.18310066  0.32844305  0.74801409  1  0.095301  0.000687  0.110972  0.125876  0.000281  0.986629  0.0
H  H45  1  0.31693426  0.17143814  0.24802828  1  0.096246  0.000686  0.110869  0.125877  0.00028  0.986845  0.0
H  H46  1  0.81690328  0.67139217  0.25197207  1  0.095803  0.000687  0.110887  0.125936  0.00028  0.986634  0.0
H  H47  1  0.68311905  0.82846354  0.75199683  1  0.094902  0.000688  0.110994  0.125832  0.000281  0.986616  0.0
H  H48  1  0.96496799  0.13357659  0.90999628  1  0.109001  0.000394  0.103331  0.105348  0.000103  1.024236  0.0
H  H49  1  0.53506335  0.36636088  0.40999904  1  0.098166  0.000393  0.103261  0.105268  0.000102  1.024206  0.0
H  H50  1  0.03504880  0.86633039  0.09001277  1  0.098122  0.000394  0.103308  0.105438  0.000103  1.024118  0.0
H  H51  1  0.46498059  0.63358423  0.59001682  1  0.108969  0.000395  0.103393  0.105447  0.000103  1.024118  0.0
H  H52  1  0.76660425  0.31961827  0.76361150  1  0.116367  0.000785  0.109241  0.121895  0.000311  0.994836  0.0
H  H53  1  0.73344531  0.18037833  0.26360699  1  0.115714  0.000786  0.109212  0.122002  0.000311  0.994773  0.0
H  H54  1  0.23344125  0.68036719  0.23639706  1  0.115691  0.000786  0.109269  0.122079  0.000311  0.994682  0.0
H  H55  1  0.26660500  0.81960708  0.73639524  1  0.116416  0.000786  0.109214  0.121927  0.000311  0.994873  0.0
C  C56  1  0.62373943  0.96667448  0.50683972  1  0.002671  4e-05  -0.013693  0.084946  -5.1e-05  3.98624  0.0
C  C57  1  0.87613975  0.53331929  0.00657333  1  -0.002958  4e-05  -0.013297  0.086168  -5.1e-05  3.986052  0.0
C  C58  1  0.37614646  0.03332739  0.49340792  1  -0.003459  3.9e-05  -0.013113  0.086214  -5.2e-05  3.98587  0.0
C  C59  1  0.12374234  0.46668754  0.99314113  1  -0.020419  3.9e-05  -0.013737  0.085029  -5.1e-05  3.986245  0.0
C  C60  1  0.56650521  0.96806042  0.44518376  1  -0.024154  0.000134  -0.085099  -0.118445  2.8e-05  3.973254  0.0
C  C61  1  0.93337366  0.53195427  0.94491689  1  -0.023386  0.000134  -0.085451  -0.120411  2.8e-05  3.974603  0.0
C  C62  1  0.43338321  0.03196309  0.55506242  1  -0.022806  0.000134  -0.085522  -0.120403  2.8e-05  3.974506  0.0
C  C63  1  0.06650767  0.46805355  0.05479659  1  -0.025051  0.000134  -0.08495  -0.118353  2.8e-05  3.973107  0.0
C  C64  1  0.55652282  0.99874623  0.56174784  1  -0.074463  4.3e-05  -0.086891  -0.123872  -4.2e-05  3.989664  0.0
C  C65  1  0.94337024  0.50125568  0.06148682  1  -0.070791  4.1e-05  -0.087232  -0.124986  -4.3e-05  3.989787  0.0
C  C66  1  0.44336808  0.00125657  0.43849006  1  -0.070622  4.1e-05  -0.087178  -0.124862  -4.3e-05  3.989689  0.0
C  C67  1  0.05652193  0.49875794  0.93823202  1  -0.050857  4.3e-05  -0.086793  -0.123829  -4.1e-05  3.989594  0.0
C  C68  1  0.75970654  0.93718589  0.51344444  1  0.243515  0.001717  -0.047112  -0.122775  0.000876  3.874201  0.001
C  C69  1  0.74019407  0.56287873  0.01320312  1  0.240675  0.001714  -0.04684  -0.12239  0.000873  3.872874  0.001
C  C70  1  0.24019398  0.06287294  0.48678421  1  0.240577  0.001716  -0.046761  -0.122068  0.000874  3.872613  0.001
C  C71  1  0.25971105  0.43719778  0.98653714  1  0.242802  0.001715  -0.04694  -0.122767  0.000875  3.873744  0.001
C  C72  1  0.90506386  0.15253379  0.54759945  1  0.953519  -0.006864  0.164787  0.084246  -0.008747  3.883352  -0.003
C  C73  1  0.59495068  0.34756703  0.04748641  1  0.954871  -0.006933  0.164787  0.083872  -0.008818  3.884749  -0.003
C  C74  1  0.09493724  0.84755455  0.45250065  1  0.955077  -0.006961  0.164527  0.083788  -0.008846  3.884653  -0.003
C  C75  1  0.40508619  0.65255441  0.95239701  1  0.953365  -0.006877  0.164794  0.084281  -0.008761  3.883716  -0.003
C  C76  1  0.91802385  0.10164454  0.44547885  1  0.948807  -0.008042  0.165662  0.089087  -0.009912  3.88649  -0.004
C  C77  1  0.58178028  0.39834439  0.94536591  1  0.978013  -0.008091  0.165585  0.088519  -0.009899  3.886547  -0.004
C  C78  1  0.08178034  0.89833059  0.55462320  1  0.977774  -0.008101  0.165639  0.088531  -0.00991  3.886202  -0.004
C  C79  1  0.41801397  0.60165742  0.05451897  1  0.947809  -0.008039  0.165755  0.089297  -0.009907  3.886076  -0.004
C  C80  1  0.97521094  0.33202674  0.74965913  1  -0.02748  0.011315  -0.017958  -0.031948  0.005786  3.993825  0.009
C  C81  1  0.52483758  0.16794687  0.24965977  1  -0.026512  0.011325  -0.018118  -0.031824  0.005792  3.99445  0.009
C  C82  1  0.02480899  0.66790482  0.25035235  1  -0.026903  0.011329  -0.018206  -0.032075  0.005794  3.994471  0.009
C  C83  1  0.47522068  0.83204437  0.75035415  1  -0.026809  0.01132  -0.018152  -0.03231  0.005789  3.99435  0.009
C  C84  1  0.09061678  0.29947620  0.77425502  1  -0.000417  -0.005299  -0.073497  -0.102173  -0.006216  3.908775  -0.003
C  C85  1  0.40942312  0.20047453  0.27425699  1  -0.000375  -0.005294  -0.0733  -0.101967  -0.006208  3.909399  -0.003
C  C86  1  0.90939636  0.70043179  0.22574965  1  -0.000132  -0.005299  -0.073283  -0.101821  -0.006215  3.909248  -0.003
C  C87  1  0.59062410  0.79949122  0.72575936  1  1.5e-05  -0.005301  -0.073417  -0.101852  -0.006217  3.908972  -0.003
C  C88  1  0.08695387  0.22968967  0.83278905  1  -0.007396  0.005554  -0.020576  -0.040922  0.002711  4.003853  0.004
C  C89  1  0.41307856  0.27020746  0.33280311  1  -0.006636  0.005554  -0.020276  -0.040605  0.002713  4.003805  0.004
C  C90  1  0.91306906  0.77017686  0.16720831  1  -0.005467  0.005554  -0.02045  -0.040814  0.002713  4.004261  0.004
C  C91  1  0.58695236  0.72970724  0.66723077  1  -0.007562  0.005555  -0.020623  -0.041058  0.002712  4.004235  0.004
C  C92  1  0.96683588  0.18879805  0.86487493  1  -0.044187  -0.005962  -0.077232  -0.099733  -0.006815  3.933037  -0.003
C  C93  1  0.53319091  0.31110582  0.36489101  1  -0.033229  -0.00595  -0.077299  -0.099799  -0.006802  3.933102  -0.003
C  C94  1  0.03317479  0.81107451  0.13512097  1  -0.033663  -0.005956  -0.077365  -0.100084  -0.006809  3.933736  -0.003
C  C95  1  0.46684882  0.68880486  0.63513605  1  -0.044297  -0.005965  -0.077186  -0.09968  -0.006818  3.933095  -0.003
C  C96  1  0.85082194  0.21904456  0.83992842  1  -0.052482  0.011398  -0.020385  -0.037956  0.005774  3.989455  0.009
C  C97  1  0.64920432  0.28092368  0.33992520  1  -0.053834  0.011399  -0.020318  -0.03779  0.005775  3.989977  0.009
C  C98  1  0.14918492  0.78088910  0.16009037  1  -0.052595  0.011398  -0.020393  -0.0379  0.005776  3.989845  0.009
C  C99  1  0.35084011  0.71905194  0.66008190  1  -0.052412  0.011395  -0.020324  -0.037707  0.005773  3.989242  0.009
C  C100  1  0.85605525  0.29372910  0.78289558  1  0.014978  -0.00468  -0.071996  -0.099195  -0.005671  3.91413  -0.003
C  C101  1  0.64399964  0.20628764  0.28288073  1  0.015437  -0.004669  -0.071979  -0.099526  -0.00566  3.914464  -0.003
C  C102  1  0.14397171  0.70625065  0.21713148  1  0.015421  -0.004675  -0.071936  -0.099467  -0.005669  3.91435  -0.003
C  C103  1  0.35606525  0.79373111  0.71711615  1  0.014994  -0.00468  -0.07189  -0.099253  -0.005673  3.914044  -0.003
C  C104  1  0.97813620  0.40691207  0.68731447  1  1.533327  -0.004638  0.207617  0.582003  -0.006459  4.185747  -0.004
C  C105  1  0.52193418  0.09305876  0.18732441  1  1.531762  -0.004674  0.207016  0.580838  -0.006492  4.186557  -0.004
C  C106  1  0.02190971  0.59303794  0.31269360  1  1.532257  -0.004686  0.207071  0.581249  -0.006506  4.185758  -0.004
C  C107  1  0.47814176  0.90692934  0.81269486  1  1.532829  -0.004647  0.207516  0.582026  -0.006471  4.185793  -0.004
C  C108  1  0.20854850  0.19514767  0.86091466  1  1.51086  -0.005555  0.198508  0.560098  -0.007268  4.212818  -0.006
C  C109  1  0.29150906  0.30475287  0.36094755  1  1.51002  -0.005541  0.198535  0.560152  -0.007254  4.212507  -0.006
C  C110  1  0.79149625  0.80472652  0.13905884  1  1.50935  -0.005542  0.198653  0.560204  -0.007258  4.212862  -0.006
C  C111  1  0.70854855  0.69517436  0.63910191  1  1.511632  -0.005545  0.198543  0.560085  -0.007258  4.212646  -0.006
C  C112  1  0.72203273  0.16853468  0.87284978  1  1.535106  -0.003255  0.20583  0.578885  -0.005121  4.191682  -0.003
C  C113  1  0.77797888  0.33149166  0.37284139  1  1.535148  -0.003206  0.205727  0.578501  -0.005067  4.192087  -0.003
C  C114  1  0.27798065  0.83145406  0.12717825  1  1.533664  -0.003238  0.20592  0.578958  -0.005101  4.191764  -0.003
C  C115  1  0.22205152  0.66854221  0.62715694  1  1.534961  -0.003256  0.205629  0.57843  -0.005121  4.191602  -0.003
N  N116  1  0.98655806  0.25002253  0.51896987  1  -0.734103  0.0453  -0.234257  -0.190237  0.024379  3.540858  0.04
N  N117  1  0.51344254  0.25002157  0.01891251  1  -0.734796  0.045333  -0.234336  -0.19047  0.024392  3.541993  0.04
N  N118  1  0.01343080  0.75001570  0.48108008  1  -0.734151  0.045371  -0.234398  -0.190521  0.024412  3.541894  0.04
N  N119  1  0.48657898  0.75003011  0.98103957  1  -0.733902  0.045329  -0.234269  -0.190427  0.024393  3.541343  0.04
N  N120  1  0.99513030  0.21799576  0.45434710  1  -0.705022  0.037827  -0.229882  -0.199898  0.018715  3.518309  0.037
N  N121  1  0.50474252  0.28197497  0.95428196  1  -0.729979  0.037905  -0.229965  -0.199329  0.018727  3.517708  0.037
N  N122  1  0.00473706  0.78196297  0.54571453  1  -0.730568  0.037883  -0.229984  -0.199343  0.018714  3.517437  0.037
N  N123  1  0.49513274  0.71800337  0.04566184  1  -0.705374  0.037826  -0.22999  -0.199962  0.018714  3.518192  0.037
N  N124  1  0.86036982  0.05693782  0.50296794  1  -1.229815  -0.000813  -0.229977  0.0135  -0.001405  3.770907  0.0
N  N125  1  0.63952272  0.44312570  0.00281856  1  -1.233201  -0.000831  -0.229987  0.013469  -0.001415  3.772188  0.0
N  N126  1  0.13952193  0.94311126  0.49716722  1  -1.233898  -0.000834  -0.229941  0.013218  -0.00142  3.771858  0.0
N  N127  1  0.36037227  0.55695781  0.99702250  1  -1.229422  -0.000818  -0.23012  0.013348  -0.001407  3.770698  0.0
O  O128  1  0.06160087  0.38630661  0.64451561  1  -1.169467  0.083418  -0.320907  -0.579891  0.043432  2.36423  0.072
O  O129  1  0.43851330  0.11375432  0.14452692  1  -1.168125  0.083694  -0.320849  -0.579402  0.043562  2.365406  0.072
O  O130  1  0.93851326  0.61374511  0.35550853  1  -1.168725  0.083814  -0.320888  -0.579813  0.043625  2.36553  0.072
O  O131  1  0.56160376  0.88632101  0.85549382  1  -1.169855  0.083482  -0.320906  -0.579955  0.043464  2.364572  0.072
O  O132  1  0.89774759  0.48446675  0.68179629  1  -1.12702  0.065419  -0.313763  -0.542287  0.033608  2.307324  0.056
O  O133  1  0.60229211  0.01546782  0.18179922  1  -1.127517  0.065448  -0.31319  -0.541488  0.03362  2.306928  0.056
O  O134  1  0.10227092  0.51545793  0.31820594  1  -1.127626  0.065433  -0.313194  -0.541565  0.03361  2.306783  0.056
O  O135  1  0.39774514  0.98448227  0.81820739  1  -1.126275  0.065491  -0.313674  -0.54215  0.033645  2.307398  0.056
O  O136  1  0.32128977  0.24987705  0.83826683  1  -1.135952  0.086122  -0.321966  -0.547396  0.044133  2.215969  0.072
O  O137  1  0.17876529  0.25005938  0.33830053  1  -1.13569  0.086029  -0.322113  -0.547539  0.044078  2.215339  0.072
O  O138  1  0.67875037  0.75005430  0.16171203  1  -1.135836  0.086064  -0.32219  -0.547587  0.044093  2.215939  0.072
O  O139  1  0.82128077  0.74990539  0.66174893  1  -1.136365  0.086043  -0.321889  -0.547277  0.044088  2.215923  0.072
O  O140  1  0.19826156  0.11073581  0.90675704  1  -1.186882  0.045315  -0.323327  -0.57759  0.022427  2.204316  0.039
O  O141  1  0.30182742  0.38913209  0.40681186  1  -1.186545  0.045268  -0.323498  -0.577975  0.022408  2.204088  0.039
O  O142  1  0.80181906  0.88910650  0.09319552  1  -1.186521  0.045263  -0.323397  -0.577867  0.022405  2.204312  0.039
O  O143  1  0.69827680  0.61077793  0.59324441  1  -1.187292  0.045338  -0.323445  -0.577757  0.022439  2.203881  0.039
O  O144  1  0.72326788  0.10293649  0.92532459  1  -1.186061  0.046228  -0.325337  -0.598253  0.02313  2.354984  0.042
O  O145  1  0.77675076  0.39722405  0.42527079  1  -1.18659  0.046189  -0.325351  -0.598301  0.023095  2.355295  0.042
O  O146  1  0.27674402  0.89717143  0.07474094  1  -1.186004  0.046187  -0.325216  -0.598174  0.023095  2.355352  0.042
O  O147  1  0.22328711  0.60293973  0.57468323  1  -1.186095  0.046232  -0.325239  -0.598143  0.023127  2.355057  0.042
O  O148  1  0.61844323  0.19320340  0.84589083  1  -1.140562  0.089811  -0.307446  -0.548555  0.046294  2.350939  0.076
O  O149  1  0.88156024  0.30674750  0.34590598  1  -1.140488  0.089819  -0.307295  -0.54809  0.046293  2.35042  0.076
O  O150  1  0.38157366  0.80673213  0.15411334  1  -1.140096  0.089811  -0.307562  -0.548634  0.046288  2.350345  0.076
O  O151  1  0.11846044  0.69322049  0.65411037  1  -1.14053  0.089763  -0.307417  -0.548336  0.046267  2.350781  0.076
O  O152  1  0.90841646  0.50409582  0.54418860  1  -1.17445  0.235093  -0.561906  -0.887369  0.127718  2.474812  0.201
O  O153  1  0.59163191  0.99589323  0.04422538  1  -1.174159  0.23502  -0.561462  -0.886707  0.127661  2.475463  0.201
O  O154  1  0.09159833  0.49593722  0.45578003  1  -1.174036  0.235022  -0.561566  -0.88697  0.127695  2.4758  0.201
O  O155  1  0.40844479  0.00409389  0.95577344  1  -1.174437  0.23507  -0.56166  -0.887141  0.127692  2.474861  0.201
O  O156  1  0.27104190  0.36815360  0.53635757  1  -1.224609  0.058448  -0.569704  -0.745452  0.03081  2.056216  0.046
O  O157  1  0.22910638  0.13187766  0.03630311  1  -1.222166  0.058574  -0.569702  -0.745829  0.030877  2.056823  0.046
O  O158  1  0.72915013  0.63185498  0.46369286  1  -1.221845  0.058691  -0.569713  -0.745976  0.030932  2.057023  0.046
O  O159  1  0.77101316  0.86815825  0.96364361  1  -1.22513  0.058475  -0.569728  -0.745438  0.030825  2.056441  0.046
