# generated using pymatgen
data_CoH12C20(NO2)2
_symmetry_space_group_name_H-M   'P 1'
_cell_length_a   15.34562880
_cell_length_b   17.12556692
_cell_length_c   17.12555631
_cell_angle_alpha   90.00004282
_cell_angle_beta   89.99993857
_cell_angle_gamma   89.99996141
_symmetry_Int_Tables_number   1
_chemical_formula_structural   CoH12C20(NO2)2
_chemical_formula_sum   'Co8 H96 C160 N16 O32'
_cell_volume   4500.64060610
_cell_formula_units_Z   8
loop_
 _symmetry_equiv_pos_site_id
 _symmetry_equiv_pos_as_xyz
  1  'x, y, z'
loop_
 _atom_site_type_symbol
 _atom_site_label
 _atom_site_symmetry_multiplicity
 _atom_site_fract_x
 _atom_site_fract_y
 _atom_site_fract_z
 _atom_site_occupancy
 _atom_site_pbe_bader_charge
 _atom_site_pbe_bader_spin_density
 _atom_site_pbe_cm5_charge
 _atom_site_pbe_ddec_charge
 _atom_site_pbe_ddec_spin_density
 _atom_site_pbe_ddec_sum_bond_order
 _atom_site_pbe_magmom
Co  Co0  1  0.01818520  0.74896741  0.25239207  1  1.215743  2.568795  0.663969  0.787908  2.804005  2.486196  2.533
Co  Co1  1  0.51818676  0.25103181  0.74760884  1  1.215748  2.568789  0.664005  0.787937  2.804004  2.486196  2.533
Co  Co2  1  0.76818724  0.24760801  0.24896798  1  1.215688  2.568797  0.664003  0.787933  2.804005  2.486217  2.533
Co  Co3  1  0.26818704  0.75239164  0.75103152  1  1.215708  2.568798  0.664014  0.787999  2.804001  2.486157  2.533
Co  Co4  1  0.73181158  0.75103271  0.75239184  1  1.215679  2.5688  0.664007  0.787969  2.804  2.486197  2.533
Co  Co5  1  0.23181300  0.24896871  0.24760887  1  1.215735  2.568794  0.664041  0.788019  2.803997  2.486157  2.533
Co  Co6  1  0.98181064  0.25239221  0.74896741  1  1.215718  2.568789  0.664016  0.787949  2.803998  2.486231  2.533
Co  Co7  1  0.48181170  0.74760790  0.25103306  1  1.215693  2.568797  0.663999  0.787933  2.804002  2.486249  2.533
H  H8  1  0.10363010  0.78123218  0.70796265  1  0.112104  -0.000304  0.110446  0.12613  -0.000443  1.048008  0.0
H  H9  1  0.60362962  0.21876816  0.29203760  1  0.112105  -0.000304  0.110444  0.126112  -0.000443  1.048044  0.0
H  H10  1  0.85363025  0.79203786  0.28123221  1  0.112098  -0.000304  0.110449  0.126116  -0.000443  1.048048  0.0
H  H11  1  0.35362919  0.20796233  0.71876838  1  0.112086  -0.000304  0.110442  0.126112  -0.000443  1.048043  0.0
H  H12  1  0.64636934  0.71876733  0.20796284  1  0.1121  -0.000304  0.110444  0.126125  -0.000443  1.048032  0.0
H  H13  1  0.14637075  0.28123123  0.79203737  1  0.112096  -0.000304  0.110441  0.126115  -0.000443  1.048056  0.0
H  H14  1  0.89637114  0.70796257  0.78123285  1  0.112122  -0.000304  0.110461  0.126157  -0.000443  1.04799  0.0
H  H15  1  0.39637062  0.29203876  0.21876595  1  0.112126  -0.000304  0.110474  0.126147  -0.000443  1.04799  0.0
H  H16  1  0.21857053  0.70952287  0.40872031  1  0.088182  0.000683  0.10869  0.11667  0.000273  1.029749  0.0
H  H17  1  0.71856899  0.29047798  0.59127924  1  0.088184  0.000683  0.10868  0.116626  0.000273  1.02977  0.0
H  H18  1  0.96857077  0.09127910  0.20952152  1  0.088187  0.000683  0.108687  0.116657  0.000273  1.029766  0.0
H  H19  1  0.46857171  0.90872102  0.79047838  1  0.088194  0.000683  0.108696  0.116663  0.000273  1.029777  0.0
H  H20  1  0.53142998  0.79047795  0.90872147  1  0.088246  0.000683  0.108692  0.116677  0.000273  1.02973  0.0
H  H21  1  0.03142901  0.20952126  0.09127827  1  0.088252  0.000683  0.108683  0.116612  0.000273  1.029762  0.0
H  H22  1  0.78142977  0.40872168  0.70952184  1  0.08825  0.000683  0.108699  0.116654  0.000273  1.029762  0.0
H  H23  1  0.28142893  0.59127855  0.29047766  1  0.08825  0.000683  0.108701  0.116687  0.000273  1.029739  0.0
H  H24  1  0.65928443  0.52995259  0.30352520  1  0.111314  0.000234  0.109452  0.115429  8.6e-05  0.997684  0.0
H  H25  1  0.15928581  0.47004538  0.69647324  1  0.111318  0.000234  0.109455  0.115443  8.6e-05  0.997687  0.0
H  H26  1  0.40928649  0.19647338  0.02995452  1  0.111327  0.000234  0.109465  0.115457  8.6e-05  0.997674  0.0
H  H27  1  0.90928477  0.80352502  0.97004660  1  0.111318  0.000234  0.10945  0.115418  8.6e-05  0.997704  0.0
H  H28  1  0.09071424  0.97004582  0.80352633  1  0.111323  0.000234  0.109464  0.115423  8.6e-05  0.997689  0.0
H  H29  1  0.59071532  0.02995335  0.19647510  1  0.111311  0.000234  0.109445  0.115413  8.6e-05  0.997705  0.0
H  H30  1  0.34071419  0.30352698  0.52995412  1  0.111315  0.000234  0.109456  0.115439  8.6e-05  0.997694  0.0
H  H31  1  0.84071379  0.69647380  0.47004532  1  0.111323  0.000234  0.10946  0.115422  8.6e-05  0.997694  0.0
H  H32  1  0.69737026  0.39025909  0.27864302  1  0.089627  0.001844  0.109882  0.11739  0.001045  1.021313  0.0
H  H33  1  0.19737021  0.60974002  0.72135597  1  0.089686  0.001844  0.10986  0.117373  0.001045  1.0213  0.0
H  H34  1  0.44737043  0.22135579  0.89026000  1  0.089688  0.001844  0.109865  0.117382  0.001045  1.021301  0.0
H  H35  1  0.94736975  0.77864259  0.10973992  1  0.089634  0.001845  0.109874  0.11738  0.001045  1.021328  0.0
H  H36  1  0.05263012  0.10974029  0.77864392  1  0.089684  0.001844  0.109871  0.117404  0.001044  1.021261  0.0
H  H37  1  0.55262987  0.89025949  0.22135755  1  0.089654  0.001844  0.109869  0.117405  0.001044  1.021272  0.0
H  H38  1  0.30262917  0.27864368  0.39025998  1  0.089684  0.001844  0.10986  0.117371  0.001045  1.021308  0.0
H  H39  1  0.80262923  0.72135654  0.60973891  1  0.08967  0.001844  0.109881  0.117404  0.001044  1.02128  0.0
H  H40  1  0.02488561  0.49838590  0.19026261  1  0.110691  0.000182  0.112386  0.121318  -5.2e-05  1.002955  0.0
H  H41  1  0.52488626  0.50161332  0.80973772  1  0.11067  0.000182  0.112375  0.121285  -5.2e-05  1.00298  0.0
H  H42  1  0.77488640  0.30973762  0.99838658  1  0.110662  0.000182  0.112367  0.121277  -5.2e-05  1.002994  0.0
H  H43  1  0.27488649  0.69026437  0.00161350  1  0.110688  0.000182  0.112385  0.121309  -5.2e-05  1.002948  0.0
H  H44  1  0.72511422  0.00161341  0.69026219  1  0.110672  0.000182  0.11237  0.121282  -5.2e-05  1.003002  0.0
H  H45  1  0.22511501  0.99838627  0.30973736  1  0.110686  0.000182  0.112385  0.121304  -5.2e-05  1.002988  0.0
H  H46  1  0.97511380  0.19026279  0.49838633  1  0.11067  0.000182  0.112383  0.121286  -5.2e-05  1.00297  0.0
H  H47  1  0.47511385  0.80973791  0.50161356  1  0.110668  0.000182  0.112376  0.121283  -5.2e-05  1.002984  0.0
H  H48  1  0.05270468  0.35625453  0.15836635  1  0.131311  0.000814  0.106675  0.120587  0.000317  1.031631  0.0
H  H49  1  0.55270453  0.64374526  0.84163395  1  0.131324  0.000814  0.106683  0.120618  0.000317  1.031616  0.0
H  H50  1  0.80270417  0.34163431  0.85625514  1  0.131337  0.000814  0.106672  0.120598  0.000317  1.031643  0.0
H  H51  1  0.30270476  0.65836999  0.14374609  1  0.131018  0.000814  0.106673  0.120581  0.000317  1.031663  0.0
H  H52  1  0.69729584  0.14374476  0.65836665  1  0.131327  0.000814  0.106682  0.120614  0.000317  1.031635  0.0
H  H53  1  0.19729605  0.85625552  0.34163409  1  0.131345  0.000814  0.106684  0.120597  0.000317  1.031638  0.0
H  H54  1  0.94729555  0.15836599  0.35625547  1  0.131325  0.000814  0.106674  0.120601  0.000317  1.031639  0.0
H  H55  1  0.44729671  0.84163414  0.64374503  1  0.131341  0.000814  0.106671  0.120581  0.000317  1.03168  0.0
H  H56  1  0.77089469  0.63310942  0.28523615  1  0.076181  0.000234  0.108856  0.110052  6.5e-05  1.012531  0.0
H  H57  1  0.27089678  0.36688906  0.71476336  1  0.076132  0.000234  0.108839  0.11003  6.5e-05  1.012533  0.0
H  H58  1  0.52089671  0.21476358  0.13311083  1  0.075882  0.000234  0.108843  0.110027  6.5e-05  1.012515  0.0
H  H59  1  0.02089439  0.78523564  0.86688949  1  0.07616  0.000234  0.108868  0.110065  6.5e-05  1.012443  0.0
H  H60  1  0.97910474  0.86688925  0.78523683  1  0.075892  0.000234  0.108847  0.110051  6.5e-05  1.012485  0.0
H  H61  1  0.47910564  0.13311027  0.21476423  1  0.076156  0.000234  0.10884  0.110026  6.5e-05  1.012525  0.0
H  H62  1  0.22910385  0.28523744  0.63311111  1  0.075862  0.000234  0.108855  0.110058  6.5e-05  1.012539  0.0
H  H63  1  0.72910421  0.71476341  0.36688785  1  0.075867  0.000234  0.108861  0.110045  6.5e-05  1.01251  0.0
H  H64  1  0.93814799  0.79356020  0.50501935  1  0.111579  0.000356  0.106045  0.109029  0.000208  1.018603  0.0
H  H65  1  0.43814655  0.20644052  0.49498116  1  0.111556  0.000356  0.106032  0.109018  0.000208  1.01862  0.0
H  H66  1  0.68814721  0.99498127  0.29355955  1  0.11157  0.000356  0.106039  0.109021  0.000208  1.018618  0.0
H  H67  1  0.18814762  0.00501843  0.70644061  1  0.111597  0.000356  0.106025  0.109052  0.000208  1.018553  0.0
H  H68  1  0.81185373  0.70643885  0.00501869  1  0.111544  0.000356  0.106038  0.109011  0.000208  1.018615  0.0
H  H69  1  0.31185227  0.29356019  0.99498136  1  0.11156  0.000356  0.106042  0.109041  0.000208  1.018592  0.0
H  H70  1  0.06185278  0.50501830  0.79356095  1  0.11156  0.000356  0.106041  0.10902  0.000208  1.018636  0.0
H  H71  1  0.56185285  0.49498206  0.20644051  1  0.11156  0.000356  0.106031  0.109053  0.000208  1.018569  0.0
H  H72  1  0.36227852  0.68648829  0.47535223  1  0.129927  0.000839  0.112187  0.132717  0.000365  1.000172  0.0
H  H73  1  0.86227769  0.31351131  0.52464718  1  0.129951  0.000839  0.112155  0.132679  0.000365  1.000226  0.0
H  H74  1  0.11227876  0.02464681  0.18648733  1  0.129958  0.000839  0.112182  0.132704  0.000365  1.000117  0.0
H  H75  1  0.61227905  0.97535411  0.81351233  1  0.129947  0.000839  0.112151  0.132654  0.000365  1.000211  0.0
H  H76  1  0.38772125  0.81351200  0.97535296  1  0.129941  0.000839  0.112167  0.132685  0.000365  1.000197  0.0
H  H77  1  0.88772111  0.18648758  0.02464585  1  0.129952  0.000839  0.112155  0.132641  0.000365  1.00022  0.0
H  H78  1  0.63772238  0.47535309  0.68648735  1  0.129962  0.000839  0.112163  0.132691  0.000365  1.000196  0.0
H  H79  1  0.13772157  0.52464606  0.31351228  1  0.129955  0.000839  0.112153  0.132657  0.000365  1.000218  0.0
H  H80  1  0.95794311  0.80613151  0.64917700  1  0.119508  0.000517  0.099906  0.10866  0.000276  1.04629  0.0
H  H81  1  0.45794185  0.19386978  0.35082291  1  0.119498  0.000517  0.099901  0.108644  0.000276  1.046326  0.0
H  H82  1  0.70794182  0.85082312  0.30613076  1  0.11951  0.000517  0.099907  0.108669  0.000276  1.046265  0.0
H  H83  1  0.20794083  0.14917716  0.69387114  1  0.119493  0.000517  0.099928  0.108715  0.000276  1.046255  0.0
H  H84  1  0.79205713  0.69386882  0.14917751  1  0.119525  0.000517  0.099906  0.108659  0.000276  1.046296  0.0
H  H85  1  0.29205909  0.30612907  0.85082255  1  0.119542  0.000517  0.099922  0.108694  0.000276  1.046282  0.0
H  H86  1  0.04206011  0.64917705  0.80612995  1  0.119497  0.000517  0.099925  0.108666  0.000276  1.046277  0.0
H  H87  1  0.54205965  0.35082333  0.19386978  1  0.119507  0.000517  0.099928  0.108662  0.000276  1.046283  0.0
H  H88  1  0.93698258  0.25890625  0.18783763  1  0.123763  0.001768  0.121403  0.091779  0.000355  1.010925  0.002
H  H89  1  0.43698101  0.74109272  0.81216230  1  0.12379  0.001768  0.121413  0.091818  0.000355  1.010875  0.002
H  H90  1  0.68698138  0.31216200  0.75890710  1  0.123989  0.001769  0.121414  0.091824  0.000355  1.010876  0.002
H  H91  1  0.18698053  0.68783945  0.24109306  1  0.123835  0.001768  0.121403  0.091798  0.000355  1.010912  0.002
H  H92  1  0.81301864  0.24109276  0.68783838  1  0.123796  0.001768  0.121419  0.091821  0.000355  1.010879  0.002
H  H93  1  0.31301896  0.75890687  0.31216284  1  0.123965  0.001769  0.121418  0.091812  0.000355  1.010899  0.002
H  H94  1  0.06301837  0.18783736  0.25890725  1  0.123993  0.001769  0.121419  0.091827  0.000355  1.010861  0.002
H  H95  1  0.56301952  0.81216183  0.74109304  1  0.123979  0.001769  0.121415  0.091815  0.000355  1.010878  0.002
H  H96  1  0.37107377  0.70291291  0.62010023  1  0.113947  0.002726  0.11471  0.076022  0.001125  1.012435  0.002
H  H97  1  0.87107312  0.29708668  0.37989918  1  0.113956  0.002726  0.1147  0.076016  0.001125  1.012417  0.002
H  H98  1  0.12107442  0.87989850  0.20291339  1  0.113934  0.002726  0.114747  0.076106  0.001125  1.012463  0.002
H  H99  1  0.62107406  0.12010183  0.79708626  1  0.113941  0.002726  0.114718  0.076056  0.001125  1.012425  0.002
H  H100  1  0.37892643  0.79708770  0.12010074  1  0.113938  0.002726  0.114733  0.076097  0.001125  1.01248  0.002
H  H101  1  0.87892591  0.20291305  0.87989749  1  0.113933  0.002726  0.114755  0.076151  0.001125  1.012414  0.002
H  H102  1  0.62892763  0.62010159  0.70291257  1  0.113957  0.002726  0.114708  0.076074  0.001125  1.012397  0.002
H  H103  1  0.12892695  0.37989815  0.29708707  1  0.11395  0.002727  0.114706  0.076051  0.001125  1.012418  0.002
C  C104  1  0.15282013  0.74268797  0.51511690  1  -0.02305  0.004535  0.003834  0.028072  0.002251  3.935587  0.004
C  C105  1  0.65282005  0.25731117  0.48488272  1  -0.023043  0.004535  0.00385  0.028018  0.002251  3.935728  0.004
C  C106  1  0.90282010  0.98488283  0.24268869  1  -0.023045  0.004535  0.003832  0.028036  0.002251  3.935588  0.004
C  C107  1  0.40281979  0.01511732  0.75731185  1  -0.023023  0.004535  0.003846  0.028067  0.002251  3.935589  0.004
C  C108  1  0.59717889  0.75731140  0.01511775  1  -0.023033  0.004535  0.003799  0.027937  0.002251  3.935614  0.004
C  C109  1  0.09718009  0.24268719  0.98488250  1  -0.023103  0.004535  0.003874  0.02809  0.002251  3.935575  0.004
C  C110  1  0.84718003  0.51511757  0.74268865  1  -0.023044  0.004535  0.003841  0.028057  0.002251  3.935699  0.004
C  C111  1  0.34717996  0.48488204  0.25731078  1  -0.02302  0.004535  0.003792  0.027943  0.002251  3.935633  0.004
C  C112  1  0.04615334  0.75314834  0.39753479  1  1.548639  -0.00208  0.198652  0.55432  -0.003225  4.186622  -0.004
C  C113  1  0.54615247  0.24685087  0.60246551  1  1.54865  -0.002079  0.198598  0.55426  -0.003224  4.186702  -0.004
C  C114  1  0.79615357  0.10246537  0.25314939  1  1.548643  -0.002079  0.198626  0.554265  -0.003224  4.18668  -0.004
C  C115  1  0.29615131  0.89753544  0.74685184  1  1.548831  -0.00208  0.198614  0.554343  -0.003224  4.186632  -0.004
C  C116  1  0.70384653  0.74685131  0.89753458  1  1.548646  -0.00208  0.198632  0.55432  -0.003225  4.186581  -0.004
C  C117  1  0.20384877  0.25314838  0.10246441  1  1.548841  -0.00208  0.198623  0.55437  -0.003224  4.186579  -0.004
C  C118  1  0.95384692  0.39753486  0.75314895  1  1.548762  -0.002079  0.198607  0.554259  -0.003224  4.186618  -0.004
C  C119  1  0.45384678  0.60246527  0.24685097  1  1.548756  -0.002079  0.198629  0.554321  -0.003224  4.186628  -0.004
C  C120  1  0.09318808  0.77505718  0.64548117  1  -0.106897  0.00101  -0.078483  -0.144215  0.000186  3.930362  0.001
C  C121  1  0.59318687  0.22494316  0.35451850  1  -0.106976  0.001011  -0.078496  -0.144228  0.000186  3.930396  0.001
C  C122  1  0.84318751  0.85451813  0.27505726  1  -0.106977  0.001011  -0.078471  -0.144164  0.000186  3.930373  0.001
C  C123  1  0.34318584  0.14548207  0.72494451  1  -0.107044  0.001011  -0.078488  -0.144179  0.000186  3.930414  0.001
C  C124  1  0.65681274  0.72494228  0.14548136  1  -0.106876  0.00101  -0.078479  -0.144259  0.000186  3.930285  0.001
C  C125  1  0.15681408  0.27505511  0.85451767  1  -0.10712  0.001011  -0.078513  -0.144223  0.000186  3.930457  0.001
C  C126  1  0.90681453  0.64548171  0.77505609  1  -0.106979  0.00101  -0.078544  -0.144336  0.000186  3.930386  0.001
C  C127  1  0.40681395  0.35451844  0.22494212  1  -0.106752  0.00101  -0.078551  -0.144293  0.000186  3.930344  0.001
C  C128  1  0.83001912  0.41625993  0.24427386  1  0.35706  -0.001197  0.110902  0.196065  -0.001856  3.975376  -0.001
C  C129  1  0.33001904  0.58373911  0.75572500  1  0.357059  -0.001197  0.110965  0.196175  -0.001856  3.975272  -0.001
C  C130  1  0.58001860  0.25572542  0.91626085  1  0.357045  -0.001197  0.110978  0.196184  -0.001857  3.975262  -0.001
C  C131  1  0.08001855  0.74427376  0.08373942  1  0.357058  -0.001197  0.110943  0.196162  -0.001856  3.975115  -0.001
C  C132  1  0.91998138  0.08373854  0.74427439  1  0.357046  -0.001197  0.110928  0.196115  -0.001856  3.975192  -0.001
C  C133  1  0.41998164  0.91626102  0.25572672  1  0.356843  -0.001197  0.110961  0.196211  -0.001857  3.975282  -0.001
C  C134  1  0.16998162  0.24427523  0.41626094  1  0.357034  -0.001197  0.110963  0.196199  -0.001856  3.97528  -0.001
C  C135  1  0.66998169  0.75572624  0.58373808  1  0.357139  -0.001197  0.110941  0.196182  -0.001857  3.975115  -0.001
C  C136  1  0.22601756  0.71751154  0.47134368  1  -0.023472  -0.006436  -0.066817  -0.072921  -0.007043  3.93023  -0.004
C  C137  1  0.72601740  0.28248873  0.52865645  1  -0.02347  -0.006435  -0.066809  -0.072844  -0.007043  3.930243  -0.004
C  C138  1  0.97601786  0.02865635  0.21751189  1  -0.023496  -0.006436  -0.06682  -0.072931  -0.007043  3.930221  -0.004
C  C139  1  0.47601877  0.97134376  0.78248800  1  -0.023472  -0.006436  -0.066809  -0.07292  -0.007043  3.930251  -0.004
C  C140  1  0.52398222  0.78248875  0.97134425  1  -0.023475  -0.006435  -0.066813  -0.072903  -0.007043  3.930181  -0.004
C  C141  1  0.02398132  0.21751163  0.02865549  1  -0.023489  -0.006435  -0.066847  -0.072923  -0.007042  3.930294  -0.004
C  C142  1  0.77398267  0.47134443  0.71751109  1  -0.023479  -0.006435  -0.066829  -0.072913  -0.007042  3.930251  -0.004
C  C143  1  0.27398124  0.52865581  0.28248782  1  -0.023462  -0.006436  -0.066812  -0.072925  -0.007044  3.9302  -0.004
C  C144  1  0.89418396  0.47594961  0.23235424  1  0.048046  0.005888  0.002565  0.023846  0.002944  3.952269  0.005
C  C145  1  0.39418391  0.52404939  0.76764573  1  0.04805  0.005888  0.002438  0.02372  0.002944  3.952313  0.005
C  C146  1  0.64418406  0.26764620  0.97595057  1  0.04808  0.005888  0.002468  0.023786  0.002944  3.952257  0.005
C  C147  1  0.14418344  0.73235528  0.02404964  1  0.048078  0.005887  0.002533  0.023798  0.002944  3.952285  0.005
C  C148  1  0.85581655  0.02404885  0.73235420  1  0.048068  0.005888  0.002473  0.023817  0.002944  3.952272  0.005
C  C149  1  0.35581611  0.97595075  0.26764639  1  0.048071  0.005888  0.002457  0.023713  0.002944  3.952295  0.005
C  C150  1  0.10581608  0.23235508  0.47595071  1  0.048103  0.005888  0.002418  0.023673  0.002944  3.952283  0.005
C  C151  1  0.60581557  0.76764584  0.52404837  1  0.048082  0.005888  0.002433  0.02364  0.002944  3.952398  0.005
C  C152  1  0.72463335  0.51348887  0.28476256  1  -0.048496  -0.002527  -0.078177  -0.053232  -0.002888  3.988718  -0.002
C  C153  1  0.22463404  0.48651081  0.71523582  1  -0.047852  -0.002527  -0.078222  -0.053328  -0.002888  3.988784  -0.002
C  C154  1  0.47463410  0.21523595  0.01348905  1  -0.047873  -0.002527  -0.078214  -0.0533  -0.002888  3.988751  -0.002
C  C155  1  0.97463302  0.78476241  0.98651201  1  -0.048293  -0.002526  -0.078214  -0.053257  -0.002887  3.988815  -0.002
C  C156  1  0.02536600  0.98651128  0.78476377  1  -0.047859  -0.002527  -0.078159  -0.053105  -0.002888  3.98876  -0.002
C  C157  1  0.52536706  0.01348969  0.21523772  1  -0.048188  -0.002527  -0.078169  -0.053211  -0.002888  3.98866  -0.002
C  C158  1  0.27536595  0.28476499  0.51348869  1  -0.047831  -0.002527  -0.078205  -0.053266  -0.002888  3.988777  -0.002
C  C159  1  0.77536617  0.71523641  0.48651022  1  -0.04786  -0.002527  -0.078166  -0.053167  -0.002888  3.988724  -0.002
C  C160  1  0.93700000  0.61938485  0.24704694  1  1.557934  -0.001224  0.200996  0.558833  -0.002114  4.201514  -0.003
C  C161  1  0.43700138  0.38061470  0.75295357  1  1.55794  -0.001224  0.200969  0.558773  -0.002113  4.201497  -0.003
C  C162  1  0.68700133  0.25295380  0.11938508  1  1.557935  -0.001225  0.200952  0.558763  -0.002114  4.201423  -0.003
C  C163  1  0.18700098  0.74704824  0.88061392  1  1.557954  -0.001224  0.201056  0.558926  -0.002114  4.201432  -0.003
C  C164  1  0.81299817  0.88061380  0.74704837  1  1.557986  -0.001225  0.201078  0.558951  -0.002114  4.201431  -0.003
C  C165  1  0.31299903  0.11938583  0.25295168  1  1.55795  -0.001224  0.201059  0.558908  -0.002114  4.201451  -0.003
C  C166  1  0.06299728  0.24704838  0.61938549  1  1.55807  -0.001224  0.201113  0.558998  -0.002114  4.201342  -0.003
C  C167  1  0.56299825  0.75295198  0.38061422  1  1.557951  -0.001225  0.201128  0.559027  -0.002114  4.201329  -0.003
C  C168  1  0.74557095  0.43635682  0.27096735  1  0.039232  0.006398  -0.082709  -0.16229  0.003326  3.95109  0.005
C  C169  1  0.24557157  0.56364168  0.72903101  1  0.03874  0.006399  -0.082672  -0.162266  0.003326  3.951151  0.005
C  C170  1  0.49557175  0.22903087  0.93635833  1  0.038733  0.006399  -0.08268  -0.162301  0.003326  3.951172  0.005
C  C171  1  0.99556983  0.77096748  0.06364212  1  0.039194  0.006397  -0.082629  -0.162216  0.003325  3.951121  0.005
C  C172  1  0.00442879  0.06364139  0.77096885  1  0.038729  0.006398  -0.082714  -0.162401  0.003326  3.951196  0.005
C  C173  1  0.50442785  0.93635784  0.22903325  1  0.03914  0.006398  -0.082697  -0.162342  0.003326  3.951135  0.005
C  C174  1  0.25442844  0.27096922  0.43635777  1  0.038721  0.006399  -0.082694  -0.162307  0.003326  3.95116  0.005
C  C175  1  0.75442921  0.72903220  0.56364116  1  0.038764  0.006398  -0.082717  -0.162365  0.003325  3.951156  0.005
C  C176  1  0.97571339  0.45374009  0.20042706  1  -0.013273  -0.010037  -0.063952  -0.069529  -0.01074  3.928691  -0.006
C  C177  1  0.47571394  0.54625944  0.79957283  1  -0.013226  -0.010037  -0.063874  -0.069378  -0.01074  3.928534  -0.006
C  C178  1  0.72571412  0.29957328  0.95374104  1  -0.013089  -0.010037  -0.063909  -0.069448  -0.01074  3.928613  -0.006
C  C179  1  0.22571350  0.70042932  0.04625967  1  -0.01307  -0.010034  -0.063905  -0.06947  -0.010737  3.928592  -0.006
C  C180  1  0.77428651  0.04625893  0.70042653  1  -0.013234  -0.010038  -0.063896  -0.069423  -0.010741  3.928586  -0.006
C  C181  1  0.27428735  0.95374130  0.29957356  1  -0.013292  -0.010038  -0.063887  -0.069426  -0.010741  3.928623  -0.006
C  C182  1  0.02428605  0.20042740  0.45374124  1  -0.013114  -0.010037  -0.06388  -0.069367  -0.01074  3.928602  -0.006
C  C183  1  0.52428614  0.79957357  0.54625909  1  -0.013087  -0.010038  -0.063926  -0.069461  -0.010741  3.928669  -0.006
C  C184  1  0.87151623  0.55489474  0.25000510  1  -0.098895  0.000536  -0.007943  -0.060755  -0.000267  3.942113  0.0
C  C185  1  0.37151821  0.44510426  0.74999489  1  -0.098937  0.000536  -0.007833  -0.060607  -0.000267  3.941978  0.0
C  C186  1  0.62151823  0.24999506  0.05489611  1  -0.098924  0.000536  -0.007837  -0.060657  -0.000267  3.941979  0.0
C  C187  1  0.12151650  0.75000644  0.94510412  1  -0.098903  0.000537  -0.007957  -0.060782  -0.000266  3.942199  0.0
C  C188  1  0.87848129  0.94510391  0.75000651  1  -0.098962  0.000537  -0.007881  -0.060771  -0.000267  3.94216  0.0
C  C189  1  0.37848351  0.05489626  0.24999405  1  -0.098902  0.000536  -0.007905  -0.0607  -0.000267  3.942124  0.0
C  C190  1  0.12848111  0.25000766  0.55489587  1  -0.098953  0.000537  -0.007807  -0.060585  -0.000267  3.942034  0.0
C  C191  1  0.62848136  0.74999383  0.44510318  1  -0.098944  0.000536  -0.007935  -0.06071  -0.000267  3.942122  0.0
C  C192  1  0.99132635  0.37637504  0.18315634  1  -0.053099  0.005654  -0.091751  -0.140871  0.002553  4.001987  0.005
C  C193  1  0.49132551  0.62362506  0.81684353  1  -0.053199  0.005654  -0.091786  -0.140983  0.002553  4.001946  0.005
C  C194  1  0.74132577  0.31684392  0.87637538  1  -0.053362  0.005654  -0.091771  -0.140936  0.002553  4.002005  0.005
C  C195  1  0.24132572  0.68315867  0.12362532  1  -0.053003  0.005653  -0.091746  -0.140841  0.002553  4.001921  0.005
C  C196  1  0.75867422  0.12362455  0.68315647  1  -0.053207  0.005654  -0.091789  -0.140985  0.002553  4.001966  0.005
C  C197  1  0.25867510  0.87637570  0.31684422  1  -0.053143  0.005654  -0.0918  -0.14093  0.002553  4.001929  0.005
C  C198  1  0.00867449  0.18315670  0.37637557  1  -0.053343  0.005654  -0.091789  -0.140979  0.002553  4.002054  0.005
C  C199  1  0.50867512  0.81684428  0.62362476  1  -0.053371  0.005654  -0.091753  -0.140854  0.002553  4.002007  0.005
C  C200  1  0.06861180  0.75860103  0.48241494  1  -0.010194  0.001318  -0.015074  -0.07862  0.000561  3.940831  0.001
C  C201  1  0.56861169  0.24139874  0.51758475  1  -0.010198  0.001318  -0.01507  -0.078621  0.000562  3.94085  0.001
C  C202  1  0.81861276  0.01758467  0.25860085  1  -0.010192  0.001318  -0.015026  -0.078492  0.000561  3.940813  0.001
C  C203  1  0.31861175  0.98241496  0.74140036  1  -0.010172  0.001318  -0.015108  -0.078703  0.000562  3.940911  0.001
C  C204  1  0.68138862  0.74139927  0.98241533  1  -0.010144  0.001318  -0.015015  -0.078522  0.000562  3.9407  0.001
C  C205  1  0.18138835  0.25859986  0.01758426  1  -0.010075  0.001318  -0.015094  -0.078659  0.000562  3.94089  0.001
C  C206  1  0.93138838  0.48241556  0.75860049  1  -0.010182  0.001318  -0.015093  -0.078599  0.000562  3.940806  0.001
C  C207  1  0.43138831  0.51758516  0.24139886  1  -0.010197  0.001318  -0.015075  -0.078618  0.000561  3.940868  0.001
C  C208  1  0.78757308  0.57240661  0.27392145  1  0.01697  0.003233  -0.073985  -0.083143  0.001599  3.954489  0.002
C  C209  1  0.28757511  0.42759245  0.72607804  1  0.01683  0.003233  -0.073944  -0.08308  0.001599  3.954304  0.002
C  C210  1  0.53757446  0.22607822  0.07240798  1  0.016823  0.003233  -0.073974  -0.083092  0.001599  3.954302  0.002
C  C211  1  0.03757403  0.77392158  0.92759233  1  0.016778  0.003233  -0.073981  -0.083145  0.001599  3.954334  0.002
C  C212  1  0.96242505  0.92759206  0.77392219  1  0.016819  0.003233  -0.073981  -0.083176  0.001599  3.954379  0.002
C  C213  1  0.46242599  0.07240806  0.22607830  1  0.016769  0.003233  -0.073958  -0.083117  0.001599  3.954417  0.002
C  C214  1  0.21242487  0.27392393  0.57240827  1  0.016823  0.003233  -0.074016  -0.083214  0.001599  3.954451  0.002
C  C215  1  0.71242515  0.72607751  0.42759129  1  0.016815  0.003233  -0.073959  -0.083131  0.001599  3.954332  0.002
C  C216  1  0.00124665  0.78142834  0.53143763  1  -0.068883  0.000843  -0.075974  -0.080184  0.00021  3.964779  0.001
C  C217  1  0.50124596  0.21857206  0.46856272  1  -0.068812  0.000844  -0.075969  -0.080167  0.000211  3.964734  0.001
C  C218  1  0.75124663  0.96856285  0.28142735  1  -0.068846  0.000844  -0.075987  -0.08021  0.000211  3.964832  0.001
C  C219  1  0.25124570  0.03143798  0.71857334  1  -0.068862  0.000844  -0.075956  -0.080155  0.000211  3.964728  0.001
C  C220  1  0.74875430  0.71857220  0.03143713  1  -0.068915  0.000843  -0.075985  -0.080213  0.00021  3.964785  0.001
C  C221  1  0.24875419  0.28142747  0.96856181  1  -0.068821  0.000844  -0.075963  -0.080157  0.000211  3.96474  0.001
C  C222  1  0.99875476  0.53143699  0.78142835  1  -0.068863  0.000843  -0.075975  -0.0802  0.00021  3.964763  0.001
C  C223  1  0.49875475  0.46856310  0.21857210  1  -0.068836  0.000843  -0.075981  -0.080239  0.00021  3.964693  0.001
C  C224  1  0.16407866  0.75185032  0.59809756  1  0.435405  0.000102  0.11237  0.200401  -0.000652  3.949033  0.0
C  C225  1  0.66407803  0.24814940  0.40190205  1  0.435419  0.000102  0.112416  0.200531  -0.000653  3.948968  0.0
C  C226  1  0.91407871  0.90190164  0.25184982  1  0.43543  0.000102  0.112382  0.200434  -0.000653  3.949029  0.0
C  C227  1  0.41407835  0.09809851  0.74815013  1  0.435442  0.000102  0.112368  0.200399  -0.000652  3.949083  0.0
C  C228  1  0.58592091  0.74814911  0.09809783  1  0.435376  0.000102  0.11236  0.200494  -0.000652  3.94907  0.0
C  C229  1  0.08592221  0.25184891  0.90190068  1  0.435445  0.000102  0.112374  0.200424  -0.000652  3.949085  0.0
C  C230  1  0.83592272  0.59809818  0.75185043  1  0.435422  0.000102  0.11243  0.200541  -0.000652  3.949075  0.0
C  C231  1  0.33592272  0.40190143  0.24814842  1  0.435231  0.000102  0.112411  0.200562  -0.000652  3.949029  0.0
C  C232  1  0.30457412  0.70401708  0.50815646  1  0.009478  0.004792  -0.087431  -0.134127  0.002155  3.982015  0.004
C  C233  1  0.80457334  0.29598313  0.49184302  1  0.009483  0.004792  -0.08743  -0.134147  0.002155  3.982011  0.004
C  C234  1  0.05457205  0.99184285  0.20401707  1  0.009506  0.004792  -0.087412  -0.13405  0.002155  3.981932  0.004
C  C235  1  0.55457308  0.00815752  0.79598264  1  0.009487  0.004792  -0.087406  -0.134009  0.002155  3.981974  0.004
C  C236  1  0.44542622  0.79598286  0.00815748  1  0.009491  0.004792  -0.087409  -0.134062  0.002155  3.982005  0.004
C  C237  1  0.94542752  0.20401669  0.99184244  1  0.00949  0.004792  -0.087362  -0.133895  0.002155  3.982065  0.004
C  C238  1  0.69542739  0.50815783  0.70401669  1  0.009499  0.004792  -0.087411  -0.134077  0.002155  3.982008  0.004
C  C239  1  0.19542663  0.49184245  0.29598230  1  0.00949  0.004792  -0.087403  -0.134016  0.002155  3.981962  0.004
C  C240  1  0.01286815  0.78925468  0.61245339  1  0.041699  -0.000935  -0.086176  -0.062429  -0.00129  3.99252  0.0
C  C241  1  0.51286691  0.21074630  0.38754578  1  0.041646  -0.000935  -0.086171  -0.06243  -0.00129  3.992475  0.0
C  C242  1  0.76286755  0.88754655  0.28925363  1  0.041661  -0.000935  -0.086206  -0.062522  -0.00129  3.992524  0.0
C  C243  1  0.26286722  0.11245427  0.71074880  1  0.041748  -0.000935  -0.086176  -0.06254  -0.00129  3.99251  0.0
C  C244  1  0.73713271  0.71074534  0.11245290  1  0.041696  -0.000934  -0.086157  -0.062381  -0.00129  3.992401  0.0
C  C245  1  0.23713269  0.28925200  0.88754488  1  0.041701  -0.000935  -0.086176  -0.062515  -0.00129  3.992494  0.0
C  C246  1  0.98713383  0.61245388  0.78925295  1  0.041631  -0.000934  -0.086134  -0.062373  -0.00129  3.992411  0.0
C  C247  1  0.48713389  0.38754622  0.21074693  1  0.041656  -0.000935  -0.086117  -0.062361  -0.00129  3.992322  0.0
C  C248  1  0.92653983  0.32079968  0.19941042  1  0.473498  -0.008226  0.055108  0.10862  -0.008757  3.945051  -0.005
C  C249  1  0.42653898  0.67919929  0.80058952  1  0.473572  -0.008225  0.055089  0.108588  -0.008756  3.945107  -0.005
C  C250  1  0.67653929  0.30058986  0.82080115  1  0.473579  -0.008225  0.055095  0.108575  -0.008756  3.945112  -0.005
C  C251  1  0.17653850  0.69941219  0.17920019  1  0.473591  -0.008223  0.055089  0.108564  -0.008754  3.945073  -0.005
C  C252  1  0.82346072  0.17919875  0.69941053  1  0.473581  -0.008226  0.055087  0.108588  -0.008757  3.945085  -0.005
C  C253  1  0.32346101  0.82080029  0.30059068  1  0.473576  -0.008227  0.055112  0.108619  -0.008758  3.945045  -0.005
C  C254  1  0.07346104  0.19941014  0.32080130  1  0.473581  -0.008225  0.055112  0.108612  -0.008756  3.945086  -0.005
C  C255  1  0.57346162  0.80059022  0.67919898  1  0.473595  -0.008226  0.055109  0.10859  -0.008757  3.945134  -0.005
C  C256  1  0.31002708  0.71417678  0.58942214  1  0.440916  -0.005464  0.050906  0.102907  -0.005963  3.970197  -0.003
C  C257  1  0.81002641  0.28582227  0.41057733  1  0.440914  -0.005464  0.050937  0.102939  -0.005963  3.970175  -0.003
C  C258  1  0.06002705  0.91057663  0.21417671  1  0.440908  -0.005465  0.05086  0.102766  -0.005965  3.970326  -0.003
C  C259  1  0.56002738  0.08942315  0.78582241  1  0.440895  -0.005465  0.050873  0.102783  -0.005964  3.970205  -0.003
C  C260  1  0.43997315  0.78582323  0.08942316  1  0.440894  -0.005464  0.050862  0.102766  -0.005963  3.970351  -0.003
C  C261  1  0.93997324  0.21417632  0.91057618  1  0.44073  -0.005464  0.050815  0.102611  -0.005963  3.970389  -0.003
C  C262  1  0.68997434  0.58942346  0.71417640  1  0.440726  -0.005463  0.050849  0.102759  -0.005963  3.970276  -0.003
C  C263  1  0.18997364  0.41057624  0.28582202  1  0.440734  -0.005465  0.050883  0.102803  -0.005964  3.970231  -0.003
N  N264  1  0.24322757  0.73728145  0.63349491  1  -1.225172  0.062211  -0.328774  -0.30337  0.033491  3.581075  0.048
N  N265  1  0.74322697  0.26271822  0.36650462  1  -1.225196  0.062213  -0.328806  -0.303417  0.033491  3.581088  0.048
N  N266  1  0.99322700  0.86650424  0.23728148  1  -1.225222  0.062215  -0.328776  -0.30336  0.033491  3.581122  0.048
N  N267  1  0.49322660  0.13349586  0.76271839  1  -1.22522  0.062217  -0.328732  -0.303267  0.033491  3.581101  0.048
N  N268  1  0.50677261  0.76271859  0.13349585  1  -1.225182  0.062213  -0.32875  -0.303331  0.03349  3.581099  0.048
N  N269  1  0.00677331  0.23728123  0.86650332  1  -1.22506  0.062214  -0.328737  -0.303278  0.033491  3.581148  0.048
N  N270  1  0.75677379  0.63349557  0.73728161  1  -1.225038  0.062213  -0.328748  -0.303357  0.033491  3.581117  0.048
N  N271  1  0.25677315  0.36650409  0.26271732  1  -1.225065  0.062214  -0.328758  -0.303365  0.033491  3.58116  0.048
N  N272  1  0.84898091  0.33912787  0.22916132  1  -1.238687  0.061408  -0.337729  -0.3022  0.033384  3.612847  0.046
N  N273  1  0.34898076  0.66087115  0.77083810  1  -1.238681  0.061407  -0.337776  -0.302312  0.033385  3.612889  0.046
N  N274  1  0.59898039  0.27083846  0.83912876  1  -1.238679  0.061408  -0.337767  -0.302278  0.033384  3.61287  0.046
N  N275  1  0.09898026  0.72916071  0.16087150  1  -1.238794  0.061406  -0.337788  -0.302308  0.033384  3.61288  0.046
N  N276  1  0.90101961  0.16087117  0.72916134  1  -1.238663  0.061405  -0.337753  -0.302229  0.033383  3.612823  0.046
N  N277  1  0.40101991  0.83912899  0.27083921  1  -1.238487  0.061406  -0.337763  -0.302293  0.033384  3.612847  0.046
N  N278  1  0.15101927  0.22916155  0.33912943  1  -1.238665  0.061405  -0.337771  -0.302303  0.033384  3.612866  0.046
N  N279  1  0.65101989  0.77083935  0.66087077  1  -1.238741  0.061404  -0.337769  -0.302283  0.033384  3.612807  0.046
O  O280  1  0.10589677  0.75021059  0.34414671  1  -1.160166  0.09208  -0.318239  -0.55038  0.047674  2.283242  0.075
O  O281  1  0.60589583  0.24978975  0.65585353  1  -1.160131  0.092084  -0.318191  -0.550322  0.047676  2.283252  0.075
O  O282  1  0.85589695  0.15585278  0.25021050  1  -1.160109  0.092079  -0.31821  -0.550298  0.047674  2.283272  0.075
O  O283  1  0.35589472  0.84414741  0.74979009  1  -1.160262  0.092086  -0.318198  -0.550319  0.047675  2.283227  0.075
O  O284  1  0.64410316  0.74978902  0.84414656  1  -1.160119  0.092081  -0.318245  -0.550386  0.047675  2.283223  0.075
O  O285  1  0.14410535  0.25020954  0.15585248  1  -1.160255  0.092085  -0.318216  -0.550358  0.047676  2.283197  0.075
O  O286  1  0.89410290  0.34414745  0.75021066  1  -1.160126  0.092083  -0.318226  -0.550343  0.047677  2.283248  0.075
O  O287  1  0.39410271  0.65585330  0.24978931  1  -1.160115  0.092082  -0.318246  -0.550378  0.047676  2.283214  0.075
O  O288  1  0.96684355  0.75343009  0.37722552  1  -1.142065  0.060866  -0.304516  -0.528086  0.030712  2.200044  0.054
O  O289  1  0.46684323  0.24657003  0.62277496  1  -1.142087  0.060864  -0.304508  -0.528072  0.030711  2.200084  0.054
O  O290  1  0.71684368  0.12277479  0.25343030  1  -1.142056  0.060865  -0.304543  -0.528144  0.030712  2.200054  0.054
O  O291  1  0.21684078  0.87722606  0.74657101  1  -1.142148  0.060866  -0.304534  -0.528164  0.030712  2.200055  0.054
O  O292  1  0.78315642  0.74656924  0.87722513  1  -1.142058  0.060867  -0.304509  -0.528106  0.030713  2.20004  0.054
O  O293  1  0.28315929  0.25342923  0.12277378  1  -1.142148  0.060866  -0.304538  -0.528179  0.030712  2.200043  0.054
O  O294  1  0.03315608  0.37722457  0.75343083  1  -1.142186  0.060866  -0.30451  -0.528093  0.030712  2.20006  0.054
O  O295  1  0.53315601  0.62277523  0.24657007  1  -1.142179  0.060865  -0.304505  -0.528095  0.030712  2.200082  0.054
O  O296  1  0.01548806  0.60875075  0.26609960  1  -1.145755  0.05277  -0.305381  -0.53686  0.026389  2.15614  0.046
O  O297  1  0.51548888  0.39124906  0.73390131  1  -1.145793  0.052768  -0.305394  -0.536883  0.026389  2.156129  0.046
O  O298  1  0.76548884  0.23390097  0.10875122  1  -1.145788  0.052769  -0.305393  -0.536882  0.026389  2.156119  0.046
O  O299  1  0.26548912  0.76610102  0.89124829  1  -1.145804  0.05277  -0.30543  -0.536915  0.02639  2.156093  0.046
O  O300  1  0.73451000  0.89124764  0.76610122  1  -1.145837  0.052772  -0.305437  -0.536905  0.026391  2.156121  0.046
O  O301  1  0.23451025  0.10875204  0.23389890  1  -1.145809  0.05277  -0.305442  -0.536918  0.02639  2.156064  0.046
O  O302  1  0.98450921  0.26610148  0.60875240  1  -1.14588  0.052772  -0.305428  -0.536923  0.026391  2.156108  0.046
O  O303  1  0.48451010  0.73389862  0.39124806  1  -1.145839  0.052772  -0.305436  -0.536926  0.026391  2.1561  0.046
O  O304  1  0.90893988  0.68799280  0.22771213  1  -1.144627  0.095787  -0.316833  -0.543532  0.049735  2.330147  0.077
O  O305  1  0.40894194  0.31200794  0.77229074  1  -1.14461  0.095789  -0.316843  -0.543527  0.049736  2.330177  0.077
O  O306  1  0.65894183  0.27229042  0.18799251  1  -1.144634  0.095789  -0.316846  -0.543525  0.049737  2.330111  0.077
O  O307  1  0.15894092  0.72771281  0.81200710  1  -1.144599  0.095783  -0.316883  -0.543626  0.049736  2.330184  0.077
O  O308  1  0.84105831  0.81200700  0.72771290  1  -1.144589  0.095783  -0.316877  -0.543619  0.049736  2.330203  0.077
O  O309  1  0.34105845  0.18799319  0.27228712  1  -1.144603  0.095786  -0.31689  -0.543643  0.049738  2.330238  0.077
O  O310  1  0.09105736  0.22771298  0.68799229  1  -1.144647  0.095792  -0.316934  -0.543689  0.049737  2.330123  0.077
O  O311  1  0.59105839  0.77228736  0.31200680  1  -1.144601  0.095789  -0.316884  -0.543646  0.049737  2.330189  0.077
