# generated using pymatgen
data_CdH9C10NO8
_symmetry_space_group_name_H-M   'P 1'
_cell_length_a   4.98543345
_cell_length_b   11.04976523
_cell_length_c   11.83238869
_cell_angle_alpha   113.79644576
_cell_angle_beta   92.55001120
_cell_angle_gamma   92.05339548
_symmetry_Int_Tables_number   1
_chemical_formula_structural   CdH9C10NO8
_chemical_formula_sum   'Cd2 H18 C20 N2 O16'
_cell_volume   594.78350741
_cell_formula_units_Z   2
loop_
 _symmetry_equiv_pos_site_id
 _symmetry_equiv_pos_as_xyz
  1  'x, y, z'
loop_
 _atom_site_type_symbol
 _atom_site_label
 _atom_site_symmetry_multiplicity
 _atom_site_fract_x
 _atom_site_fract_y
 _atom_site_fract_z
 _atom_site_occupancy
 _atom_site_hle17_bader_spin_density
 _atom_site_hle17_ddec_charge
 _atom_site_hle17_ddec_spin_density
 _atom_site_hle17_ddec_sum_bond_order
 _atom_site_hle17_magmom
 _atom_site_hse06_10hf_bader_spin_density
 _atom_site_hse06_10hf_ddec_charge
 _atom_site_hse06_10hf_ddec_spin_density
 _atom_site_hse06_10hf_ddec_sum_bond_order
 _atom_site_hse06_10hf_magmom
 _atom_site_hse06_bader_spin_density
 _atom_site_hse06_ddec_charge
 _atom_site_hse06_ddec_spin_density
 _atom_site_hse06_ddec_sum_bond_order
 _atom_site_hse06_magmom
 _atom_site_pbe_bader_spin_density
 _atom_site_pbe_cm5_charge
 _atom_site_pbe_ddec_charge
 _atom_site_pbe_ddec_spin_density
 _atom_site_pbe_ddec_sum_bond_order
 _atom_site_pbe_magmom
Cd  Cd0  1  0.54162969  0.12101725  0.77925630  1  0  1.270379  0  1.539343  0  0  1.098021  0  1.978876  0  0  1.15839  0  1.917037  0  0  0.780186  1.054398  0  2.021673  0
Cd  Cd1  1  0.45836657  0.87898288  0.22074546  1  0  1.270368  0  1.539303  0  0  1.098016  0  1.978834  0  0  1.158383  0  1.916996  0  0  0.780176  1.054393  0  2.021632  0
H  H2  1  0.01628755  0.04503750  0.63861059  1  0  0.420334  0  0.888121  0  0  0.387072  0  0.956357  0  0  0.397729  0  0.940836  0  0  0.288964  0.379588  0  0.967229  0
H  H3  1  0.98371072  0.95496263  0.36139122  1  0  0.420297  0  0.888179  0  0  0.387032  0  0.956421  0  0  0.397687  0  0.940904  0  0  0.288932  0.379547  0  0.967294  0
H  H4  1  0.78777031  0.07123312  0.55658966  1  0  0.419377  0  0.88493  0  0  0.388691  0  0.947566  0  0  0.399739  0  0.931649  0  0  0.289639  0.380871  0  0.958826  0
H  H5  1  0.21222807  0.92876800  0.44341252  1  0  0.419359  0  0.884947  0  0  0.388675  0  0.947587  0  0  0.399727  0  0.931663  0  0  0.289622  0.380855  0  0.958846  0
H  H6  1  0.03270930  0.43049634  0.05959083  1  0  0.137275  0  0.967483  0  0  0.14073  0  1.035104  0  0  0.145579  0  1.029633  0  0  0.135331  0.137107  0  1.039097  0
H  H7  1  0.96728891  0.56950279  0.94040723  1  0  0.137262  0  0.967505  0  0  0.14073  0  1.035111  0  0  0.145577  0  1.029644  0  0  0.135344  0.137111  0  1.039104  0
H  H8  1  0.59395156  0.56715309  0.39240300  1  0  0.13712  0  0.944189  0  0  0.142589  0  1.012358  0  0  0.147429  0  1.007215  0  0  0.120216  0.139039  0  1.016186  0
H  H9  1  0.40604863  0.43284605  0.60759679  1  0  0.137108  0  0.944187  0  0  0.142576  0  1.012354  0  0  0.147415  0  1.007214  0  0  0.120203  0.139025  0  1.016182  0
H  H10  1  0.05279277  0.21586684  0.27821087  1  0  0.137313  0  0.95138  0  0  0.142178  0  1.018357  0  0  0.146334  0  1.014281  0  0  0.135798  0.139038  0  1.021565  0
H  H11  1  0.94720956  0.78413329  0.72178850  1  0  0.137321  0  0.951379  0  0  0.142187  0  1.018355  0  0  0.146343  0  1.014278  0  0  0.13579  0.139047  0  1.021561  0
H  H12  1  0.27648135  0.15367349  0.11564043  1  0  0.145403  0  0.905241  0  0  0.158529  0  0.959773  0  0  0.161916  0  0.957371  0  0  0.13048  0.156159  0  0.961552  0
H  H13  1  0.72351482  0.84632565  0.88435927  1  0  0.145405  0  0.905236  0  0  0.158527  0  0.959779  0  0  0.161914  0  0.957376  0  0  0.130474  0.156153  0  0.961566  0
H  H14  1  0.37655794  0.27186120  0.05629349  1  0  0.133701  0  0.932616  0  0  0.140525  0  1.001324  0  0  0.143189  0  0.999609  0  0  0.124226  0.138643  0  1.00264  0
H  H15  1  0.62344227  0.72813794  0.94370546  1  0  0.133696  0  0.932597  0  0  0.140527  0  1.001298  0  0  0.143189  0  0.999585  0  0  0.124233  0.138646  0  1.002615  0
H  H16  1  0.74395250  0.28901135  0.57292232  1  0  0.127509  0  0.929001  0  0  0.135873  0  0.993289  0  0  0.138394  0  0.991361  0  0  0.122198  0.133964  0  0.994842  0
H  H17  1  0.25605784  0.71098879  0.42707807  1  0  0.127451  0  0.929031  0  0  0.135853  0  0.993305  0  0  0.138375  0  0.991378  0  0  0.122191  0.133951  0  0.994859  0
H  H18  1  0.01427283  0.25194985  0.47337104  1  0  0.101295  0  0.91523  0  0  0.112147  0  0.976582  0  0  0.11383  0  0.975143  0  0  0.115136  0.11083  0  0.977846  0
H  H19  1  0.98572943  0.74804929  0.52662542  1  0  0.101295  0  0.915221  0  0  0.11217  0  0.976569  0  0  0.113856  0  0.975127  0  0  0.115139  0.110855  0  0.977834  0
C  C20  1  0.96491611  0.42449391  0.14368168  1  0  0.072619  0  3.520616  0  0  0.017033  0  3.768809  0  0  0.028751  0  3.778094  0  0  0.066799  0.009698  0  3.762675  0
C  C21  1  0.03508410  0.57550523  0.85631727  1  0  0.072634  0  3.520662  0  0  0.016999  0  3.768882  0  0  0.028728  0  3.778149  0  0  0.066763  0.009659  0  3.762753  0
C  C22  1  0.79905469  0.51477413  0.22357183  1  0  -0.057562  0  3.722783  0  0  -0.03165  0  3.962433  0  0  -0.042155  0  3.98296  0  0  0.002172  -0.025416  0  3.949157  0
C  C23  1  0.20094150  0.48522501  0.77642703  1  0  -0.057539  0  3.722789  0  0  -0.031618  0  3.962443  0  0  -0.042125  0  3.982975  0  0  0.002196  -0.025385  0  3.949169  0
C  C24  1  0.72348149  0.49827967  0.32842898  1  0  -0.105639  0  3.628008  0  0  -0.153041  0  3.892695  0  0  -0.147554  0  3.903705  0  0  -0.062352  -0.156592  0  3.885842  0
C  C25  1  0.27651684  0.50172046  0.67156945  1  0  -0.105671  0  3.62797  0  0  -0.15306  0  3.892667  0  0  -0.147575  0  3.903681  0  0  -0.062366  -0.15661  0  3.885814  0
C  C26  1  0.81319161  0.39194069  0.35244922  1  0  0.252895  0  3.810212  0  0  0.241766  0  4.085441  0  0  0.24859  0  4.100176  0  0  0.100314  0.236424  0  4.075902  0
C  C27  1  0.18680871  0.60805945  0.64755010  1  0  0.252971  0  3.810165  0  0  0.241797  0  4.085423  0  0  0.248612  0  4.100167  0  0  0.100354  0.236456  0  4.075883  0
C  C28  1  0.97481586  0.30212739  0.26886981  1  0  -0.021914  0  3.518007  0  0  -0.074655  0  3.773559  0  0  -0.067839  0  3.784778  0  0  0.054816  -0.078822  0  3.766415  0
C  C29  1  0.02518458  0.69787373  0.73112988  1  0  -0.021958  0  3.517992  0  0  -0.074724  0  3.773562  0  0  -0.067904  0  3.784779  0  0  0.054802  -0.078889  0  3.766413  0
C  C30  1  0.20330943  0.22170332  0.07631573  1  0  -0.188793  0  3.533442  0  0  -0.247732  0  3.776882  0  0  -0.249589  0  3.781734  0  0  -0.05223  -0.246575  0  3.773882  0
C  C31  1  0.79668887  0.77829681  0.92368439  1  0  -0.188766  0  3.533452  0  0  -0.247723  0  3.776911  0  0  -0.249581  0  3.781763  0  0  -0.052244  -0.246568  0  3.773911  0
C  C32  1  0.03527535  0.14475044  0.95402097  1  0  0.715049  0  3.867159  0  0  0.664502  0  4.170082  0  0  0.699605  0  4.162967  0  0  0.216789  0.640563  0  4.173972  0
C  C33  1  0.96472675  0.85524771  0.04597765  1  0  0.715067  0  3.867174  0  0  0.664495  0  4.17015  0  0  0.699598  0  4.163039  0  0  0.216825  0.640555  0  4.174039  0
C  C34  1  0.69928508  0.62709229  0.19356406  1  0  0.645561  0  3.966127  0  0  0.598273  0  4.2557  0  0  0.632822  0  4.250295  0  0  0.202331  0.575082  0  4.258117  0
C  C35  1  0.30071300  0.37290586  0.80643447  1  0  0.64559  0  3.966149  0  0  0.598288  0  4.255741  0  0  0.632836  0  4.250337  0  0  0.202322  0.575096  0  4.258157  0
C  C36  1  0.79785724  0.26898779  0.47822749  1  0  -0.092316  0  3.608244  0  0  -0.147806  0  3.869822  0  0  -0.145095  0  3.871019  0  0  -0.068194  -0.149835  0  3.869252  0
C  C37  1  0.20214900  0.73101135  0.52177075  1  0  -0.092216  0  3.608077  0  0  -0.147812  0  3.869763  0  0  -0.145107  0  3.870964  0  0  -0.068188  -0.149855  0  3.869214  0
C  C38  1  0.63660308  0.14471348  0.38841561  1  0  0.660783  0  3.893246  0  0  0.609292  0  4.192554  0  0  0.641612  0  4.187307  0  0  0.201843  0.587374  0  4.195352  0
C  C39  1  0.36339746  0.85528864  0.61158530  1  0  0.660715  0  3.893146  0  0  0.609204  0  4.192533  0  0  0.641525  0  4.187288  0  0  0.201786  0.587287  0  4.195332  0
N  N40  1  0.04688459  0.32179518  0.16825896  1  0  0.060403  0  3.5649  0  0  0.153885  0  3.775597  0  0  0.142068  0  3.801663  0  0  -0.201407  0.161251  0  3.758135  0
N  N41  1  0.95311583  0.67820594  0.83174158  1  0  0.060341  0  3.564892  0  0  0.153904  0  3.775503  0  0  0.142086  0  3.801569  0  0  -0.201384  0.161271  0  3.758042  0
O  O42  1  0.86594451  0.10220395  0.64294255  1  0  -0.842897  0  1.905556  0  0  -0.784458  0  2.112414  0  0  -0.807838  0  2.077818  0  0  -0.597371  -0.767903  0  2.136318  0
O  O43  1  0.13405387  0.89779718  0.35705963  1  0  -0.84285  0  1.905635  0  0  -0.784411  0  2.112472  0  0  -0.807795  0  2.077872  0  0  -0.597325  -0.767857  0  2.136378  0
O  O44  1  0.15628848  0.06656096  0.86453234  1  0  -0.656426  0  1.983939  0  0  -0.597576  0  2.235487  0  0  -0.627064  0  2.224188  0  0  -0.330085  -0.576538  0  2.242507  0
O  O45  1  0.84370979  0.93343917  0.13546947  1  0  -0.656486  0  1.983935  0  0  -0.597609  0  2.235481  0  0  -0.627098  0  2.224184  0  0  -0.330114  -0.576568  0  2.242499  0
O  O46  1  0.78577817  0.16549958  0.95441935  1  0  -0.652654  0  2.022258  0  0  -0.584689  0  2.279632  0  0  -0.616052  0  2.267605  0  0  -0.32297  -0.562613  0  2.28707  0
O  O47  1  0.21422035  0.83450254  0.04558237  1  0  -0.652574  0  2.022224  0  0  -0.584625  0  2.279633  0  0  -0.615985  0  2.267607  0  0  -0.322952  -0.562549  0  2.287071  0
O  O48  1  0.55909313  0.70938970  0.27528476  1  0  -0.653028  0  1.981822  0  0  -0.587834  0  2.2276  0  0  -0.619066  0  2.217109  0  0  -0.333831  -0.565758  0  2.233706  0
O  O49  1  0.44090694  0.29060845  0.72471465  1  0  -0.65307  0  1.981848  0  0  -0.58786  0  2.227619  0  0  -0.619092  0  2.217129  0  0  -0.333847  -0.565784  0  2.233725  0
O  O50  1  0.75582745  0.63160441  0.09324430  1  0  -0.619795  0  1.961168  0  0  -0.572987  0  2.187113  0  0  -0.599419  0  2.179801  0  0  -0.315399  -0.554146  0  2.191269  0
O  O51  1  0.24416862  0.36839374  0.90675418  1  0  -0.619783  0  1.961179  0  0  -0.572977  0  2.187149  0  0  -0.59941  0  2.179836  0  0  -0.315375  -0.554134  0  2.191304  0
O  O52  1  0.73872678  0.38501740  0.45838184  1  0  -0.248301  0  2.375937  0  0  -0.182932  0  2.612387  0  0  -0.201613  0  2.617544  0  0  -0.170251  -0.169844  0  2.608677  0
O  O53  1  0.26127553  0.61498273  0.54161838  1  0  -0.248318  0  2.375896  0  0  -0.18287  0  2.61235  0  0  -0.201545  0  2.61751  0  0  -0.170255  -0.169785  0  2.60865  0
O  O54  1  0.69385852  0.03831330  0.40245423  1  0  -0.684601  0  2.084648  0  0  -0.597384  0  2.306178  0  0  -0.628757  0  2.29584  0  0  -0.321585  -0.575513  0  2.312698  0
O  O55  1  0.30613788  0.96168782  0.59754707  1  0  -0.68454  0  2.084697  0  0  -0.5973  0  2.306227  0  0  -0.62868  0  2.295896  0  0  -0.321517  -0.575429  0  2.312742  0
O  O56  1  0.46685269  0.14832360  0.30924196  1  0  -0.61309  0  1.948729  0  0  -0.568377  0  2.187558  0  0  -0.593943  0  2.179027  0  0  -0.311571  -0.550484  0  2.192773  0
O  O57  1  0.53314972  0.85167752  0.69075948  1  0  -0.613112  0  1.948671  0  0  -0.568376  0  2.187493  0  0  -0.593945  0  2.178971  0  0  -0.31158  -0.55048  0  2.192703  0
