# generated using pymatgen
data_Zn4H48C60O13
_symmetry_space_group_name_H-M   'P 1'
_cell_length_a   28.15218336
_cell_length_b   28.15303939
_cell_length_c   28.15123707
_cell_angle_alpha   120.00193519
_cell_angle_beta   90.00247272
_cell_angle_gamma   59.99624660
_symmetry_Int_Tables_number   1
_chemical_formula_structural   Zn4H48C60O13
_chemical_formula_sum   'Zn8 H96 C120 O26'
_cell_volume   15775.81787602
_cell_formula_units_Z   2
loop_
 _symmetry_equiv_pos_site_id
 _symmetry_equiv_pos_as_xyz
  1  'x, y, z'
loop_
 _atom_site_type_symbol
 _atom_site_label
 _atom_site_symmetry_multiplicity
 _atom_site_fract_x
 _atom_site_fract_y
 _atom_site_fract_z
 _atom_site_occupancy
 _atom_site_pbe_bader_charge
 _atom_site_pbe_bader_spin_density
 _atom_site_pbe_cm5_charge
 _atom_site_pbe_ddec_charge
 _atom_site_pbe_ddec_spin_density
 _atom_site_pbe_ddec_sum_bond_order
 _atom_site_pbe_magmom
Zn  Zn0  1  0.52844388  0.05697931  0.02849511  1  1.309318  0  0.66813  0.960224  0  2.380188  0
Zn  Zn1  1  0.52850942  0.94306274  0.91453832  1  1.308514  0  0.668028  0.960345  0  2.379756  0
Zn  Zn2  1  0.41456832  0.05693493  0.02843191  1  1.307747  0  0.66808  0.960199  0  2.380334  0
Zn  Zn3  1  0.52844527  0.94307110  0.02846083  1  1.30989  0  0.66837  0.960788  0  2.379006  0
Zn  Zn4  1  0.97145860  0.94310221  0.47158330  1  1.307921  0  0.66805  0.960081  0  2.38074  0
Zn  Zn5  1  0.08540594  0.94302313  0.47148397  1  1.309622  0  0.668228  0.960789  0  2.378334  0
Zn  Zn6  1  0.97149342  0.05696400  0.58541273  1  1.309338  0  0.668185  0.960313  0  2.380282  0
Zn  Zn7  1  0.97148048  0.05695784  0.47151191  1  1.308093  0  0.668049  0.960138  0  2.379942  0
H  H8  1  0.86784741  0.07611278  0.36803673  1  0.078019  0  0.105862  0.118155  0  0.996747  0
H  H9  1  0.86790540  0.92385556  0.36798284  1  0.074342  0  0.105838  0.117871  0  0.996141  0
H  H10  1  0.63206070  0.07605333  0.13202273  1  0.076934  0  0.106054  0.118341  0  0.99655  0
H  H11  1  0.63198664  0.92390837  0.13205756  1  0.074878  0  0.105828  0.117908  0  0.996327  0
H  H12  1  0.20809375  0.92384696  0.55594114  1  0.072323  0  0.105947  0.118101  0  0.996576  0
H  H13  1  0.05588558  0.07615144  0.70816363  1  0.071166  0  0.105936  0.117998  0  0.996694  0
H  H14  1  0.44408614  0.92391311  0.79174908  1  0.12532  0  0.105824  0.117926  0  0.996286  0
H  H15  1  0.29191379  0.07609044  0.94400681  1  0.072489  0  0.105925  0.118263  0  0.996805  0
H  H16  1  0.20800997  0.73590278  0.36803925  1  0.081138  0  0.105881  0.118204  0  0.99668  0
H  H17  1  0.05578108  0.73594312  0.36812151  1  0.070757  0  0.105886  0.1181  0  0.996542  0
H  H18  1  0.44397418  0.26412510  0.13215975  1  0.083915  0  0.105892  0.118182  0  0.99677  0
H  H19  1  0.29180034  0.26406170  0.13206121  1  0.084718  0  0.105826  0.117829  0  0.996586  0
H  H20  1  0.86795405  0.26410099  0.55595981  1  0.07486  0  0.106032  0.118229  0  0.996506  0
H  H21  1  0.86790338  0.26409410  0.70816667  1  0.083683  0  0.105919  0.118002  0  0.996283  0
H  H22  1  0.63201408  0.73588968  0.79182181  1  0.076131  0  0.105926  0.118039  0  0.996373  0
H  H23  1  0.63204099  0.73595559  0.94406653  1  0.083886  0  0.105971  0.118132  0  0.996442  0
H  H24  1  0.86800324  0.07616022  0.70824100  1  0.076682  0  0.105839  0.117759  0  0.996476  0
H  H25  1  0.86792317  0.92400511  0.55605603  1  0.094573  0  0.105915  0.118297  0  0.996573  0
H  H26  1  0.63199932  0.07626781  0.94419597  1  0.089518  0  0.105868  0.11785  0  0.996592  0
H  H27  1  0.63210246  0.92398765  0.79194358  1  0.081993  0  0.105843  0.118007  0  0.996718  0
H  H28  1  0.20811852  0.92404585  0.36805097  1  0.079103  0  0.105942  0.118198  0  0.996768  0
H  H29  1  0.05588889  0.07620450  0.36800802  1  0.091568  0  0.105863  0.118023  0  0.996447  0
H  H30  1  0.44400862  0.92391269  0.13200734  1  0.093156  0  0.105939  0.118203  0  0.996856  0
H  H31  1  0.29179721  0.07618395  0.13206305  1  0.077353  0  0.105951  0.117962  0  0.996443  0
H  H32  1  0.77663151  0.91944465  0.33961531  1  0.057698  0  0.095768  0.13238  0  0.985471  0
H  H33  1  0.77401192  0.91281495  0.27366076  1  0.025482  0  0.086577  0.120418  0  1.061904  0
H  H34  1  0.83968277  0.85648561  0.27692186  1  0.027936  0  0.095759  0.13243  0  0.985405  0
H  H35  1  0.83958849  0.08042808  0.27668568  1  0.060922  0  0.095875  0.132251  0  0.985396  0
H  H36  1  0.77363276  0.08706994  0.27404722  1  0.028417  0  0.086748  0.120539  0  1.062105  0
H  H37  1  0.77687343  0.14341660  0.33972320  1  0.081723  0  0.095705  0.132158  0  0.98524  0
H  H38  1  0.72328117  0.85653738  0.16037982  1  0.082324  0  0.095964  0.132576  0  0.985441  0
H  H39  1  0.72591220  0.91321873  0.22633794  1  0.031337  0  0.086465  0.120305  0  1.061501  0
H  H40  1  0.66023450  0.91932096  0.22307722  1  0.054344  0  0.095774  0.132491  0  0.985987  0
H  H41  1  0.66034989  0.14341619  0.22335818  1  0.083125  0  0.095819  0.132299  0  0.98543  0
H  H42  1  0.72630113  0.08672410  0.22599039  1  0.027957  0  0.086601  0.120334  0  1.062165  0
H  H43  1  0.72306070  0.08065037  0.16031958  1  0.05673  0  0.095718  0.132205  0  0.985381  0
H  H44  1  0.07984432  0.08057500  0.80386277  1  0.043837  0  0.095867  0.132385  0  0.9854  0
H  H45  1  0.13917198  0.08719580  0.81309585  1  0.029667  0  0.086621  0.120538  0  1.06146  0
H  H46  1  0.07957803  0.14351848  0.80375128  1  0.049478  0  0.095756  0.132437  0  0.985925  0
H  H47  1  0.30374807  0.91952431  0.57986078  1  0.042863  0  0.095822  0.13235  0  0.98533  0
H  H48  1  0.31304965  0.91289063  0.63917746  1  0.032746  0  0.08659  0.120408  0  1.061866  0
H  H49  1  0.30370097  0.85655206  0.57960398  1  0.05086  0  0.095839  0.132356  0  0.985598  0
H  H50  1  0.19620761  0.14348158  0.92009160  1  0.050318  0  0.095854  0.132408  0  0.985303  0
H  H51  1  0.18692380  0.08679637  0.86079145  1  0.029809  0  0.086603  0.120359  0  1.06189  0
H  H52  1  0.19628501  0.08072107  0.92038452  1  0.035309  0  0.095732  0.132301  0  0.985483  0
H  H53  1  0.42010267  0.85655996  0.69611536  1  0.051256  0  0.095934  0.132496  0  0.985424  0
H  H54  1  0.36077330  0.91324632  0.68685502  1  0.0274  0  0.086809  0.120663  0  1.062169  0
H  H55  1  0.42036993  0.91931407  0.69615768  1  0.037601  0  0.095867  0.13264  0  0.985356  0
H  H56  1  0.07973090  0.61632043  0.27680494  1  0.031538  0  0.09603  0.13261  0  0.98565  0
H  H57  1  0.13905388  0.54772346  0.27416171  1  0.029312  0  0.086683  0.120569  0  1.0621  0
H  H58  1  0.07946129  0.61663780  0.33983394  1  0.0484  0  0.096143  0.132912  0  0.98479  0
H  H59  1  0.30368737  0.61627054  0.33973332  1  0.055711  0  0.095866  0.132219  0  0.985234  0
H  H60  1  0.31294331  0.54769763  0.27377627  1  -0.0182  0  0.086714  0.120601  0  1.061953  0
H  H61  1  0.30359732  0.61663129  0.27704087  1  0.047271  0  0.095605  0.132151  0  0.985828  0
H  H62  1  0.19611235  0.38365895  0.22341279  1  0.05164  0  0.095935  0.132637  0  0.985404  0
H  H63  1  0.18680611  0.45226292  0.22606145  1  0.033623  0  0.086729  0.120666  0  1.061565  0
H  H64  1  0.19616933  0.38332597  0.16037760  1  0.048302  0  0.095759  0.132384  0  0.985654  0
H  H65  1  0.41999178  0.38376647  0.16052287  1  0.05749  0  0.095871  0.132256  0  0.985167  0
H  H66  1  0.36065404  0.45233380  0.22647417  1  0.028963  0  0.086497  0.120201  0  1.062192  0
H  H67  1  0.42025113  0.38342310  0.22322468  1  0.055321  0  0.095789  0.132113  0  0.985403  0
H  H68  1  0.83965163  0.38371668  0.80384060  1  0.052904  0  0.095907  0.132442  0  0.98525  0
H  H69  1  0.77369118  0.45230587  0.81311903  1  -0.016813  0  0.086631  0.120403  0  1.06196  0
H  H70  1  0.77694560  0.38338827  0.80379763  1  0.038279  0  0.095746  0.132358  0  0.985524  0
H  H71  1  0.77670183  0.38370705  0.57989382  1  0.065966  0  0.095938  0.132441  0  0.985256  0
H  H72  1  0.77406172  0.45229697  0.63921883  1  0.03355  0  0.086649  0.120454  0  1.061851  0
H  H73  1  0.83974595  0.38335876  0.57964240  1  0.052992  0  0.095729  0.132359  0  0.985621  0
H  H74  1  0.66032911  0.61634296  0.92013875  1  0.053472  0  0.095868  0.132427  0  0.98509  0
H  H75  1  0.72629258  0.54774714  0.86082727  1  0.02872  0  0.086573  0.120415  0  1.061773  0
H  H76  1  0.72302936  0.61668169  0.92041734  1  0.073407  0  0.095756  0.132289  0  0.985617  0
H  H77  1  0.72330592  0.61625804  0.69615731  1  0.055717  0  0.095973  0.132459  0  0.985279  0
H  H78  1  0.72593862  0.54768434  0.68691273  1  0.026889  0  0.086693  0.120599  0  1.06203  0
H  H79  1  0.66026405  0.61659992  0.69623880  1  0.052785  0  0.095806  0.132504  0  0.98551  0
H  H80  1  0.83961483  0.85665745  0.58003502  1  0.064084  0  0.095897  0.132247  0  0.985362  0
H  H81  1  0.77366263  0.91337267  0.63936387  1  0.025023  0  0.086607  0.120367  0  1.062331  0
H  H82  1  0.77691138  0.91943266  0.57976052  1  0.058624  0  0.095748  0.132215  0  0.985226  0
H  H83  1  0.77670460  0.14354837  0.80392759  1  0.053792  0  0.095873  0.132391  0  0.985389  0
H  H84  1  0.77405967  0.08689119  0.81322558  1  0.028211  0  0.086725  0.120671  0  1.061751  0
H  H85  1  0.83974010  0.08078267  0.80386398  1  0.049705  0  0.095845  0.13257  0  0.985304  0
H  H86  1  0.66042838  0.91964365  0.69627201  1  0.052813  0  0.095866  0.132193  0  0.985268  0
H  H87  1  0.72637213  0.91302969  0.68704958  1  0.023612  0  0.086511  0.120283  0  1.062416  0
H  H88  1  0.72313512  0.85666525  0.69634360  1  0.079414  0  0.095736  0.132173  0  0.985126  0
H  H89  1  0.72331938  0.08063598  0.92026241  1  0.05328  0  0.095854  0.132424  0  0.985256  0
H  H90  1  0.72595497  0.08726827  0.86094222  1  0.028799  0  0.086737  0.120731  0  1.061684  0
H  H91  1  0.66027838  0.14360557  0.92053044  1  0.053949  0  0.095855  0.132673  0  0.985115  0
H  H92  1  0.07983082  0.14360409  0.33973219  1  0.058798  0  0.095884  0.132457  0  0.985736  0
H  H93  1  0.13913318  0.08691238  0.27376560  1  0.027396  0  0.086718  0.120581  0  1.061592  0
H  H94  1  0.07953997  0.08084381  0.27704359  1  0.052756  0  0.095636  0.13227  0  0.985609  0
H  H95  1  0.30378817  0.85670880  0.27677384  1  0.059068  0  0.095924  0.13223  0  0.985267  0
H  H96  1  0.31304083  0.91339574  0.27412729  1  0.026773  0  0.086621  0.120447  0  1.061897  0
H  H97  1  0.30371525  0.91949827  0.33980705  1  0.049849  0  0.095862  0.13237  0  0.985589  0
H  H98  1  0.19612606  0.08058485  0.16039382  1  0.051546  0  0.096052  0.132715  0  0.98528  0
H  H99  1  0.18683762  0.08725890  0.22636574  1  0.028183  0  0.086611  0.120614  0  1.061706  0
H  H100  1  0.19620227  0.14355790  0.22308357  1  0.052027  0  0.095874  0.132621  0  0.985606  0
H  H101  1  0.42008051  0.91959027  0.22333764  1  0.054981  0  0.095834  0.132216  0  0.985199  0
H  H102  1  0.36076242  0.91296290  0.22599841  1  0.027848  0  0.086576  0.120166  0  1.062067  0
H  H103  1  0.42033738  0.85662034  0.16030944  1  0.059578  0  0.095726  0.132161  0  0.985399  0
C  C104  1  0.59101038  0.00009372  0.90906888  1  1.555454  0  0.224635  0.601416  0  4.169587  0
C  C105  1  0.40904397  0.99999761  0.90892131  1  1.561068  0  0.22447  0.601204  0  4.170578  0
C  C106  1  0.40894694  0.18201384  0.09103521  1  1.563565  0  0.224265  0.600761  0  4.171913  0
C  C107  1  0.40895488  0.00002257  0.09097418  1  1.555177  0  0.224378  0.601145  0  4.171011  0
C  C108  1  0.59097663  0.99999450  0.09100178  1  1.565924  0  0.224081  0.600904  0  4.17103  0
C  C109  1  0.59100715  0.81801124  0.90898138  1  1.563757  0  0.22429  0.601241  0  4.170688  0
C  C110  1  0.09089223  0.81800178  0.40906337  1  1.518108  0  0.224613  0.601828  0  4.168981  0
C  C111  1  0.09095185  0.99999634  0.59100070  1  1.559488  0  0.224225  0.601038  0  4.17212  0
C  C112  1  0.90897744  0.00007291  0.59108936  1  1.555538  0  0.224528  0.601436  0  4.170512  0
C  C113  1  0.90894600  0.18201800  0.59101190  1  1.564103  0  0.224199  0.600884  0  4.171086  0
C  C114  1  0.90891170  0.00000781  0.40905209  1  1.565608  0  0.224533  0.601444  0  4.170863  0
C  C115  1  0.09096179  0.00005618  0.40901882  1  1.554842  0  0.224425  0.601276  0  4.17114  0
C  C116  1  0.87145677  0.99999482  0.37161156  1  -0.028545  0  -0.021971  -0.02973  0  4.036901  0
C  C117  1  0.85375662  0.04291341  0.35390819  1  -0.032847  0  -0.088485  -0.168926  0  3.96666  0
C  C118  1  0.81881530  0.04383054  0.31893071  1  0.022896  0  -0.001269  0.135776  0  3.940003  0
C  C119  1  0.80097320  0.99995229  0.30102853  1  0.115928  0  0.001383  0.017176  0  4.024447  0
C  C120  1  0.81885311  0.95609380  0.31889000  1  0.021989  0  -0.000657  0.136691  0  3.938757  0
C  C121  1  0.85378635  0.95704708  0.35388116  1  -0.031835  0  -0.088538  -0.168637  0  3.963661  0
C  C122  1  0.76535279  0.99994205  0.26538850  1  -0.131218  0  -0.0382  -0.093172  0  4.126975  0
C  C123  1  0.73458886  0.99995484  0.23461985  1  -0.305765  0  -0.037573  -0.091987  0  4.126389  0
C  C124  1  0.69895932  0.99996804  0.19898611  1  0.113813  0  0.000764  0.015434  0  4.025821  0
C  C125  1  0.68110869  0.04380442  0.18110211  1  0.0243  0  -0.000911  0.136208  0  3.939592  0
C  C126  1  0.64615167  0.04287850  0.14613864  1  -0.037472  0  -0.088742  -0.168873  0  3.965721  0
C  C127  1  0.62842849  0.99998235  0.12844680  1  -0.024831  0  -0.02169  -0.029694  0  4.036702  0
C  C128  1  0.64610958  0.95707647  0.14616035  1  -0.032135  0  -0.088145  -0.167813  0  3.963149  0
C  C129  1  0.68106552  0.95614406  0.18113066  1  0.024378  0  -0.001531  0.135715  0  3.939838  0
C  C130  1  0.12839886  0.99999662  0.62845733  1  -0.074358  0  -0.021745  -0.029763  0  4.037137  0
C  C131  1  0.18901795  0.95706213  0.60323628  1  -0.032961  0  -0.088418  -0.168027  0  3.965045  0
C  C132  1  0.22491212  0.95614869  0.63726544  1  0.022133  0  -0.001272  0.135412  0  3.940244  0
C  C133  1  0.19894038  0.00003444  0.69898807  1  0.140288  0  0.000818  0.015273  0  4.025936  0
C  C134  1  0.13721782  0.04390327  0.72497232  1  0.021178  0  -0.001498  0.135879  0  3.939451  0
C  C135  1  0.10318085  0.04295193  0.68908198  1  0.014049  0  -0.088383  -0.168127  0  3.963598  0
C  C136  1  0.23458442  0.00004752  0.73461086  1  -0.303985  0  -0.037899  -0.092617  0  4.126533  0
C  C137  1  0.26536528  0.00004467  0.76536117  1  -0.125701  0  -0.037836  -0.092214  0  4.12652  0
C  C138  1  0.30101648  0.00002934  0.80097325  1  0.109853  0  0.001298  0.017109  0  4.025132  0
C  C139  1  0.36274277  0.95617799  0.77497107  1  0.024794  0  -0.001058  0.135755  0  3.940871  0
C  C140  1  0.39679201  0.95710197  0.81084381  1  -0.036724  0  -0.088393  -0.168535  0  3.964072  0
C  C141  1  0.37159771  0.00001146  0.87146997  1  -0.075335  0  -0.022011  -0.02932  0  4.035956  0
C  C142  1  0.31097189  0.04292073  0.89671232  1  -0.028454  0  -0.088458  -0.168887  0  3.966081  0
C  C143  1  0.27506049  0.04386401  0.86270180  1  0.020323  0  -0.001036  0.135837  0  3.939934  0
C  C144  1  0.12831032  0.74310061  0.37166767  1  0.022338  0  -0.021629  -0.02944  0  4.035877  0
C  C145  1  0.18893426  0.70768973  0.35395476  1  -0.008396  0  -0.088771  -0.169638  0  3.966527  0
C  C146  1  0.22482076  0.63777367  0.31900778  1  -0.020448  0  -0.001264  0.13572  0  3.939682  0
C  C147  1  0.19883348  0.60204282  0.30116546  1  0.030931  0  0.001087  0.018349  0  4.022652  0
C  C148  1  0.13710661  0.63779198  0.31905562  1  0.038305  0  -0.001146  0.135571  0  3.9391  0
C  C149  1  0.10307558  0.70771529  0.35400310  1  -0.026247  0  -0.088552  -0.168728  0  3.964211  0
C  C150  1  0.23446564  0.53077559  0.26553933  1  -0.061032  0  -0.037885  -0.093326  0  4.126222  0
C  C151  1  0.26525739  0.46924114  0.23476671  1  -0.320012  0  -0.037639  -0.093013  0  4.126133  0
C  C152  1  0.30091432  0.39797461  0.19910728  1  0.127235  0  0.001118  0.018598  0  4.022452  0
C  C153  1  0.36263725  0.36224392  0.18124522  1  0.017958  0  -0.001124  0.135632  0  3.939989  0
C  C154  1  0.39668183  0.29232629  0.14625718  1  -0.048308  0  -0.088507  -0.169225  0  3.966978  0
C  C155  1  0.37147882  0.25690864  0.12852570  1  0.018089  0  -0.021774  -0.029277  0  4.036543  0
C  C156  1  0.31085746  0.29229571  0.14620584  1  0.020534  0  -0.088538  -0.168381  0  3.964136  0
C  C157  1  0.27495215  0.36221818  0.18119366  1  -0.060286  0  -0.000919  0.135429  0  3.93941  0
C  C158  1  0.87151806  0.25690923  0.62846718  1  0.022409  0  -0.021969  -0.029168  0  4.035928  0
C  C159  1  0.85384370  0.29231707  0.60325451  1  -0.054764  0  -0.08867  -0.169083  0  3.96561  0
C  C160  1  0.81890720  0.36223719  0.63728481  1  0.030076  0  -0.000932  0.135745  0  3.93931  0
C  C161  1  0.80101881  0.39798549  0.69901227  1  0.032089  0  0.001218  0.01829  0  4.022441  0
C  C162  1  0.81887309  0.36223637  0.72498889  1  -0.070555  0  -0.001359  0.135469  0  3.939523  0
C  C163  1  0.85381473  0.29231322  0.68909199  1  0.022537  0  -0.088415  -0.168633  0  3.964095  0
C  C164  1  0.76538570  0.46924740  0.73464468  1  -0.278253  0  -0.037928  -0.093379  0  4.125114  0
C  C165  1  0.73460521  0.53077758  0.76540320  1  0.091252  0  -0.037744  -0.092707  0  4.124581  0
C  C166  1  0.69896391  0.60203877  0.80102319  1  -0.049708  0  0.001124  0.018091  0  4.022767  0
C  C167  1  0.68107548  0.63776765  0.77503135  1  -0.02269  0  -0.001146  0.13552  0  3.939715  0
C  C168  1  0.64612362  0.70768974  0.81091396  1  -0.006594  0  -0.088515  -0.168555  0  3.964798  0
C  C169  1  0.62843568  0.74311610  0.87153936  1  -0.009173  0  -0.021686  -0.029496  0  4.036277  0
C  C170  1  0.64614034  0.70772495  0.89677039  1  -0.0369  0  -0.088598  -0.168558  0  3.964954  0
C  C171  1  0.68109964  0.63779915  0.86274714  1  0.018891  0  -0.001452  0.134987  0  3.939869  0
C  C172  1  0.87155125  0.00008468  0.62856282  1  -0.095759  0  -0.022051  -0.030135  0  4.03733  0
C  C173  1  0.85387678  0.04299693  0.68918292  1  0.01227  0  -0.088368  -0.168055  0  3.963647  0
C  C174  1  0.81892110  0.04393387  0.72508083  1  0.00221  0  -0.001055  0.136192  0  3.938992  0
C  C175  1  0.80103105  0.00010444  0.69911040  1  0.091338  0  0.001534  0.017118  0  4.025126  0
C  C176  1  0.81887375  0.95626403  0.63739138  1  0.010417  0  -0.001366  0.135833  0  3.939436  0
C  C177  1  0.85383206  0.95718206  0.60335151  1  -0.00923  0  -0.088537  -0.169045  0  3.966327  0
C  C178  1  0.76539747  0.00013535  0.73476517  1  -0.295489  0  -0.038032  -0.09285  0  4.127519  0
C  C179  1  0.73462801  0.00014708  0.76553800  1  -0.083776  0  -0.037937  -0.092818  0  4.127549  0
C  C180  1  0.69899357  0.00013608  0.80115099  1  0.102976  0  0.001561  0.017226  0  4.024687  0
C  C181  1  0.68109452  0.04400569  0.86287558  1  -0.013929  0  -0.001189  0.136267  0  3.938588  0
C  C182  1  0.64612781  0.04307700  0.89690041  1  -0.012808  0  -0.088526  -0.168492  0  3.963983  0
C  C183  1  0.62845822  0.00012848  0.87166009  1  -0.085333  0  -0.021965  -0.029948  0  4.036994  0
C  C184  1  0.64618741  0.95719144  0.81103180  1  0.000522  0  -0.08848  -0.168678  0  3.966144  0
C  C185  1  0.68115108  0.95626303  0.77515291  1  0.018696  0  -0.001284  0.135734  0  3.939824  0
C  C186  1  0.12840349  0.00012859  0.37163251  1  -0.09287  0  -0.021808  -0.0292  0  4.035752  0
C  C187  1  0.18903039  0.95723333  0.35394791  1  0.011787  0  -0.088579  -0.169073  0  3.966229  0
C  C188  1  0.22491753  0.95632373  0.31900727  1  0.009615  0  -0.001142  0.135894  0  3.940186  0
C  C189  1  0.19893598  0.00015857  0.30111881  1  0.081619  0  0.001392  0.017461  0  4.024819  0
C  C190  1  0.13721182  0.04398642  0.31897283  1  -0.009417  0  -0.001006  0.135631  0  3.940305  0
C  C191  1  0.10318344  0.04304102  0.35392178  1  -0.01476  0  -0.088612  -0.168723  0  3.96401  0
C  C192  1  0.23456033  0.00016531  0.26548393  1  -0.054241  0  -0.038074  -0.093165  0  4.127378  0
C  C193  1  0.26532047  0.00014114  0.23469236  1  -0.319185  0  -0.037801  -0.092317  0  4.127049  0
C  C194  1  0.30096010  0.00009886  0.19902373  1  0.115963  0  0.001095  0.016227  0  4.025097  0
C  C195  1  0.36268671  0.95621390  0.18111611  1  0.010279  0  -0.00098  0.135766  0  3.939629  0
C  C196  1  0.39671578  0.95712128  0.14613486  1  -0.012593  0  -0.088409  -0.168448  0  3.965855  0
C  C197  1  0.37149900  0.00004713  0.12843827  1  -0.0919  0  -0.02182  -0.029607  0  4.036076  0
C  C198  1  0.31087672  0.04299434  0.14616692  1  0.011211  0  -0.088516  -0.168445  0  3.963421  0
C  C199  1  0.27498361  0.04394870  0.18115187  1  0.000366  0  -0.001141  0.136327  0  3.939731  0
C  C200  1  0.80117107  0.90885471  0.30114372  1  -0.051532  0  -0.235173  -0.405303  0  3.974284  0
C  C201  1  0.80110070  0.09104376  0.30122098  1  -0.105576  0  -0.235247  -0.404577  0  3.973235  0
C  C202  1  0.69874735  0.90895146  0.19886037  1  -0.102294  0  -0.234997  -0.405037  0  3.974598  0
C  C203  1  0.69883359  0.09100301  0.19881761  1  -0.104513  0  -0.235028  -0.40444  0  3.973401  0
C  C204  1  0.10772449  0.09115592  0.78990194  1  -0.06665  0  -0.235077  -0.404998  0  3.974442  0
C  C205  1  0.28983444  0.90892121  0.60774811  1  -0.068158  0  -0.235168  -0.404615  0  3.973898  0
C  C206  1  0.21013669  0.09106877  0.89222205  1  -0.0608  0  -0.235062  -0.40474  0  3.973781  0
C  C207  1  0.39222311  0.90897293  0.71004591  1  -0.04514  0  -0.235561  -0.405597  0  3.975299  0
C  C208  1  0.10761103  0.60236772  0.30133713  1  -0.047612  0  -0.235857  -0.40606  0  3.974263  0
C  C209  1  0.28974487  0.60233849  0.30125759  1  -0.016009  0  -0.234956  -0.404502  0  3.97353  0
C  C210  1  0.21003105  0.39761677  0.19888365  1  -0.068909  0  -0.235463  -0.405604  0  3.974568  0
C  C211  1  0.39211107  0.39769341  0.19899079  1  -0.079487  0  -0.235163  -0.404335  0  3.973399  0
C  C212  1  0.80116309  0.39766354  0.78991667  1  -0.015416  0  -0.235142  -0.40506  0  3.974534  0
C  C213  1  0.80122820  0.39765596  0.60778193  1  -0.084274  0  -0.235234  -0.405071  0  3.973931  0
C  C214  1  0.69881480  0.60239032  0.89226147  1  -0.09297  0  -0.235032  -0.404824  0  3.973982  0
C  C215  1  0.69876941  0.60232450  0.71010367  1  -0.069854  0  -0.235344  -0.405355  0  3.974289  0
C  C216  1  0.80113771  0.90907594  0.60790544  1  -0.081132  0  -0.235034  -0.404303  0  3.972953  0
C  C217  1  0.80123449  0.09113685  0.79000099  1  -0.063244  0  -0.235471  -0.405662  0  3.974068  0
C  C218  1  0.69889969  0.90903908  0.71022154  1  -0.085909  0  -0.234941  -0.40413  0  3.972843  0
C  C219  1  0.69878400  0.09123464  0.89238143  1  -0.069396  0  -0.235389  -0.405834  0  3.973669  0
C  C220  1  0.10770080  0.09118785  0.30125055  1  -0.07368  0  -0.235213  -0.405019  0  3.974965  0
C  C221  1  0.28984641  0.90912517  0.30130226  1  -0.068276  0  -0.235308  -0.404691  0  3.973635  0
C  C222  1  0.21005830  0.09119378  0.19887784  1  -0.06066  0  -0.235514  -0.405973  0  3.974696  0
C  C223  1  0.39219334  0.90899044  0.19881649  1  -0.073615  0  -0.235078  -0.404086  0  3.973008  0
O  O224  1  0.49999367  0.00000501  0.99996555  1  -1.198094  0  -0.570941  -1.025578  0  2.532146  0
O  O225  1  0.57643368  0.04057485  0.96410153  1  -1.183208  0  -0.317625  -0.548368  0  2.33905  0
O  O226  1  0.46408106  0.95952477  0.88298313  1  -1.178807  0  -0.317568  -0.548387  0  2.338754  0
O  O227  1  0.38303151  0.15290398  0.07644150  1  -1.186668  0  -0.317456  -0.548103  0  2.340177  0
O  O228  1  0.57649196  0.95958745  0.88310047  1  -1.173308  0  -0.317345  -0.548003  0  2.338505  0
O  O229  1  0.46397648  0.15294009  0.07650230  1  -1.180482  0  -0.317328  -0.547835  0  2.339464  0
O  O230  1  0.38310879  0.04044446  0.96394535  1  -1.181812  0  -0.317156  -0.547858  0  2.339828  0
O  O231  1  0.38302530  0.04048392  0.07640728  1  -1.176765  0  -0.317545  -0.548261  0  2.339524  0
O  O232  1  0.57641618  0.95952948  0.07645873  1  -1.18488  0  -0.317321  -0.548218  0  2.339481  0
O  O233  1  0.46398427  0.95954496  0.07643772  1  -1.181544  0  -0.317366  -0.548127  0  2.339284  0
O  O234  1  0.57644254  0.04047506  0.07645477  1  -1.183214  0  -0.317351  -0.547972  0  2.339359  0
O  O235  1  0.57650644  0.84709847  0.88303561  1  -1.187099  0  -0.317635  -0.54849  0  2.338909  0
O  O236  1  0.57643123  0.84710904  0.96400777  1  -1.181455  0  -0.317243  -0.548035  0  2.339965  0
O  O237  1  0.99996709  0.00000958  0.49998246  1  -1.198149  0  -0.571037  -1.025521  0  2.531886  0
O  O238  1  0.03586116  0.84712384  0.42363049  1  -1.185271  0  -0.317606  -0.548331  0  2.338479  0
O  O239  1  0.11689102  0.95949649  0.53596628  1  -1.183813  0  -0.317275  -0.548145  0  2.339126  0
O  O240  1  0.92353040  0.04054764  0.61700406  1  -1.17648  0  -0.31753  -0.548334  0  2.33968  0
O  O241  1  0.11684991  0.84706865  0.42353277  1  -1.183889  0  -0.317246  -0.548325  0  2.338757  0
O  O242  1  0.92349903  0.95959399  0.53606315  1  -1.180284  0  -0.317326  -0.547971  0  2.339423  0
O  O243  1  0.03592664  0.04050142  0.61693623  1  -1.178515  0  -0.317317  -0.548004  0  2.340227  0
O  O244  1  0.92348581  0.15292472  0.61694450  1  -1.186255  0  -0.317301  -0.547957  0  2.339638  0
O  O245  1  0.92349661  0.04044547  0.42354402  1  -1.179657  0  -0.317212  -0.547964  0  2.339308  0
O  O246  1  0.92348879  0.15292837  0.53598064  1  -1.181707  0  -0.317329  -0.548088  0  2.339358  0
O  O247  1  0.92343160  0.95956810  0.42364134  1  -1.185244  0  -0.317549  -0.548298  0  2.339686  0
O  O248  1  0.11690564  0.95953168  0.42352635  1  -1.175  0  -0.317426  -0.548306  0  2.338933  0
O  O249  1  0.03593169  0.04051007  0.42354748  1  -1.182404  0  -0.317341  -0.548138  0  2.339778  0
