# generated using pymatgen
data_ZnH12C18NO4
_symmetry_space_group_name_H-M   'P 1'
_cell_length_a   13.12575642
_cell_length_b   13.12574276
_cell_length_c   13.90699235
_cell_angle_alpha   106.77722044
_cell_angle_beta   106.77761561
_cell_angle_gamma   91.43740737
_symmetry_Int_Tables_number   1
_chemical_formula_structural   ZnH12C18NO4
_chemical_formula_sum   'Zn4 H48 C72 N4 O16'
_cell_volume   2180.92239740
_cell_formula_units_Z   4
loop_
 _symmetry_equiv_pos_site_id
 _symmetry_equiv_pos_as_xyz
  1  'x, y, z'
loop_
 _atom_site_type_symbol
 _atom_site_label
 _atom_site_symmetry_multiplicity
 _atom_site_fract_x
 _atom_site_fract_y
 _atom_site_fract_z
 _atom_site_occupancy
 _atom_site_pbe_bader_charge
 _atom_site_pbe_bader_spin_density
 _atom_site_pbe_cm5_charge
 _atom_site_pbe_ddec_charge
 _atom_site_pbe_ddec_spin_density
 _atom_site_pbe_ddec_sum_bond_order
 _atom_site_pbe_magmom
Zn  Zn0  1  0.18666914  0.86621819  0.86444146  1  1.295799  0  0.677139  0.844794  0  2.347366  0
Zn  Zn1  1  0.13378096  0.81332511  0.63555645  1  1.296923  0  0.677146  0.844806  0  2.347398  0
Zn  Zn2  1  0.81333000  0.13378528  0.13555919  1  1.295835  0  0.67705  0.844629  0  2.347751  0
Zn  Zn3  1  0.86621978  0.18667537  0.36444455  1  1.296911  0  0.677191  0.84484  0  2.347152  0
H  H4  1  0.53472001  0.90469137  0.95101096  1  0.096976  0  0.104964  0.110763  0  1.013482  0
H  H5  1  0.72687583  0.90225922  0.96336619  1  0.122615  0  0.099061  0.108439  0  1.053319  0
H  H6  1  0.44529256  0.80597285  0.61216658  1  0.092716  0  0.103499  0.111389  0  1.007147  0
H  H7  1  0.86732142  0.86500640  0.87374918  1  0.09527  0  0.102282  0.104877  0  1.024845  0
H  H8  1  0.04175299  0.92369514  0.98393168  1  0.113311  0  0.119763  0.088862  0  1.019977  0
H  H9  1  0.00997912  0.91316591  0.14886575  1  0.139111  0  0.109587  0.126958  0  1.028078  0
H  H10  1  0.31925834  0.79661244  0.22678999  1  0.047976  0  0.110001  0.120326  0  0.996978  0
H  H11  1  0.40960775  0.88034729  0.04857287  1  0.086251  0  0.103212  0.156222  0  1.005547  0
H  H12  1  0.42314666  0.77844194  0.11170583  1  0.060321  0  0.098025  0.141466  0  0.985477  0
H  H13  1  0.34849652  0.74858359  0.97457262  1  0.117003  0  0.105385  0.165659  0  0.996344  0
H  H14  1  0.78090682  0.78692836  0.53619797  1  0.104113  0  0.101268  0.104735  0  1.027949  0
H  H15  1  0.58808796  0.78311230  0.52301763  1  0.062606  0  0.101088  0.101733  0  0.994063  0
H  H16  1  0.09530276  0.46528213  0.54899160  1  0.096979  0  0.104967  0.11074  0  1.013561  0
H  H17  1  0.09774089  0.27312499  0.53663035  1  0.122572  0  0.099159  0.108517  0  1.053214  0
H  H18  1  0.19402499  0.55470470  0.88783426  1  0.092944  0  0.103541  0.111464  0  1.007106  0
H  H19  1  0.13499586  0.13267657  0.62624344  1  0.0952  0  0.102269  0.104814  0  1.024792  0
H  H20  1  0.07630349  0.95824523  0.51606577  1  0.11335  0  0.119752  0.088829  0  1.019952  0
H  H21  1  0.08683483  0.99002196  0.35113484  1  0.139083  0  0.109555  0.126925  0  1.028145  0
H  H22  1  0.20338900  0.68074172  0.27320830  1  0.047824  0  0.109987  0.120289  0  0.996988  0
H  H23  1  0.11965206  0.59039455  0.45142548  1  0.086268  0  0.103213  0.156182  0  1.005456  0
H  H24  1  0.22155853  0.57685150  0.38829281  1  0.060276  0  0.098006  0.141404  0  0.985496  0
H  H25  1  0.25141748  0.65150128  0.52542695  1  0.117  0  0.105362  0.16564  0  0.996304  0
H  H26  1  0.21307230  0.21909051  0.96379905  1  0.104264  0  0.101267  0.104766  0  1.027995  0
H  H27  1  0.21688602  0.41190834  0.97698147  1  0.062627  0  0.101073  0.101728  0  0.99403  0
H  H28  1  0.46528315  0.09530939  0.04899219  1  0.097009  0  0.10497  0.110783  0  1.01334  0
H  H29  1  0.27312493  0.09774445  0.03663639  1  0.122651  0  0.099091  0.108467  0  1.053303  0
H  H30  1  0.55470578  0.19402497  0.38783450  1  0.092682  0  0.103517  0.111415  0  1.007154  0
H  H31  1  0.13267850  0.13499635  0.12624861  1  0.095293  0  0.102248  0.104763  0  1.024925  0
H  H32  1  0.95824695  0.07630366  0.01606937  1  0.113228  0  0.119761  0.088835  0  1.020067  0
H  H33  1  0.99002404  0.08683565  0.85113763  1  0.139167  0  0.109558  0.126905  0  1.028089  0
H  H34  1  0.68074319  0.20338891  0.77320930  1  0.047845  0  0.11001  0.12034  0  0.996939  0
H  H35  1  0.59039541  0.11965267  0.95143008  1  0.08624  0  0.103193  0.156206  0  1.005522  0
H  H36  1  0.57685249  0.22155756  0.88829663  1  0.060418  0  0.098031  0.141443  0  0.985488  0
H  H37  1  0.65150343  0.25141680  0.02542886  1  0.116985  0  0.105403  0.165695  0  0.996274  0
H  H38  1  0.21909151  0.21307024  0.46380043  1  0.104199  0  0.101274  0.104723  0  1.028075  0
H  H39  1  0.41191198  0.21688809  0.47698457  1  0.062594  0  0.101079  0.101721  0  0.994051  0
H  H40  1  0.90469634  0.53471495  0.45100445  1  0.096989  0  0.104981  0.11074  0  1.013554  0
H  H41  1  0.90226142  0.72687167  0.46336717  1  0.122465  0  0.0991  0.108432  0  1.053305  0
H  H42  1  0.80596932  0.44529503  0.11216193  1  0.092928  0  0.103517  0.111411  0  1.00719  0
H  H43  1  0.86500804  0.86732106  0.37375261  1  0.09515  0  0.1023  0.104912  0  1.024838  0
H  H44  1  0.92369643  0.04175276  0.48393362  1  0.113255  0  0.119744  0.088805  0  1.019958  0
H  H45  1  0.91316351  0.00997824  0.64886616  1  0.139087  0  0.109581  0.126967  0  1.028185  0
H  H46  1  0.79661173  0.31925636  0.72679133  1  0.047384  0  0.110004  0.120326  0  0.996962  0
H  H47  1  0.88034865  0.40960273  0.54857249  1  0.086261  0  0.103225  0.156214  0  1.005384  0
H  H48  1  0.77844299  0.42314587  0.61170613  1  0.060324  0  0.098025  0.14142  0  0.985403  0
H  H49  1  0.74858324  0.34849441  0.47457132  1  0.116989  0  0.105417  0.165685  0  0.996246  0
H  H50  1  0.78692444  0.78090871  0.03620054  1  0.10427  0  0.10126  0.104724  0  1.027998  0
H  H51  1  0.78310909  0.58808909  0.02301505  1  0.062554  0  0.101086  0.101789  0  0.993972  0
C  C52  1  0.36266887  0.85063748  0.77254955  1  1.580703  0  0.214172  0.590842  0  4.170725  0
C  C53  1  0.47885449  0.85339196  0.77986712  1  -0.051365  0  -0.018985  -0.030013  0  3.986722  0
C  C54  1  0.55893816  0.88180051  0.87983380  1  -0.058132  0  -0.087156  -0.095031  0  3.983243  0
C  C55  1  0.66548194  0.88013005  0.88637836  1  -0.059309  0  -0.092267  -0.136157  0  3.974534  0
C  C56  1  0.50788438  0.82696813  0.68828638  1  -0.068945  0  -0.082434  -0.144116  0  3.94209  0
C  C57  1  0.69716595  0.85201259  0.79349244  1  -0.01281  0  -0.008822  0.073694  0  4.000775  0
C  C58  1  0.80582353  0.84897479  0.79761525  1  0.021868  0  -0.080964  -0.135868  0  3.944885  0
C  C59  1  0.10179372  0.89777185  0.04159395  1  0.490372  0  0.053745  0.111822  0  3.934856  0
C  C60  1  0.08438283  0.89074898  0.13333146  1  -0.030449  0  -0.080698  -0.17403  0  3.926281  0
C  C61  1  0.16247019  0.85152212  0.20144702  1  -0.060914  0  0.017134  0.120212  0  3.989014  0
C  C62  1  0.25530950  0.82468079  0.17441124  1  -0.003238  0  -0.081881  -0.23675  0  3.897251  0
C  C63  1  0.26891876  0.83535866  0.08170393  1  0.531875  0  0.13355  0.336259  0  3.93271  0
C  C64  1  0.36849077  0.80866474  0.05300195  1  -0.125906  0  -0.236205  -0.467963  0  3.920576  0
C  C65  1  0.83591537  0.82712365  0.70681237  1  -0.107814  0  -0.024421  -0.04194  0  3.99298  0
C  C66  1  0.95239298  0.83089659  0.71519803  1  1.562208  0  0.212362  0.586167  0  4.178732  0
C  C67  1  0.75617297  0.80427087  0.60697191  1  -0.070724  0  -0.092983  -0.103657  0  4.005495  0
C  C68  1  0.64934871  0.80266230  0.59998336  1  0.014051  0  -0.091713  -0.134294  0  4.00241  0
C  C69  1  0.61668448  0.82687115  0.69226322  1  -0.051859  0  -0.007084  0.07647  0  4.016037  0
C  C70  1  0.14934979  0.63732859  0.72744738  1  1.581262  0  0.214128  0.590794  0  4.170828  0
C  C71  1  0.14660223  0.52114411  0.72013162  1  -0.052139  0  -0.018998  -0.030118  0  3.986959  0
C  C72  1  0.11819445  0.44106252  0.62016516  1  -0.057293  0  -0.087157  -0.09491  0  3.983299  0
C  C73  1  0.11986606  0.33451857  0.61362049  1  -0.059226  0  -0.092396  -0.136317  0  3.974581  0
C  C74  1  0.17302679  0.49211758  0.81171292  1  -0.069208  0  -0.082468  -0.144225  0  3.942042  0
C  C75  1  0.14798948  0.30283344  0.70650359  1  -0.012889  0  -0.008811  0.07363  0  4.000778  0
C  C76  1  0.15103066  0.19417519  0.70238330  1  0.022277  0  -0.080861  -0.135655  0  3.944852  0
C  C77  1  0.10222954  0.89820457  0.45840569  1  0.489873  0  0.053773  0.111886  0  3.934873  0
C  C78  1  0.10924941  0.91561949  0.36667058  1  -0.030414  0  -0.080745  -0.174096  0  3.926257  0
C  C79  1  0.14848072  0.83752733  0.29855028  1  -0.083185  0  0.017104  0.120046  0  3.989082  0
C  C80  1  0.17532013  0.74469044  0.32558658  1  -0.003409  0  -0.081747  -0.236462  0  3.897403  0
C  C81  1  0.16464211  0.73108049  0.41829296  1  0.532036  0  0.133459  0.336058  0  3.932892  0
C  C82  1  0.19133736  0.63150978  0.44699605  1  -0.125874  0  -0.236151  -0.467816  0  3.920453  0
C  C83  1  0.17288594  0.16408110  0.79317967  1  -0.107889  0  -0.024575  -0.04196  0  3.993076  0
C  C84  1  0.16911405  0.04761091  0.78480960  1  1.562059  0  0.212324  0.586004  0  4.178497  0
C  C85  1  0.19573222  0.24382361  0.89302471  1  -0.070863  0  -0.092923  -0.103693  0  4.005363  0
C  C86  1  0.19733856  0.35064887  0.90001115  1  0.014089  0  -0.091692  -0.134318  0  4.00248  0
C  C87  1  0.17312820  0.38331390  0.80773306  1  -0.052044  0  -0.00707  0.076609  0  4.015891  0
C  C88  1  0.63733276  0.14936634  0.22746481  1  1.580176  0  0.214218  0.590709  0  4.17095  0
C  C89  1  0.52114544  0.14660841  0.22013219  1  -0.051036  0  -0.019034  -0.030077  0  3.986889  0
C  C90  1  0.44106100  0.11820060  0.12016982  1  -0.058103  0  -0.087163  -0.09503  0  3.983387  0
C  C91  1  0.33452040  0.11987219  0.11362282  1  -0.059344  0  -0.092283  -0.136174  0  3.974613  0
C  C92  1  0.49211718  0.17303325  0.31171723  1  -0.069324  0  -0.082423  -0.144077  0  3.941944  0
C  C93  1  0.30283640  0.14799204  0.20650866  1  -0.012806  0  -0.008804  0.073766  0  4.000642  0
C  C94  1  0.19417883  0.15103223  0.20238721  1  0.022093  0  -0.080918  -0.135767  0  3.944911  0
C  C95  1  0.89820864  0.10223120  0.95840889  1  0.489829  0  0.053709  0.111717  0  3.935013  0
C  C96  1  0.91561874  0.10925320  0.86667381  1  -0.030505  0  -0.080696  -0.173967  0  3.926401  0
C  C97  1  0.83753216  0.14848172  0.79855459  1  -0.060838  0  0.01709  0.120123  0  3.98903  0
C  C98  1  0.74469044  0.17531880  0.82558931  1  -0.003319  0  -0.081865  -0.236709  0  3.89718  0
C  C99  1  0.73108198  0.16464262  0.91829800  1  0.531899  0  0.133574  0.336196  0  3.932603  0
C  C100  1  0.63151078  0.19133662  0.94700022  1  -0.125987  0  -0.236219  -0.467957  0  3.920437  0
C  C101  1  0.16408378  0.17288062  0.29318777  1  -0.107782  0  -0.024441  -0.041901  0  3.993166  0
C  C102  1  0.04761743  0.16910504  0.28481450  1  1.562217  0  0.21233  0.586269  0  4.178506  0
C  C103  1  0.24382458  0.19573083  0.39302928  1  -0.07092  0  -0.092985  -0.103669  0  4.005429  0
C  C104  1  0.35065203  0.19733975  0.40001590  1  0.013977  0  -0.091683  -0.134232  0  4.002286  0
C  C105  1  0.38331707  0.17313340  0.30773836  1  -0.05182  0  -0.007094  0.076376  0  4.016011  0
C  C106  1  0.85064698  0.36267464  0.27255760  1  1.580913  0  0.214126  0.590758  0  4.170664  0
C  C107  1  0.85339045  0.47885540  0.27985905  1  -0.051267  0  -0.01902  -0.030116  0  3.986994  0
C  C108  1  0.88180546  0.55893466  0.37983186  1  -0.058098  0  -0.087131  -0.094927  0  3.98315  0
C  C109  1  0.88013627  0.66548048  0.38637839  1  -0.058615  0  -0.092325  -0.136097  0  3.974421  0
C  C110  1  0.82696833  0.50788542  0.18828365  1  -0.069317  0  -0.082474  -0.144189  0  3.94235  0
C  C111  1  0.85201203  0.69716472  0.29349340  1  -0.013465  0  -0.008802  0.073634  0  4.000682  0
C  C112  1  0.84897328  0.80582485  0.29761843  1  0.022247  0  -0.080958  -0.13589  0  3.944909  0
C  C113  1  0.89776879  0.10179245  0.54159373  1  0.490494  0  0.053816  0.111967  0  3.934854  0
C  C114  1  0.89074892  0.08437911  0.63332927  1  -0.030572  0  -0.080759  -0.174153  0  3.926338  0
C  C115  1  0.85151920  0.16247145  0.70144861  1  -0.083171  0  0.017146  0.120101  0  3.989194  0
C  C116  1  0.82467901  0.25530905  0.67441372  1  -0.002933  0  -0.081817  -0.236578  0  3.897348  0
C  C117  1  0.83535622  0.26891970  0.58170588  1  0.531995  0  0.13342  0.336029  0  3.932824  0
C  C118  1  0.80866416  0.36848679  0.55300195  1  -0.12585  0  -0.236208  -0.467877  0  3.920315  0
C  C119  1  0.82711795  0.83591889  0.20681413  1  -0.107808  0  -0.024531  -0.042005  0  3.99301  0
C  C120  1  0.83089239  0.95239664  0.21520561  1  1.562184  0  0.212465  0.586248  0  4.178624  0
C  C121  1  0.80426531  0.75617490  0.10697490  1  -0.070889  0  -0.092924  -0.103562  0  4.005682  0
C  C122  1  0.80265415  0.64935147  0.09998406  1  0.014071  0  -0.09172  -0.134453  0  4.002612  0
C  C123  1  0.82686770  0.61668361  0.19226153  1  -0.051835  0  -0.007055  0.0766  0  4.015979  0
N  N124  1  0.19085633  0.87080096  0.01552197  1  -1.222367  0  -0.319313  -0.270717  0  3.450986  0
N  N125  1  0.12920112  0.80914269  0.48447843  1  -1.22177  0  -0.319343  -0.270684  0  3.450922  0
N  N126  1  0.80914522  0.12920121  0.98448113  1  -1.221695  0  -0.319297  -0.270461  0  3.450645  0
N  N127  1  0.87079962  0.19085461  0.51552316  1  -1.222144  0  -0.319327  -0.270703  0  3.450918  0
O  O128  1  0.33925356  0.89288287  0.85717902  1  -1.167603  0  -0.31313  -0.542762  0  2.324479  0
O  O129  1  0.29578784  0.80510748  0.68166613  1  -1.178637  0  -0.316925  -0.556915  0  2.373507  0
O  O130  1  0.97748167  0.83417468  0.63356626  1  -1.169863  0  -0.315967  -0.549479  0  2.328806  0
O  O131  1  0.01832514  0.83269086  0.80304286  1  -1.184612  0  -0.315274  -0.561952  0  2.359511  0
O  O132  1  0.10710636  0.66074724  0.64282127  1  -1.167739  0  -0.313135  -0.542738  0  2.324676  0
O  O133  1  0.19488153  0.70421122  0.81833306  1  -1.179137  0  -0.316888  -0.556861  0  2.373398  0
O  O134  1  0.16582217  0.02251890  0.86643109  1  -1.169863  0  -0.315859  -0.549346  0  2.329098  0
O  O135  1  0.16732568  0.98166708  0.69695441  1  -1.184526  0  -0.315286  -0.561981  0  2.358897  0
O  O136  1  0.66074793  0.10710813  0.14281675  1  -1.167429  0  -0.313225  -0.542816  0  2.324012  0
O  O137  1  0.70421048  0.19488953  0.31833113  1  -1.178226  0  -0.316842  -0.556715  0  2.374115  0
O  O138  1  0.02252221  0.16581817  0.36642850  1  -1.17029  0  -0.315903  -0.549518  0  2.329277  0
O  O139  1  0.98166757  0.16731185  0.19695227  1  -1.184383  0  -0.315294  -0.562072  0  2.358704  0
O  O140  1  0.89288315  0.33925670  0.35717333  1  -1.167844  0  -0.313008  -0.542557  0  2.324922  0
O  O141  1  0.80510793  0.29578475  0.18165723  1  -1.178672  0  -0.31701  -0.557014  0  2.372907  0
O  O142  1  0.83417218  0.97748720  0.13356826  1  -1.169749  0  -0.316028  -0.54954  0  2.328594  0
O  O143  1  0.83269023  0.01832557  0.30304640  1  -1.184805  0  -0.315246  -0.561879  0  2.359624  0
