# generated using pymatgen
data_CuHCN7
_symmetry_space_group_name_H-M   'P 1'
_cell_length_a   6.81198419
_cell_length_b   7.48578872
_cell_length_c   9.61683887
_cell_angle_alpha   89.99985456
_cell_angle_beta   90.00155553
_cell_angle_gamma   89.99943298
_symmetry_Int_Tables_number   1
_chemical_formula_structural   CuHCN7
_chemical_formula_sum   'Cu4 H4 C4 N28'
_cell_volume   490.39217949
_cell_formula_units_Z   4
loop_
 _symmetry_equiv_pos_site_id
 _symmetry_equiv_pos_as_xyz
  1  'x, y, z'
loop_
 _atom_site_type_symbol
 _atom_site_label
 _atom_site_symmetry_multiplicity
 _atom_site_fract_x
 _atom_site_fract_y
 _atom_site_fract_z
 _atom_site_occupancy
 _atom_site_hle17_ddec_charge
 _atom_site_hle17_ddec_spin_density
 _atom_site_hle17_ddec_sum_bond_order
 _atom_site_hle17_magmom
 _atom_site_hse06_10hf_ddec_charge
 _atom_site_hse06_10hf_ddec_spin_density
 _atom_site_hse06_10hf_ddec_sum_bond_order
 _atom_site_hse06_10hf_magmom
 _atom_site_hse06_ddec_charge
 _atom_site_hse06_ddec_spin_density
 _atom_site_hse06_ddec_sum_bond_order
 _atom_site_hse06_magmom
 _atom_site_pbe_cm5_charge
 _atom_site_pbe_ddec_charge
 _atom_site_pbe_ddec_spin_density
 _atom_site_pbe_ddec_sum_bond_order
 _atom_site_pbe_magmom
Cu  Cu0  1  0.09241983  0.76788030  0.51951394  1  0.689136  -0.546995  2.092932  -0.395  0.669169  -0.699724  2.517426  -0.556  0.756424  -0.812609  2.452833  -0.666  0.793696  0.617717  -0.56674  2.561631  -0.443
Cu  Cu1  1  0.40757940  0.23212322  0.01951418  1  0.689046  -0.546941  2.092794  -0.395  0.669137  -0.699702  2.517254  -0.556  0.756383  -0.812597  2.452716  -0.666  0.793682  0.617679  -0.566694  2.561542  -0.444
Cu  Cu2  1  0.59241600  0.73211024  0.48048400  1  0.689069  0.54699  2.092783  0.395  0.66908  0.699717  2.517287  0.556  0.756356  0.812611  2.452718  0.666  0.793686  0.61763  0.566709  2.561564  0.444
Cu  Cu3  1  0.90758311  0.26788422  0.98048430  1  0.689083  0.546953  2.092807  0.395  0.669155  0.69971  2.517282  0.556  0.756437  0.812598  2.45272  0.666  0.793703  0.617702  0.566723  2.561512  0.443
H  H4  1  0.46956120  0.97544478  0.73152875  1  0.107313  3.5e-05  0.915972  0.0  0.11685  -3.5e-05  0.975685  0.0  0.120269  -7.7e-05  0.969925  0.0  0.143227  0.113708  1.4e-05  0.980696  0.0
H  H5  1  0.03043608  0.02457400  0.23153269  1  0.107316  3.7e-05  0.915948  0.0  0.116868  -3.5e-05  0.975657  0.0  0.120286  -7.7e-05  0.969895  0.0  0.143261  0.113729  1.4e-05  0.980657  0.0
H  H6  1  0.96957175  0.52455023  0.26847730  1  0.107368  -3.8e-05  0.915868  0.0  0.116873  3.5e-05  0.975627  0.0  0.120293  7.7e-05  0.969866  0.0  0.143218  0.113735  -1.4e-05  0.980626  0.0
H  H7  1  0.53044252  0.47543432  0.76846393  1  0.107334  -3.3e-05  0.915883  0.0  0.116874  3.5e-05  0.975592  0.0  0.120293  7.7e-05  0.969827  0.0  0.143219  0.11373  -1.4e-05  0.980604  0.0
C  C8  1  0.31918777  0.00086810  0.76259869  1  0.192853  0.004494  3.685688  0.004  0.147966  0.001579  3.95903  0.001  0.162984  0.001825  3.969103  0.002  0.157591  0.138576  0.001316  3.953428  0.001
C  C9  1  0.18080632  0.99914122  0.26260166  1  0.192892  0.004487  3.685728  0.004  0.14797  0.001579  3.959083  0.001  0.162989  0.001824  3.969154  0.002  0.157513  0.138581  0.001316  3.953479  0.001
C  C10  1  0.81919658  0.49912682  0.23740333  1  0.19273  -0.004501  3.685779  -0.004  0.147859  -0.00158  3.959121  -0.001  0.162877  -0.001826  3.969196  -0.002  0.157516  0.138468  -0.001317  3.953512  -0.001
C  C11  1  0.68081794  0.50086319  0.73740002  1  0.192765  -0.004487  3.685693  -0.004  0.147866  -0.001579  3.959061  -0.001  0.162889  -0.001825  3.969134  -0.002  0.157564  0.13848  -0.001316  3.953454  -0.001
N  N12  1  0.15873943  0.93704019  0.69918780  1  -0.267845  0.000863  3.175401  0.0  -0.235379  0.000629  3.491093  0.0  -0.255521  0.000109  3.502894  -0.001  -0.233356  -0.222864  0.000817  3.484398  0.0
N  N13  1  0.34125658  0.06296134  0.19919022  1  -0.267831  0.000867  3.175465  0.0  -0.235363  0.000628  3.491161  0.0  -0.255506  0.000107  3.502967  -0.001  -0.233336  -0.22285  0.000817  3.48448  0.0
N  N14  1  0.65874498  0.56295507  0.30081450  1  -0.267701  -0.000851  3.175419  0.0  -0.235202  -0.000629  3.491052  0.0  -0.255351  -0.000107  3.502863  0.001  -0.233273  -0.222692  -0.000817  3.484372  0.0
N  N15  1  0.84126322  0.43704139  0.80081222  1  -0.26775  -0.000871  3.175398  0.0  -0.235287  -0.000629  3.491094  0.0  -0.255439  -0.000108  3.502911  0.001  -0.233321  -0.222771  -0.000817  3.484397  0.0
N  N16  1  0.33458529  0.60980895  0.53219931  1  -0.502456  0.005864  2.882903  0.007  -0.568017  0.000453  3.30433  0.001  -0.629096  6.6e-05  3.322873  0.0  -0.351957  -0.530543  0.000525  3.293104  0.001
N  N17  1  0.16540269  0.39019586  0.03220098  1  -0.50238  0.005865  2.883464  0.007  -0.567944  0.000451  3.304878  0.001  -0.629022  6.6e-05  3.323433  0.0  -0.351822  -0.530469  0.000524  3.293661  0.001
N  N18  1  0.83459107  0.89017664  0.46779485  1  -0.502219  -0.005861  2.883165  -0.007  -0.567815  -0.000451  3.30462  -0.001  -0.628883  -6.6e-05  3.323154  0.0  -0.351823  -0.530344  -0.000523  3.2934  -0.001
N  N19  1  0.66541342  0.10982055  0.96779713  1  -0.502133  -0.005859  2.883419  -0.007  -0.567757  -0.000452  3.304893  -0.001  -0.628819  -6.6e-05  3.323438  0.0  -0.351752  -0.53029  -0.000523  3.293679  -0.001
N  N20  1  0.93018757  0.59994863  0.62891755  1  -0.081791  -0.04901  3.306199  -0.061  -0.046512  -0.041572  3.620977  -0.056  -0.062836  -0.038049  3.637228  -0.053  -0.139574  -0.037994  -0.037918  3.613166  -0.049
N  N21  1  0.56982268  0.40005379  0.12891221  1  -0.081548  -0.049005  3.306054  -0.061  -0.046321  -0.041569  3.62088  -0.056  -0.062647  -0.038046  3.637139  -0.053  -0.139557  -0.037803  -0.037915  3.613096  -0.049
N  N22  1  0.43017831  0.90005209  0.37108464  1  -0.081579  0.049008  3.306003  0.061  -0.046353  0.041568  3.620836  0.056  -0.06269  0.038045  3.637096  0.053  -0.139595  -0.037836  0.037913  3.613052  0.049
N  N23  1  0.06981565  0.09994347  0.87108306  1  -0.081519  0.049004  3.306018  0.061  -0.046338  0.041567  3.620894  0.056  -0.06267  0.038044  3.63716  0.053  -0.139533  -0.03782  0.037914  3.613083  0.049
N  N24  1  0.23330909  0.89655573  0.37007519  1  -0.249844  -0.048456  3.306253  -0.061  -0.20998  -0.040573  3.613393  -0.055  -0.233339  -0.037269  3.629791  -0.053  -0.261386  -0.196956  -0.037014  3.605394  -0.049
N  N25  1  0.26668042  0.10345320  0.87007522  1  -0.249842  -0.048456  3.306303  -0.061  -0.209987  -0.040571  3.613456  -0.055  -0.23335  -0.037268  3.629865  -0.053  -0.261432  -0.196967  -0.03701  3.605495  -0.049
N  N26  1  0.73332422  0.60344952  0.62992539  1  -0.249711  0.048455  3.306345  0.061  -0.209864  0.040572  3.613445  0.055  -0.233236  0.037269  3.62986  0.053  -0.2614  -0.196843  0.037011  3.605476  0.049
N  N27  1  0.76668754  0.39654889  0.12992583  1  -0.249797  0.048461  3.306401  0.061  -0.209943  0.040573  3.613522  0.055  -0.233311  0.037269  3.629937  0.053  -0.261404  -0.196921  0.037016  3.605528  0.049
N  N28  1  0.00352804  0.00079743  0.76907500  1  -0.041274  -0.004176  2.915996  -0.004  -0.036947  -0.00156  3.207799  -0.002  -0.029043  -0.001462  3.220162  -0.002  -0.086369  -0.042034  -0.001593  3.200385  -0.001
N  N29  1  0.49646925  0.99919583  0.26907452  1  -0.041306  -0.004177  2.916224  -0.004  -0.036997  -0.00156  3.208019  -0.002  -0.029092  -0.001462  3.220383  -0.002  -0.086349  -0.042087  -0.001593  3.200606  -0.001
N  N30  1  0.50353365  0.49920045  0.23092320  1  -0.041346  0.00417  2.916212  0.004  -0.037054  0.001561  3.208032  0.002  -0.029147  0.001463  3.220395  0.002  -0.086389  -0.042145  0.001594  3.20062  0.001
N  N31  1  0.99647474  0.50080427  0.73092891  1  -0.041171  0.004182  2.915979  0.004  -0.036881  0.001562  3.207759  0.002  -0.028979  0.001464  3.220123  0.002  -0.086366  -0.041971  0.001595  3.200346  0.001
N  N32  1  0.32189210  0.44766446  0.52063524  1  0.37683  -0.002008  4.106622  -0.003  0.42446  -9.5e-05  4.434038  0.0  0.445836  -0.000138  4.473393  0.0  0.099201  0.411107  -5.9e-05  4.406204  0.0
N  N33  1  0.17808809  0.55233237  0.02063894  1  0.376851  -0.002007  4.10669  -0.003  0.424483  -9.5e-05  4.434099  0.0  0.445862  -0.000138  4.473458  0.0  0.099148  0.41113  -5.8e-05  4.406276  0.0
N  N34  1  0.82190184  0.05231306  0.47936268  1  0.376792  0.002002  4.106408  0.003  0.424453  9.4e-05  4.433785  0.0  0.445826  0.000138  4.473143  0.0  0.099128  0.411099  5.8e-05  4.405958  0.0
N  N35  1  0.67810017  0.94769343  0.97935956  1  0.376801  0.002012  4.106504  0.003  0.424452  9.5e-05  4.433937  0.0  0.445825  0.000137  4.4733  0.0  0.099156  0.411104  5.8e-05  4.406106  0.0
N  N36  1  0.31185894  0.29376224  0.51198275  1  -0.223135  0.005976  2.337975  0.007  -0.261716  0.000961  2.580294  0.001  -0.275775  0.000965  2.598977  0.001  -0.121016  -0.250823  0.000648  2.566413  0.001
N  N37  1  0.18812091  0.70624398  0.01198741  1  -0.223227  0.005988  2.337491  0.007  -0.261834  0.00096  2.579832  0.001  -0.275904  0.000967  2.59852  0.001  -0.1211  -0.250934  0.000641  2.565956  0.001
N  N38  1  0.81186889  0.20622339  0.48801914  1  -0.22334  -0.005984  2.337502  -0.007  -0.261968  -0.00096  2.579855  -0.001  -0.276038  -0.000967  2.598544  -0.001  -0.12115  -0.251068  -0.000641  2.565975  -0.001
N  N39  1  0.68812611  0.79376704  0.98801336  1  -0.223435  -0.006  2.337244  -0.007  -0.262055  -0.000962  2.579593  -0.001  -0.276132  -0.000966  2.598288  -0.001  -0.121251  -0.251151  -0.000648  2.565712  -0.001
