# generated using pymatgen
data_CoH18C14Br4(NO4)2
_symmetry_space_group_name_H-M   'P 1'
_cell_length_a   8.38692702
_cell_length_b   9.15979093
_cell_length_c   9.78795131
_cell_angle_alpha   78.41269745
_cell_angle_beta   75.30638792
_cell_angle_gamma   91.56505368
_symmetry_Int_Tables_number   1
_chemical_formula_structural   CoH18C14Br4(NO4)2
_chemical_formula_sum   'Co1 H18 C14 Br4 N2 O8'
_cell_volume   710.08598813
_cell_formula_units_Z   1
loop_
 _symmetry_equiv_pos_site_id
 _symmetry_equiv_pos_as_xyz
  1  'x, y, z'
loop_
 _atom_site_type_symbol
 _atom_site_label
 _atom_site_symmetry_multiplicity
 _atom_site_fract_x
 _atom_site_fract_y
 _atom_site_fract_z
 _atom_site_occupancy
 _atom_site_hse06_10hf_bader_charge
 _atom_site_hse06_10hf_bader_spin_density
 _atom_site_hse06_10hf_ddec_charge
 _atom_site_hse06_10hf_ddec_spin_density
 _atom_site_hse06_10hf_ddec_sum_bond_order
 _atom_site_hse06_10hf_magmom
 _atom_site_hse06_ddec_charge
 _atom_site_hse06_ddec_spin_density
 _atom_site_hse06_ddec_sum_bond_order
 _atom_site_hse06_magmom
 _atom_site_pbe_cm5_charge
 _atom_site_pbe_ddec_charge
 _atom_site_pbe_ddec_spin_density
 _atom_site_pbe_ddec_sum_bond_order
 _atom_site_pbe_magmom
Co  Co0  1  0.99999913  0.49999796  0.50000525  1  1.235212  0.955992  0.910579  1.012452  2.596959  0.95  1.013635  1.006167  2.494695  0.949  0.564482  0.85125  1.012067  2.660765  0.945
H  H1  1  0.72055300  0.40491762  0.41709913  1  0.608821  0.000654  0.382407  0.000243  0.919631  0.0  0.391952  5.9e-05  0.906963  0.0  0.298252  0.376027  0.000463  0.927081  0.001
H  H2  1  0.27945129  0.59508384  0.58290414  1  0.608778  0.000655  0.382482  0.000243  0.919566  0.0  0.392029  6e-05  0.906857  0.0  0.298304  0.376096  0.000463  0.927031  0.001
H  H3  1  0.89662816  0.40613208  0.30849846  1  0.652439  -0.000341  0.369214  -0.000319  0.985449  0.0  0.380476  -0.000402  0.969082  0.0  0.278458  0.361611  -0.00021  0.996486  0.0
H  H4  1  0.10337469  0.59386610  0.69150158  1  0.652438  -0.000341  0.369251  -0.000319  0.985387  0.0  0.38051  -0.000402  0.969024  0.0  0.278499  0.361649  -0.00021  0.996422  0.0
H  H5  1  0.13745570  0.75814021  0.25374483  1  0.136447  0.000256  0.050187  -1.5e-05  1.04557  0.0  0.05222  4.5e-05  1.039541  0.0  0.118693  0.048425  -0.000157  1.050611  0.0
H  H6  1  0.86254586  0.24185680  0.74625671  1  0.13647  0.000256  0.050257  -1.5e-05  1.045586  0.0  0.052288  4.5e-05  1.039555  0.0  0.1187  0.048497  -0.000157  1.050628  0.0
H  H7  1  0.82091312  0.92357448  0.48713677  1  0.071922  2e-06  0.123998  -2.4e-05  1.032973  0.0  0.125967  -1.3e-05  1.031736  0.0  0.101875  0.122566  -2.6e-05  1.033737  0.0
H  H8  1  0.17909625  0.07642927  0.51286807  1  0.071953  2e-06  0.123994  -2.4e-05  1.033073  0.0  0.125964  -1.3e-05  1.031834  0.0  0.101858  0.122566  -2.6e-05  1.033833  0.0
H  H9  1  0.77248651  0.02902434  0.32922915  1  0.046841  -0.000163  0.100906  -0.000145  1.017976  0.0  0.101433  -0.000112  1.017467  0.0  0.092221  0.100141  -0.000192  1.018764  0.0
H  H10  1  0.22752293  0.97098041  0.67077960  1  0.046683  -0.000163  0.100906  -0.000145  1.018002  0.0  0.101431  -0.000112  1.017494  0.0  0.092227  0.100143  -0.000193  1.018794  0.0
H  H11  1  0.92050175  0.10803803  0.40188408  1  0.076648  -0.000214  0.135865  -0.000228  1.003228  0.0  0.136855  -0.000246  1.003384  0.0  0.107556  0.134814  -0.000137  1.003513  0.0
H  H12  1  0.07951105  0.89196144  0.59811764  1  0.07608  -0.000214  0.135923  -0.000228  1.003217  0.0  0.136912  -0.000246  1.003377  0.0  0.107607  0.134879  -0.000137  1.00349  0.0
H  H13  1  0.18590931  0.96503402  0.09825440  1  0.061126  2.7e-05  0.10726  2.7e-05  1.024767  0.0  0.10798  2.2e-05  1.024527  0.0  0.100544  0.106612  3.4e-05  1.025012  0.0
H  H14  1  0.81408729  0.03496299  0.90174313  1  0.061168  2.7e-05  0.107268  2.7e-05  1.024736  0.0  0.10799  2.2e-05  1.024498  0.0  0.10055  0.106623  3.4e-05  1.024979  0.0
H  H15  1  0.14666912  0.13240325  0.16794212  1  0.120212  1.2e-05  0.136983  5e-06  1.022161  0.0  0.139104  3.1e-05  1.021053  0.0  0.101592  0.135253  -7.6e-05  1.023115  0.0
H  H16  1  0.85333236  0.86759275  0.83205552  1  0.120168  1.2e-05  0.136984  5e-06  1.022092  0.0  0.139104  3e-05  1.020988  0.0  0.101606  0.135254  -7.6e-05  1.023045  0.0
H  H17  1  0.00402787  0.05879843  0.08750258  1  0.036656  -0.000323  0.107524  -0.000277  1.022596  0.0  0.107932  -0.000298  1.022868  0.0  0.092109  0.106954  -0.000141  1.022709  0.0
H  H18  1  0.99596634  0.94119943  0.91250249  1  0.036579  -0.000324  0.107494  -0.000277  1.022621  0.0  0.107918  -0.000299  1.022877  0.0  0.092098  0.10692  -0.000141  1.022734  0.0
C  C19  1  0.80692583  0.55668482  0.76631301  1  1.669762  -0.002346  0.60089  -0.003174  4.227678  -0.002  0.639539  -0.001481  4.2202  -0.001  0.202027  0.573636  -0.005045  4.23303  -0.003
C  C20  1  0.19307942  0.44331246  0.23368155  1  1.669655  -0.002346  0.600953  -0.003174  4.227281  -0.002  0.639605  -0.00148  4.219798  -0.001  0.20198  0.573698  -0.005045  4.232643  -0.003
C  C21  1  0.64650852  0.52612369  0.88578833  1  0.096011  -0.000392  -0.092125  -0.000712  3.976731  0.0  -0.094886  -0.000486  3.992926  0.0  -0.021655  -0.090343  -0.00061  3.9662  0.0
C  C22  1  0.35348599  0.47388001  0.11420651  1  0.0962  -0.000392  -0.091889  -0.000712  3.97621  0.0  -0.09465  -0.000485  3.992406  0.0  -0.021502  -0.090124  -0.00061  3.965702  0.0
C  C23  1  0.50762728  0.60301191  0.87221020  1  -0.081337  9.5e-05  0.044932  -9e-06  3.9575  0.0  0.048043  4.4e-05  3.977332  0.0  -0.02041  0.042519  -5.7e-05  3.944678  0.0
C  C24  1  0.49237222  0.39699319  0.12777821  1  -0.081656  9.6e-05  0.044865  -8e-06  3.957345  0.0  0.047976  4.2e-05  3.977179  0.0  -0.020433  0.042459  -5.7e-05  3.944521  0.0
C  C25  1  0.36202172  0.57707381  0.98503491  1  -0.02097  0.000144  0.029862  3e-05  3.97433  0.0  0.032656  4e-05  3.994526  0.0  -0.022075  0.027698  6.5e-05  3.961204  0.0
C  C26  1  0.63797185  0.42293578  0.01494692  1  -0.020366  0.000144  0.029999  2.9e-05  3.974732  0.0  0.032794  4.2e-05  3.994928  0.0  -0.021973  0.027834  6.5e-05  3.961591  0.0
C  C27  1  0.03930533  0.79635957  0.33335741  1  1.384996  -0.003941  0.312167  -0.005347  4.042475  -0.003  0.345542  -0.003388  4.043952  -0.002  0.174095  0.287552  -0.007597  4.043256  -0.004
C  C28  1  0.96069415  0.20364401  0.66664556  1  1.384898  -0.003944  0.311882  -0.005351  4.042424  -0.003  0.345265  -0.003385  4.0439  -0.002  0.173963  0.287259  -0.007605  4.043207  -0.004
C  C29  1  0.87110307  0.00313714  0.38409630  1  0.296314  -3.2e-05  -0.269284  -0.000201  3.869785  0.0  -0.266097  -0.000165  3.879242  0.0  -0.136775  -0.270949  -0.00019  3.86354  0.0
C  C30  1  0.12890383  0.99686649  0.61591115  1  0.297013  -3.2e-05  -0.269334  -0.000202  3.870056  0.0  -0.266153  -0.000167  3.879524  0.0  -0.136797  -0.271007  -0.00019  3.863804  0.0
C  C31  1  0.09091953  0.02845022  0.15400029  1  0.271192  0.000254  -0.276873  5e-06  3.905979  0.0  -0.274685  -0.0  3.916982  0.0  -0.137023  -0.277872  2.4e-05  3.898714  0.0
C  C32  1  0.90908338  0.97154912  0.84599853  1  0.271246  0.000254  -0.276831  5e-06  3.905868  0.0  -0.274659  2e-06  3.916863  0.0  -0.137011  -0.277823  2.4e-05  3.898601  0.0
Br  Br33  1  0.52309158  0.74528850  0.69717033  1  -0.053502  0.000886  -0.027179  0.000415  1.515961  0.0  -0.028157  0.000306  1.50458  0.0  0.061459  -0.027068  0.000521  1.524707  0.0
Br  Br34  1  0.47689312  0.25469485  0.30283003  1  -0.053437  0.000885  -0.027299  0.000415  1.515682  0.0  -0.028276  0.000305  1.504302  0.0  0.06137  -0.027194  0.00052  1.524425  0.0
Br  Br35  1  0.17107282  0.67575987  0.96516430  1  -0.015799  0.000572  0.00191  0.000274  1.683645  0.0  -0.000243  0.00023  1.672448  0.0  0.085407  0.00325  0.000269  1.691964  0.0
Br  Br36  1  0.82890927  0.32424237  0.03483353  1  -0.015693  0.000573  0.001928  0.000274  1.683597  0.0  -0.000227  0.000229  1.672398  0.0  0.085417  0.003265  0.000269  1.691911  0.0
N  N37  1  0.00250808  0.93686950  0.29375963  1  -1.262821  -0.003286  0.031007  -0.003654  3.72  -0.003  0.01162  -0.003396  3.744074  -0.002  -0.279662  0.043636  -0.003418  3.704023  -0.003
N  N38  1  0.99749490  0.06313092  0.70624001  1  -1.26277  -0.003287  0.031056  -0.003655  3.720096  -0.003  0.01167  -0.0034  3.744172  -0.002  -0.279692  0.043684  -0.003421  3.704124  -0.003
O  O39  1  0.81513537  0.48070023  0.66838785  1  -1.132182  -0.009184  -0.54921  -0.009735  2.413121  -0.008  -0.596903  -0.008347  2.404227  -0.007  -0.305358  -0.517268  -0.009644  2.418635  -0.007
O  O40  1  0.18485155  0.51929972  0.33161645  1  -1.132174  -0.009188  -0.549405  -0.009739  2.412895  -0.008  -0.597104  -0.008349  2.403999  -0.007  -0.30545  -0.517451  -0.009649  2.418399  -0.007
O  O41  1  0.91478290  0.64813389  0.77678891  1  -1.189187  -0.0015  -0.555992  -0.001646  2.245514  -0.001  -0.582624  -0.000933  2.237835  -0.001  -0.304398  -0.537589  -0.002424  2.250648  -0.002
O  O42  1  0.08521176  0.35187185  0.22321272  1  -1.18922  -0.001501  -0.555903  -0.001647  2.245451  -0.001  -0.582537  -0.000933  2.237773  -0.001  -0.304301  -0.5375  -0.002425  2.250586  -0.002
O  O43  1  0.82182592  0.46775661  0.36569426  1  -1.251216  0.042803  -0.775555  0.021977  2.074338  0.035  -0.798642  0.018513  2.039912  0.03  -0.58145  -0.758159  0.025704  2.095687  0.04
O  O44  1  0.17817608  0.53224828  0.63430385  1  -1.251075  0.042794  -0.775652  0.021976  2.074395  0.035  -0.798738  0.018512  2.039929  0.03  -0.581533  -0.758254  0.025703  2.095759  0.04
O  O45  1  0.96917988  0.71163415  0.45355847  1  -1.140254  -0.001971  -0.444293  -0.00371  2.523779  -0.001  -0.486  -0.003103  2.516185  0.001  -0.287791  -0.41718  -0.00318  2.528925  -0.001
O  O46  1  0.03082823  0.28836979  0.54643844  1  -1.140267  -0.001969  -0.444109  -0.003709  2.523646  -0.001  -0.485821  -0.003103  2.516061  0.001  -0.28766  -0.416992  -0.003178  2.52879  -0.001
