# generated using pymatgen
data_ZnH6C9NO4
_symmetry_space_group_name_H-M   'P 1'
_cell_length_a   9.59416748
_cell_length_b   11.06061561
_cell_length_c   11.21026508
_cell_angle_alpha   88.27471318
_cell_angle_beta   90.28730026
_cell_angle_gamma   90.14670943
_symmetry_Int_Tables_number   1
_chemical_formula_structural   ZnH6C9NO4
_chemical_formula_sum   'Zn2 H12 C18 N2 O8'
_cell_volume   1189.04648039
_cell_formula_units_Z   2
loop_
 _symmetry_equiv_pos_site_id
 _symmetry_equiv_pos_as_xyz
  1  'x, y, z'
loop_
 _atom_site_type_symbol
 _atom_site_label
 _atom_site_symmetry_multiplicity
 _atom_site_fract_x
 _atom_site_fract_y
 _atom_site_fract_z
 _atom_site_occupancy
 _atom_site_pbe_bader_charge
 _atom_site_pbe_bader_spin_density
 _atom_site_pbe_cm5_charge
 _atom_site_pbe_ddec_charge
 _atom_site_pbe_ddec_spin_density
 _atom_site_pbe_ddec_sum_bond_order
 _atom_site_pbe_magmom
Zn  Zn0  1  0.36041955  0.49966143  0.49869242  1  1.274865  0  0.658644  0.802343  0  2.457015  0
Zn  Zn1  1  0.64274280  0.50039302  0.50069433  1  1.274267  0  0.660068  0.801838  0  2.457555  0
H  H2  1  0.70595105  0.47946442  0.11034714  1  0.083627  0  0.105031  0.102087  0  0.988649  0
H  H3  1  0.86917330  0.63666059  0.62244597  1  0.147038  0  0.14183  0.122788  0  0.95842  0
H  H4  1  0.13387080  0.36316765  0.37688575  1  0.149328  0  0.141924  0.124015  0  0.958867  0
H  H5  1  0.13735816  0.63692539  0.62129599  1  0.14294  0  0.142117  0.12396  0  0.958834  0
H  H6  1  0.70607486  0.51975495  0.89084319  1  0.08737  0  0.104816  0.101853  0  0.989159  0
H  H7  1  0.39523034  0.54684432  0.09537619  1  0.062613  0  0.106002  0.123312  0  0.992233  0
H  H8  1  0.39468804  0.45344779  0.90282805  1  0.092203  0  0.106246  0.12375  0  0.992184  0
H  H9  1  0.72292560  0.88733307  0.53530834  1  0.044712  0  0.100096  0.101671  0  1.006343  0
H  H10  1  0.72154531  0.11454172  0.53195964  1  0.09988  0  0.10116  0.104743  0  1.005545  0
H  H11  1  0.28122722  0.11270147  0.46347414  1  0.075901  0  0.10066  0.102631  0  1.008606  0
H  H12  1  0.28141706  0.88548902  0.47211529  1  0.088291  0  0.101566  0.104344  0  1.003947  0
H  H13  1  0.86571820  0.36302703  0.37796266  1  0.157576  0  0.142034  0.12296  0  0.957617  0
C  C14  1  0.50232675  0.73758300  0.50660431  1  1.541898  0  0.21461  0.594307  0  4.162498  0
C  C15  1  0.62601124  0.06338634  0.51768832  1  0.056601  0  -0.086542  -0.097009  0  3.983711  0
C  C16  1  0.50145861  0.12687210  0.49671300  1  -0.087228  0  -0.015501  -0.025746  0  3.956704  0
C  C17  1  0.50210998  0.87314735  0.50438270  1  -0.01318  0  -0.014168  -0.02142  0  3.957709  0
C  C18  1  0.37724195  0.06240668  0.47990211  1  -0.057992  0  -0.08626  -0.095416  0  3.987276  0
C  C19  1  0.37736802  0.93656996  0.48462744  1  0.008512  0  -0.086482  -0.09828  0  3.985878  0
C  C20  1  0.92797071  0.42357783  0.43174011  1  0.433371  0  0.081145  0.062573  0  3.863415  0
C  C21  1  0.92996463  0.57619684  0.56821811  1  0.498437  0  0.080973  0.061237  0  3.863714  0
C  C22  1  0.07308361  0.42369625  0.43107343  1  0.582544  0  0.08117  0.061137  0  3.864397  0
C  C23  1  0.07506222  0.57626604  0.56768771  1  0.55392  0  0.081302  0.063237  0  3.861897  0
C  C24  1  0.50117584  0.26252260  0.49362286  1  1.544779  0  0.214648  0.593382  0  4.163381  0
C  C25  1  0.50163195  0.48648857  0.73323830  1  1.549031  0  0.205695  0.632825  0  4.182746  0
C  C26  1  0.50097715  0.51375167  0.26613752  1  1.55435  0  0.204594  0.631346  0  4.182586  0
C  C27  1  0.60695953  0.49862778  0.06492070  1  0.081849  0  -0.075225  -0.029283  0  4.000066  0
C  C28  1  0.60691833  0.50094030  0.93546739  1  -0.053756  0  -0.074597  -0.027538  0  3.999177  0
C  C29  1  0.49586706  0.52115380  0.13401185  1  -0.080034  0  -0.090363  -0.222186  0  3.884741  0
C  C30  1  0.49565876  0.47888007  0.86530136  1  -0.105299  0  -0.091403  -0.224324  0  3.884913  0
C  C31  1  0.62654004  0.93756130  0.52041324  1  -0.049636  0  -0.086474  -0.097078  0  3.987382  0
N  N32  1  0.14483618  0.49998133  0.49909268  1  -1.215761  0  -0.289343  -0.136034  0  3.496094  0
N  N33  1  0.85819241  0.49986804  0.50027349  1  -1.208287  0  -0.289973  -0.136377  0  3.495953  0
O  O34  1  0.38537461  0.68403483  0.52056502  1  -1.168168  0  -0.320817  -0.556329  0  2.314727  0
O  O35  1  0.38472325  0.31554293  0.47545614  1  -1.166766  0  -0.321331  -0.555791  0  2.313902  0
O  O36  1  0.61966794  0.68574559  0.49345767  1  -1.154495  0  -0.320629  -0.551996  0  2.314766  0
O  O37  1  0.61783050  0.31529099  0.51012352  1  -1.168518  0  -0.320208  -0.552207  0  2.32288  0
O  O38  1  0.38520061  0.47217148  0.67911051  1  -1.153456  0  -0.328279  -0.556752  0  2.27558  0
O  O39  1  0.38410487  0.52768400  0.31848326  1  -1.152952  0  -0.327835  -0.555287  0  2.2746  0
O  O40  1  0.61882988  0.50665835  0.68305649  1  -1.175954  0  -0.32562  -0.561261  0  2.299515  0
O  O41  1  0.61773353  0.49407702  0.31814581  1  -1.17442  0  -0.32528  -0.562025  0  2.298775  0
