# generated using pymatgen
data_ZnH20C22(NO2)2
_symmetry_space_group_name_H-M   'P 1'
_cell_length_a   7.77843464
_cell_length_b   10.91578151
_cell_length_c   12.91589905
_cell_angle_alpha   89.92429084
_cell_angle_beta   87.29595481
_cell_angle_gamma   73.58965124
_symmetry_Int_Tables_number   1
_chemical_formula_structural   ZnH20C22(NO2)2
_chemical_formula_sum   'Zn2 H40 C44 N4 O8'
_cell_volume   1050.73070798
_cell_formula_units_Z   2
loop_
 _symmetry_equiv_pos_site_id
 _symmetry_equiv_pos_as_xyz
  1  'x, y, z'
loop_
 _atom_site_type_symbol
 _atom_site_label
 _atom_site_symmetry_multiplicity
 _atom_site_fract_x
 _atom_site_fract_y
 _atom_site_fract_z
 _atom_site_occupancy
 _atom_site_hle17_bader_spin_density
 _atom_site_hle17_ddec_charge
 _atom_site_hle17_ddec_spin_density
 _atom_site_hle17_ddec_sum_bond_order
 _atom_site_hle17_magmom
 _atom_site_hse06_10hf_bader_spin_density
 _atom_site_hse06_10hf_ddec_charge
 _atom_site_hse06_10hf_ddec_spin_density
 _atom_site_hse06_10hf_ddec_sum_bond_order
 _atom_site_hse06_10hf_magmom
 _atom_site_hse06_bader_spin_density
 _atom_site_hse06_ddec_charge
 _atom_site_hse06_ddec_spin_density
 _atom_site_hse06_ddec_sum_bond_order
 _atom_site_hse06_magmom
 _atom_site_pbe_bader_spin_density
 _atom_site_pbe_cm5_charge
 _atom_site_pbe_ddec_charge
 _atom_site_pbe_ddec_spin_density
 _atom_site_pbe_ddec_sum_bond_order
 _atom_site_pbe_magmom
Zn  Zn0  1  0.99506218  0.87334296  0.31406220  1  0  0.980443  0  1.893063  0  0  0.783293  0  2.378829  0  0  0.830655  0  2.323619  0  0  0.69069  0.750461  0  2.416508  0
Zn  Zn1  1  0.00493454  0.12666060  0.68593774  1  0  0.980378  0  1.893097  0  0  0.783243  0  2.378861  0  0  0.830621  0  2.323666  0  0  0.690667  0.750408  0  2.416538  0
H  H2  1  0.55350580  0.69493521  0.40939336  1  0  0.10877  0  0.938391  0  0  0.125091  0  0.995993  0  0  0.127006  0  0.996199  0  0  0.101669  0.123771  0  0.995945  0
H  H3  1  0.44649478  0.30506839  0.59060494  1  0  0.10878  0  0.938326  0  0  0.125103  0  0.995931  0  0  0.12702  0  0.996136  0  0  0.101681  0.123783  0  0.995883  0
H  H4  1  0.58519286  0.72983116  0.27837670  1  0  0.100112  0  0.963393  0  0  0.111943  0  1.030375  0  0  0.11366  0  1.030807  0  0  0.09451  0.110762  0  1.030166  0
H  H5  1  0.41479920  0.27017135  0.72162026  1  0  0.100126  0  0.963333  0  0  0.11196  0  1.030308  0  0  0.113677  0  1.030741  0  0  0.094519  0.110783  0  1.030096  0
H  H6  1  0.64204280  0.54903513  0.14292186  1  0  0.081042  0  0.966523  0  0  0.093102  0  1.026514  0  0  0.095514  0  1.026766  0  0  0.091204  0.091489  0  1.026331  0
H  H7  1  0.35796239  0.45096664  0.85707867  1  0  0.081026  0  0.966531  0  0  0.093085  0  1.02652  0  0  0.095511  0  1.026758  0  0  0.091196  0.091472  0  1.026336  0
H  H8  1  0.80104344  0.31699991  0.10920054  1  0  0.088051  0  0.961923  0  0  0.09628  0  1.027439  0  0  0.099856  0  1.024803  0  0  0.097531  0.093707  0  1.029363  0
H  H9  1  0.19895832  0.68300085  0.89080006  1  0  0.088093  0  0.961905  0  0  0.096328  0  1.027415  0  0  0.099901  0  1.024782  0  0  0.097563  0.093755  0  1.02934  0
H  H10  1  0.79408462  0.24813963  0.43558671  1  0  0.096901  0  0.954772  0  0  0.107118  0  1.015978  0  0  0.110143  0  1.014378  0  0  0.100481  0.104884  0  1.017234  0
H  H11  1  0.20591506  0.75186301  0.56441316  1  0  0.096912  0  0.954799  0  0  0.107136  0  1.015995  0  0  0.11016  0  1.014396  0  0  0.100483  0.104901  0  1.017255  0
H  H12  1  0.64396106  0.47848481  0.47075082  1  0  0.088429  0  0.974882  0  0  0.098588  0  1.040425  0  0  0.10115  0  1.040235  0  0  0.097183  0.096753  0  1.040727  0
H  H13  1  0.35604334  0.52151885  0.52924894  1  0  0.088435  0  0.974885  0  0  0.098567  0  1.04046  0  0  0.101131  0  1.040266  0  0  0.097171  0.096733  0  1.040762  0
H  H14  1  0.96166245  0.62909466  0.41076396  1  0  0.082174  0  0.948588  0  0  0.090554  0  1.013393  0  0  0.093193  0  1.011075  0  0  0.116631  0.088528  0  1.015288  0
H  H15  1  0.03834123  0.37091379  0.58923502  1  0  0.082252  0  0.948494  0  0  0.09062  0  1.013297  0  0  0.093258  0  1.010981  0  0  0.116677  0.088592  0  1.015194  0
H  H16  1  0.81805078  0.56586010  0.57385825  1  0  0.116362  0  0.957575  0  0  0.126053  0  1.019414  0  0  0.129217  0  1.018533  0  0  0.109391  0.123753  0  1.020252  0
H  H17  1  0.18195114  0.43414350  0.42613615  1  0  0.116422  0  0.957581  0  0  0.126111  0  1.019424  0  0  0.129276  0  1.018541  0  0  0.109429  0.123806  0  1.020266  0
H  H18  1  0.64340977  0.96609332  0.65993326  1  0  0.114657  0  0.946003  0  0  0.124782  0  1.006231  0  0  0.128427  0  1.004686  0  0  0.108795  0.122082  0  1.007592  0
H  H19  1  0.35658044  0.03390729  0.34006994  1  0  0.114638  0  0.946057  0  0  0.124767  0  1.006265  0  0  0.128408  0  1.004726  0  0  0.108804  0.12207  0  1.007627  0
H  H20  1  0.78848665  0.01158186  0.49507082  1  0  0.090473  0  0.94573  0  0  0.09843  0  1.009322  0  0  0.101621  0  1.005916  0  0  0.118919  0.096068  0  1.011867  0
H  H21  1  0.21150662  0.98842361  0.50493461  1  0  0.090432  0  0.945764  0  0  0.098435  0  1.00931  0  0  0.101625  0  1.005897  0  0  0.118901  0.096063  0  1.011849  0
H  H22  1  0.49017576  0.78342059  0.73472621  1  0  0.079791  0  0.95568  0  0  0.096283  0  1.017611  0  0  0.096518  0  1.018921  0  0  0.093278  0.096111  0  1.016729  0
H  H23  1  0.50982501  0.21657341  0.26527289  1  0  0.079832  0  0.955713  0  0  0.096311  0  1.017687  0  0  0.096547  0  1.018995  0  0  0.093287  0.096152  0  1.016791  0
H  H24  1  0.63251429  0.62550717  0.72505524  1  0  0.094995  0  0.941398  0  0  0.109135  0  1.005142  0  0  0.110654  0  1.005117  0  0  0.095202  0.108033  0  1.005177  0
H  H25  1  0.36748615  0.37448776  0.27493922  1  0  0.095039  0  0.941357  0  0  0.109157  0  1.005158  0  0  0.110676  0  1.005134  0  0  0.095212  0.108057  0  1.005192  0
H  H26  1  0.72405428  0.85259473  0.82871234  1  0  0.073986  0  0.931353  0  0  0.093083  0  0.988125  0  0  0.093801  0  0.988922  0  0  0.091514  0.092588  0  0.9875  0
H  H27  1  0.27594990  0.14739738  0.17128360  1  0  0.074049  0  0.931303  0  0  0.093094  0  0.988082  0  0  0.093812  0  0.988876  0  0  0.091528  0.092598  0  0.987458  0
H  H28  1  0.86843184  0.69748287  0.81741057  1  0  0.069373  0  0.948538  0  0  0.087948  0  1.008101  0  0  0.08805  0  1.010216  0  0  0.090022  0.087798  0  1.00674  0
H  H29  1  0.13157106  0.30250922  0.18258617  1  0  0.069432  0  0.948596  0  0  0.087994  0  1.008111  0  0  0.088097  0  1.010224  0  0  0.090036  0.087842  0  1.006755  0
H  H30  1  0.49344536  0.76325259  0.92768011  1  0  0.084717  0  0.925274  0  0  0.103802  0  0.980627  0  0  0.104911  0  0.980647  0  0  0.09868  0.102926  0  0.980719  0
H  H31  1  0.50655591  0.23674334  0.07231742  1  0  0.084775  0  0.925231  0  0  0.103852  0  0.980611  0  0  0.104961  0  0.98063  0  0  0.09872  0.102976  0  0.980701  0
H  H32  1  0.65322724  0.61123532  0.92164472  1  0  0.082251  0  0.916103  0  0  0.103428  0  0.969007  0  0  0.104342  0  0.968991  0  0  0.097941  0.102745  0  0.96904  0
H  H33  1  0.34677359  0.38876158  0.07835514  1  0  0.082254  0  0.916102  0  0  0.103435  0  0.969014  0  0  0.104348  0  0.969002  0  0  0.097957  0.102745  0  0.969054  0
H  H34  1  0.49439910  0.90590634  0.07015503  1  0  0.115306  0  0.934255  0  0  0.127831  0  0.98807  0  0  0.131119  0  0.987623  0  0  0.114855  0.12548  0  0.988547  0
H  H35  1  0.50559601  0.09408570  0.92984808  1  0  0.115285  0  0.934282  0  0  0.127825  0  0.988071  0  0  0.131113  0  0.987622  0  0  0.114843  0.125474  0  0.988547  0
H  H36  1  0.65178540  0.96047613  0.22034269  1  0  0.080175  0  0.930313  0  0  0.091266  0  0.98985  0  0  0.093488  0  0.987859  0  0  0.122468  0.089543  0  0.991399  0
H  H37  1  0.34820586  0.03951586  0.77966129  1  0  0.080162  0  0.930284  0  0  0.09128  0  0.989798  0  0  0.0935  0  0.987813  0  0  0.122497  0.089555  0  0.991349  0
H  H38  1  0.10525984  0.66057343  0.15331510  1  0  0.088685  0  0.943338  0  0  0.097367  0  1.002997  0  0  0.100311  0  1.000292  0  0  0.119515  0.095192  0  1.004988  0
H  H39  1  0.89474421  0.33943117  0.84668079  1  0  0.088661  0  0.943375  0  0  0.097329  0  1.003047  0  0  0.100271  0  1.000343  0  0  0.119503  0.095152  0  1.00504  0
H  H40  1  0.97460913  0.60161645  0.99287415  1  0  0.099081  0  0.960411  0  0  0.110846  0  1.020392  0  0  0.113383  0  1.020625  0  0  0.107512  0.108985  0  1.020521  0
H  H41  1  0.02539540  0.39839007  0.00712173  1  0  0.099097  0  0.960417  0  0  0.110858  0  1.020401  0  0  0.113396  0  1.020636  0  0  0.107516  0.108997  0  1.02053  0
C  C42  1  0.33038364  0.70290178  0.31921179  1  0  0.690378  0  3.868864  0  0  0.650147  0  4.161513  0  0  0.682535  0  4.155288  0  0  0.201371  0.628214  0  4.164882  0
C  C43  1  0.66961460  0.29709509  0.68078969  1  0  0.690291  0  3.869052  0  0  0.650095  0  4.161644  0  0  0.682485  0  4.155418  0  0  0.201342  0.628159  0  4.165016  0
C  C44  1  0.53342565  0.66715878  0.33000491  1  0  -0.310566  0  3.722128  0  0  -0.351841  0  3.958992  0  0  -0.357951  0  3.966573  0  0  -0.166178  -0.347757  0  3.953835  0
C  C45  1  0.46657228  0.33284191  0.66999501  1  0  -0.310582  0  3.721993  0  0  -0.351861  0  3.958914  0  0  -0.357978  0  3.966502  0  0  -0.166215  -0.347782  0  3.953756  0
C  C46  1  0.63129442  0.52948952  0.30921560  1  0  0.133486  0  3.761499  0  0  0.152375  0  3.99495  0  0  0.155084  0  4.018087  0  0  -0.008303  0.150685  0  3.979203  0
C  C47  1  0.36870990  0.47051127  0.69078494  1  0  0.133503  0  3.76121  0  0  0.152342  0  3.994735  0  0  0.155051  0  4.017878  0  0  -0.008282  0.150653  0  3.978986  0
C  C48  1  0.67713858  0.48312672  0.20731424  1  0  -0.138145  0  3.757229  0  0  -0.15606  0  4.004902  0  0  -0.16087  0  4.027181  0  0  -0.100681  -0.152937  0  3.989732  0
C  C49  1  0.32286708  0.51687697  0.79268627  1  0  -0.138141  0  3.757186  0  0  -0.156032  0  4.004875  0  0  -0.160852  0  4.027147  0  0  -0.100702  -0.15291  0  3.989708  0
C  C50  1  0.76540486  0.35468902  0.18796860  1  0  -0.083465  0  3.78464  0  0  -0.10602  0  4.037196  0  0  -0.105279  0  4.056677  0  0  -0.090377  -0.10614  0  4.023822  0
C  C51  1  0.23459776  0.64531271  0.81203275  1  0  -0.083503  0  3.784483  0  0  -0.106065  0  4.037039  0  0  -0.105321  0  4.056525  0  0  -0.090401  -0.106186  0  4.023667  0
C  C52  1  0.80716137  0.26920908  0.27025988  1  0  -0.075429  0  3.776548  0  0  -0.052287  0  4.007962  0  0  -0.060134  0  4.030499  0  0  -0.025186  -0.047248  0  3.992759  0
C  C53  1  0.19283703  0.73079354  0.72974003  1  0  -0.07536  0  3.776407  0  0  -0.052214  0  4.007825  0  0  -0.060064  0  4.030365  0  0  -0.025147  -0.047174  0  3.99262  0
C  C54  1  0.76186737  0.31504626  0.37197599  1  0  -0.059579  0  3.746848  0  0  -0.083705  0  3.995229  0  0  -0.082474  0  4.015359  0  0  -0.088024  -0.084322  0  3.981595  0
C  C55  1  0.23813654  0.68495549  0.62802456  1  0  -0.059668  0  3.746976  0  0  -0.083812  0  3.995366  0  0  -0.082581  0  4.015498  0  0  -0.088052  -0.084429  0  3.981729  0
C  C56  1  0.67662602  0.44385931  0.39104360  1  0  -0.136105  0  3.740216  0  0  -0.154668  0  3.989051  0  0  -0.159595  0  4.010825  0  0  -0.096084  -0.151334  0  3.974208  0
C  C57  1  0.32337452  0.55614431  0.60895702  1  0  -0.136063  0  3.740078  0  0  -0.154579  0  3.988929  0  0  -0.159507  0  4.010701  0  0  -0.096049  -0.151248  0  3.974093  0
C  C58  1  0.89333869  0.12940535  0.24931868  1  0  0.621243  0  3.956152  0  0  0.573148  0  4.254954  0  0  0.606209  0  4.248425  0  0  0.189798  0.550752  0  4.258617  0
C  C59  1  0.10666133  0.87059636  0.75068506  1  0  0.621281  0  3.956111  0  0  0.573197  0  4.254895  0  0  0.60626  0  4.248366  0  0  0.189834  0.550799  0  4.258564  0
C  C60  1  0.88809457  0.69962578  0.46847480  1  0  0.129881  0  3.727443  0  0  0.096582  0  3.98337  0  0  0.104003  0  4.00202  0  0  0.045293  0.091839  0  3.97066  0
C  C61  1  0.11190900  0.30037981  0.53152652  1  0  0.129981  0  3.727336  0  0  0.096704  0  3.983266  0  0  0.104127  0  4.001919  0  0  0.045367  0.091961  0  3.970554  0
C  C62  1  0.80907501  0.66567753  0.55849636  1  0  -0.179623  0  3.699034  0  0  -0.196143  0  3.944705  0  0  -0.205403  0  3.966679  0  0  -0.083181  -0.190087  0  3.929898  0
C  C63  1  0.19092637  0.33432417  0.44150270  1  0  -0.179734  0  3.699163  0  0  -0.196229  0  3.94482  0  0  -0.205489  0  3.966795  0  0  -0.08322  -0.190169  0  3.930009  0
C  C64  1  0.71640305  0.76034725  0.63011128  1  0  0.176081  0  3.698257  0  0  0.191266  0  3.934156  0  0  0.197594  0  3.955859  0  0  0.021672  0.187287  0  3.919197  0
C  C65  1  0.28359616  0.23965346  0.36988861  1  0  0.17617  0  3.698147  0  0  0.191324  0  3.934127  0  0  0.197655  0  3.955833  0  0  0.021674  0.187343  0  3.919173  0
C  C66  1  0.70930477  0.88717365  0.60708998  1  0  -0.162627  0  3.682481  0  0  -0.180375  0  3.928586  0  0  -0.189345  0  3.949845  0  0  -0.079901  -0.174644  0  3.91441  0
C  C67  1  0.29069057  0.11282702  0.39291155  1  0  -0.162602  0  3.682278  0  0  -0.180331  0  3.928406  0  0  -0.189302  0  3.949664  0  0  -0.079939  -0.174608  0  3.914237  0
C  C68  1  0.79152006  0.91421810  0.51576960  1  0  0.142186  0  3.692985  0  0  0.109453  0  3.943506  0  0  0.117825  0  3.960811  0  0  0.047954  0.104041  0  3.931811  0
C  C69  1  0.20847364  0.08578640  0.48423351  1  0  0.142123  0  3.692956  0  0  0.109358  0  3.943476  0  0  0.117739  0  3.960774  0  0  0.04794  0.103961  0  3.931768  0
C  C70  1  0.63159682  0.72635997  0.72837581  1  0  -0.174294  0  3.704463  0  0  -0.215559  0  3.950975  0  0  -0.217887  0  3.963966  0  0  -0.162554  -0.213861  0  3.941859  0
C  C71  1  0.36840357  0.27363498  0.27162175  1  0  -0.174359  0  3.704543  0  0  -0.215673  0  3.951099  0  0  -0.218006  0  3.96411  0  0  -0.162533  -0.213981  0  3.941976  0
C  C72  1  0.72576593  0.75159131  0.82419681  1  0  -0.088149  0  3.657011  0  0  -0.124058  0  3.911549  0  0  -0.125689  0  3.926267  0  0  -0.158863  -0.122712  0  3.901214  0
C  C73  1  0.27423567  0.24840078  0.17580073  1  0  -0.088371  0  3.657123  0  0  -0.124107  0  3.911518  0  0  -0.125733  0  3.92624  0  0  -0.15891  -0.122763  0  3.901185  0
C  C74  1  0.63830620  0.71474737  0.92405560  1  0  -0.163419  0  3.707458  0  0  -0.209134  0  3.963867  0  0  -0.210579  0  3.9755  0  0  -0.154864  -0.207941  0  3.955582  0
C  C75  1  0.36169634  0.28524857  0.07594268  1  0  -0.163412  0  3.707423  0  0  -0.20918  0  3.963835  0  0  -0.21063  0  3.975472  0  0  -0.154927  -0.207981  0  3.95555  0
C  C76  1  0.72207812  0.74832626  0.01821483  1  0  0.168443  0  3.713999  0  0  0.18336  0  3.955059  0  0  0.189778  0  3.976516  0  0  0.022558  0.179322  0  3.9403  0
C  C77  1  0.27792410  0.25167351  0.98178267  1  0  0.168429  0  3.713884  0  0  0.183349  0  3.954971  0  0  0.189769  0  3.976429  0  0  0.022514  0.179312  0  3.940208  0
C  C78  1  0.63162529  0.85044826  0.08398271  1  0  -0.171136  0  3.693401  0  0  -0.189105  0  3.937727  0  0  -0.198268  0  3.958771  0  0  -0.07735  -0.183356  0  3.92364  0
C  C79  1  0.36837071  0.14954474  0.91601960  1  0  -0.171194  0  3.693364  0  0  -0.189177  0  3.937705  0  0  -0.198337  0  3.958746  0  0  -0.077414  -0.183426  0  3.923616  0
C  C80  1  0.71709493  0.88049133  0.16831511  1  0  0.146735  0  3.709633  0  0  0.113692  0  3.961894  0  0  0.122429  0  3.978707  0  0  0.055621  0.108235  0  3.950409  0
C  C81  1  0.28290065  0.11950263  0.83168799  1  0  0.146812  0  3.70949  0  0  0.113747  0  3.961749  0  0  0.122483  0  3.978563  0  0  0.055687  0.108287  0  3.950267  0
C  C82  1  0.97232096  0.71368231  0.12950998  1  0  0.139675  0  3.695171  0  0  0.109993  0  3.93938  0  0  0.117758  0  3.957163  0  0  0.054623  0.104994  0  3.927514  0
C  C83  1  0.02768082  0.28631843  0.87048907  1  0  0.139727  0  3.695229  0  0  0.110054  0  3.939423  0  0  0.117822  0  3.957207  0  0  0.054661  0.105054  0  3.927555  0
C  C84  1  0.89690015  0.68053351  0.04241139  1  0  -0.162688  0  3.701066  0  0  -0.181423  0  3.949753  0  0  -0.190426  0  3.971643  0  0  -0.077308  -0.17588  0  3.935333  0
C  C85  1  0.10310341  0.31946917  0.95758607  1  0  -0.162757  0  3.701078  0  0  -0.181479  0  3.949751  0  0  -0.190482  0  3.971633  0  0  -0.077315  -0.175936  0  3.935331  0
N  N86  1  0.87928703  0.82207327  0.44695355  1  0  -0.350358  0  3.317729  0  0  -0.265469  0  3.59917  0  0  -0.285773  0  3.613642  0  0  -0.338219  -0.251894  0  3.589231  0
N  N87  1  0.12071141  0.17793225  0.55304866  1  0  -0.350391  0  3.317754  0  0  -0.265516  0  3.599219  0  0  -0.285827  0  3.613695  0  0  -0.338264  -0.251941  0  3.589275  0
N  N88  1  0.88385253  0.81277450  0.19157890  1  0  -0.331269  0  3.325811  0  0  -0.245753  0  3.604818  0  0  -0.265246  0  3.617478  0  0  -0.330035  -0.23287  0  3.596245  0
N  N89  1  0.11614451  0.18722523  0.80842182  1  0  -0.331259  0  3.325783  0  0  -0.245741  0  3.604789  0  0  -0.265241  0  3.61746  0  0  -0.330066  -0.232858  0  3.596217  0
O  O90  1  0.25681468  0.82567146  0.31773515  1  0  -0.658899  0  2.01708  0  0  -0.584848  0  2.288739  0  0  -0.613318  0  2.272417  0  0  -0.343849  -0.564847  0  2.299031  0
O  O91  1  0.74318188  0.17432634  0.68226636  1  0  -0.658837  0  2.017145  0  0  -0.584822  0  2.288813  0  0  -0.613298  0  2.272498  0  0  -0.343822  -0.564825  0  2.299109  0
O  O92  1  0.24711066  0.62065916  0.31407692  1  0  -0.635527  0  1.899281  0  0  -0.588289  0  2.117173  0  0  -0.610661  0  2.108532  0  0  -0.327534  -0.572791  0  2.122726  0
O  O93  1  0.75288925  0.37933678  0.68592530  1  0  -0.635473  0  1.899317  0  0  -0.58825  0  2.117198  0  0  -0.61062  0  2.108549  0  0  -0.327516  -0.572747  0  2.122745  0
O  O94  1  0.96148490  0.08961283  0.16222508  1  0  -0.603687  0  1.865925  0  0  -0.566661  0  2.072495  0  0  -0.586792  0  2.064329  0  0  -0.33899  -0.552458  0  2.077472  0
O  O95  1  0.03851336  0.91038694  0.83777948  1  0  -0.60376  0  1.865865  0  0  -0.566747  0  2.072441  0  0  -0.586875  0  2.064271  0  0  -0.339058  -0.552546  0  2.077422  0
O  O96  1  0.88555201  0.05763618  0.32966735  1  0  -0.678929  0  2.080483  0  0  -0.60484  0  2.364178  0  0  -0.634545  0  2.349615  0  0  -0.349397  -0.583947  0  2.373223  0
O  O97  1  0.11445059  0.94236847  0.67033942  1  0  -0.678919  0  2.080532  0  0  -0.604845  0  2.364226  0  0  -0.634553  0  2.349669  0  0  -0.349382  -0.583936  0  2.373235  0
