# generated using pymatgen
data_CdH4C8(N3O)2
_symmetry_space_group_name_H-M   'P 1'
_cell_length_a   6.92386507
_cell_length_b   8.79478734
_cell_length_c   11.74534228
_cell_angle_alpha   77.64482347
_cell_angle_beta   72.88256213
_cell_angle_gamma   66.77523572
_symmetry_Int_Tables_number   1
_chemical_formula_structural   CdH4C8(N3O)2
_chemical_formula_sum   'Cd2 H8 C16 N12 O4'
_cell_volume   624.23248062
_cell_formula_units_Z   2
loop_
 _symmetry_equiv_pos_site_id
 _symmetry_equiv_pos_as_xyz
  1  'x, y, z'
loop_
 _atom_site_type_symbol
 _atom_site_label
 _atom_site_symmetry_multiplicity
 _atom_site_fract_x
 _atom_site_fract_y
 _atom_site_fract_z
 _atom_site_occupancy
 _atom_site_hle17_bader_spin_density
 _atom_site_hle17_ddec_charge
 _atom_site_hle17_ddec_spin_density
 _atom_site_hle17_ddec_sum_bond_order
 _atom_site_hle17_magmom
 _atom_site_hse06_10hf_bader_spin_density
 _atom_site_hse06_10hf_ddec_charge
 _atom_site_hse06_10hf_ddec_spin_density
 _atom_site_hse06_10hf_ddec_sum_bond_order
 _atom_site_hse06_10hf_magmom
 _atom_site_hse06_bader_spin_density
 _atom_site_hse06_ddec_charge
 _atom_site_hse06_ddec_spin_density
 _atom_site_hse06_ddec_sum_bond_order
 _atom_site_hse06_magmom
 _atom_site_pbe_bader_spin_density
 _atom_site_pbe_cm5_charge
 _atom_site_pbe_ddec_charge
 _atom_site_pbe_ddec_spin_density
 _atom_site_pbe_ddec_sum_bond_order
 _atom_site_pbe_magmom
Cd  Cd0  1  0.58449404  0.24973104  0.75022834  1  0  1.249907  0  1.788932  0  0  1.076072  0  2.273993  0  0  1.124102  0  2.217882  0  0  0.850687  1.04217  0  2.312411  0
Cd  Cd1  1  0.41553229  0.75025601  0.24977369  1  0  1.249822  0  1.788979  0  0  1.075967  0  2.274103  0  0  1.124021  0  2.217951  0  0  0.850674  1.042062  0  2.312516  0
H  H2  1  0.83206401  0.50923913  0.07462361  1  0  0.336201  0  0.904636  0  0  0.320471  0  0.96758  0  0  0.327284  0  0.962402  0  0  0.305715  0.31562  0  0.971303  0
H  H3  1  0.58418034  0.00955467  0.57459682  1  0  0.336411  0  0.905103  0  0  0.320311  0  0.968649  0  0  0.327179  0  0.963388  0  0  0.305118  0.31554  0  0.972252  0
H  H4  1  0.16793371  0.49074171  0.92537969  1  0  0.336273  0  0.904562  0  0  0.320566  0  0.967434  0  0  0.327378  0  0.962259  0  0  0.305763  0.315716  0  0.971158  0
H  H5  1  0.41577288  0.99048222  0.42540365  1  0  0.336355  0  0.904908  0  0  0.320291  0  0.968442  0  0  0.327136  0  0.963204  0  0  0.305022  0.315525  0  0.972047  0
H  H6  1  0.94955004  0.29342348  0.08802336  1  0  0.340466  0  0.862686  0  0  0.334487  0  0.904969  0  0  0.340692  0  0.900912  0  0  0.320418  0.330064  0  0.907953  0
H  H7  1  0.66919561  0.79373267  0.58760042  1  0  0.340646  0  0.861283  0  0  0.33469  0  0.903599  0  0  0.340906  0  0.899533  0  0  0.320405  0.330265  0  0.906597  0
H  H8  1  0.05045680  0.70656106  0.91196956  1  0  0.340524  0  0.8627  0  0  0.33455  0  0.90496  0  0  0.340758  0  0.900891  0  0  0.320392  0.330127  0  0.907948  0
H  H9  1  0.33075996  0.20630050  0.41240687  1  0  0.340723  0  0.861108  0  0  0.334772  0  0.903431  0  0  0.340987  0  0.899366  0  0  0.320395  0.33035  0  0.906428  0
C  C10  1  0.82106333  0.40187745  0.24634664  1  0  0.645765  0  3.928152  0  0  0.591583  0  4.224492  0  0  0.622474  0  4.225891  0  0  0.230286  0.570656  0  4.222767  0
C  C11  1  0.53089476  0.90173100  0.74617345  1  0  0.645523  0  3.923503  0  0  0.591294  0  4.219962  0  0  0.622213  0  4.221323  0  0  0.2285  0.570431  0  4.218204  0
C  C12  1  0.17893342  0.59809093  0.75365392  1  0  0.645787  0  3.928335  0  0  0.591789  0  4.224416  0  0  0.622682  0  4.225804  0  0  0.230377  0.570862  0  4.222695  0
C  C13  1  0.46909524  0.09829966  0.25383161  1  0  0.645474  0  3.923209  0  0  0.59133  0  4.219588  0  0  0.622245  0  4.22095  0  0  0.228442  0.570476  0  4.217829  0
C  C14  1  0.86354100  0.24241729  0.32073546  1  0  -0.357875  0  3.957647  0  0  -0.335928  0  4.217959  0  0  -0.357007  0  4.236721  0  0  -0.063538  -0.321602  0  4.205066  0
C  C15  1  0.57370410  0.74212549  0.82033047  1  0  -0.355715  0  3.953136  0  0  -0.333748  0  4.213559  0  0  -0.354842  0  4.23236  0  0  -0.061812  -0.319407  0  4.20058  0
C  C16  1  0.13647669  0.75755479  0.67925656  1  0  -0.357981  0  3.957469  0  0  -0.336203  0  4.21789  0  0  -0.357287  0  4.236663  0  0  -0.063744  -0.32188  0  4.205005  0
C  C17  1  0.42629779  0.25789891  0.17966670  1  0  -0.356045  0  3.953354  0  0  -0.33412  0  4.213777  0  0  -0.355206  0  4.232543  0  0  -0.061942  -0.319801  0  4.200833  0
C  C18  1  0.76650311  0.23828984  0.44289341  1  0  0.395298  0  3.836703  0  0  0.366671  0  4.104157  0  0  0.386291  0  4.119942  0  0  0.203498  0.353284  0  4.093394  0
C  C19  1  0.55262948  0.73804621  0.94248180  1  0  0.394992  0  3.83521  0  0  0.366427  0  4.102774  0  0  0.386034  0  4.118575  0  0  0.203277  0.353043  0  4.09209  0
C  C20  1  0.23351060  0.76169220  0.55709581  1  0  0.395308  0  3.836571  0  0  0.36672  0  4.104021  0  0  0.38634  0  4.119807  0  0  0.203555  0.353335  0  4.093252  0
C  C21  1  0.44740497  0.26196322  0.05751124  1  0  0.3951  0  3.835391  0  0  0.36655  0  4.10295  0  0  0.38616  0  4.118749  0  0  0.203422  0.353171  0  4.092272  0
C  C22  1  0.98462214  0.09043322  0.27483233  1  0  0.351088  0  3.862294  0  0  0.32502  0  4.132515  0  0  0.34245  0  4.151695  0  0  0.183651  0.313016  0  4.119715  0
C  C23  1  0.65035394  0.59019781  0.77439147  1  0  0.350594  0  3.862879  0  0  0.324687  0  4.132961  0  0  0.342126  0  4.152084  0  0  0.182941  0.312697  0  4.12008  0
C  C24  1  0.01540359  0.90953265  0.72516678  1  0  0.351206  0  3.861936  0  0  0.325188  0  4.132146  0  0  0.342623  0  4.151321  0  0  0.183786  0.313186  0  4.119349  0
C  C25  1  0.34963277  0.40982412  0.22560827  1  0  0.350972  0  3.862775  0  0  0.325084  0  4.132829  0  0  0.342526  0  4.15196  0  0  0.183072  0.313095  0  4.11995  0
N  N26  1  0.89506869  0.40099869  0.12548772  1  0  -0.704607  0  3.087542  0  0  -0.668766  0  3.315293  0  0  -0.689959  0  3.311108  0  0  -0.576589  -0.653978  0  3.317904  0
N  N27  1  0.57861661  0.90121203  0.62526171  1  0  -0.704842  0  3.084238  0  0  -0.668652  0  3.311831  0  0  -0.689932  0  3.307631  0  0  -0.575484  -0.653951  0  3.31437  0
N  N28  1  0.10492891  0.59897841  0.87451332  1  0  -0.704764  0  3.087574  0  0  -0.669014  0  3.315253  0  0  -0.690205  0  3.311054  0  0  -0.576668  -0.654227  0  3.31787  0
N  N29  1  0.42134538  0.09882362  0.37474405  1  0  -0.70491  0  3.08391  0  0  -0.668784  0  3.311447  0  0  -0.69005  0  3.307304  0  0  -0.575367  -0.654094  0  3.313976  0
N  N30  1  0.68235793  0.22834883  0.54529329  1  0  -0.520965  0  2.826971  0  0  -0.468318  0  3.096904  0  0  -0.488105  0  3.100966  0  0  -0.351289  -0.454791  0  3.094106  0
N  N31  1  0.54402182  0.72827072  0.04493489  1  0  -0.522034  0  2.825487  0  0  -0.469419  0  3.095434  0  0  -0.489221  0  3.09946  0  0  -0.351874  -0.455886  0  3.092758  0
N  N32  1  0.31767763  0.77164566  0.45470062  1  0  -0.520924  0  2.827017  0  0  -0.468262  0  3.096895  0  0  -0.488049  0  3.100951  0  0  -0.351302  -0.454737  0  3.094094  0
N  N33  1  0.45601269  0.27172877  0.95506317  1  0  -0.521972  0  2.825693  0  0  -0.469383  0  3.095641  0  0  -0.489184  0  3.099668  0  0  -0.351906  -0.45585  0  3.092965  0
N  N34  1  0.08598890  0.96252259  0.23534508  1  0  -0.492855  0  2.749396  0  0  -0.446357  0  3.005134  0  0  -0.464082  0  3.010954  0  0  -0.352482  -0.434297  0  3.001347  0
N  N35  1  0.71611000  0.46217642  0.73513915  1  0  -0.49348  0  2.751822  0  0  -0.447296  0  3.007679  0  0  -0.464977  0  3.013452  0  0  -0.352126  -0.435112  0  3.003769  0
N  N36  1  0.91402437  0.03745324  0.76464916  1  0  -0.492885  0  2.749229  0  0  -0.446415  0  3.004972  0  0  -0.46414  0  3.010785  0  0  -0.352467  -0.434355  0  3.001189  0
N  N37  1  0.28386109  0.53784925  0.26486323  1  0  -0.493745  0  2.751794  0  0  -0.44757  0  3.007643  0  0  -0.465259  0  3.01342  0  0  -0.352242  -0.435384  0  3.003733  0
O  O38  1  0.71986096  0.53550888  0.29397001  1  0  -0.617122  0  1.992221  0  0  -0.556336  0  2.23422  0  0  -0.581563  0  2.223705  0  0  -0.324771  -0.538584  0  2.24074  0
O  O39  1  0.45067838  0.03517031  0.79405942  1  0  -0.617316  0  1.989828  0  0  -0.556815  0  2.232009  0  0  -0.581994  0  2.221423  0  0  -0.324516  -0.539089  0  2.238615  0
O  O40  1  0.28014671  0.46445951  0.70603323  1  0  -0.617213  0  1.992506  0  0  -0.556421  0  2.234353  0  0  -0.58165  0  2.223848  0  0  -0.3248  -0.538673  0  2.240883  0
O  O41  1  0.54930363  0.96485416  0.20595622  1  0  -0.617185  0  1.989381  0  0  -0.556716  0  2.231537  0  0  -0.581899  0  2.220955  0  0  -0.324472  -0.538992  0  2.238142  0
