# generated using pymatgen
data_Ba2H24C17O16
_symmetry_space_group_name_H-M   'P 1'
_cell_length_a   10.95308770
_cell_length_b   12.48236437
_cell_length_c   12.48233048
_cell_angle_alpha   61.38485628
_cell_angle_beta   64.59984831
_cell_angle_gamma   64.59985223
_symmetry_Int_Tables_number   1
_chemical_formula_structural   Ba2H24C17O16
_chemical_formula_sum   'Ba4 H48 C34 O32'
_cell_volume   1298.45458863
_cell_formula_units_Z   2
loop_
 _symmetry_equiv_pos_site_id
 _symmetry_equiv_pos_as_xyz
  1  'x, y, z'
loop_
 _atom_site_type_symbol
 _atom_site_label
 _atom_site_symmetry_multiplicity
 _atom_site_fract_x
 _atom_site_fract_y
 _atom_site_fract_z
 _atom_site_occupancy
 _atom_site_hle17_bader_spin_density
 _atom_site_hle17_ddec_charge
 _atom_site_hle17_ddec_spin_density
 _atom_site_hle17_ddec_sum_bond_order
 _atom_site_hle17_magmom
 _atom_site_hse06_10hf_bader_spin_density
 _atom_site_hse06_10hf_ddec_charge
 _atom_site_hse06_10hf_ddec_spin_density
 _atom_site_hse06_10hf_ddec_sum_bond_order
 _atom_site_hse06_10hf_magmom
 _atom_site_hse06_bader_spin_density
 _atom_site_hse06_ddec_charge
 _atom_site_hse06_ddec_spin_density
 _atom_site_hse06_ddec_sum_bond_order
 _atom_site_hse06_magmom
 _atom_site_pbe_bader_spin_density
 _atom_site_pbe_cm5_charge
 _atom_site_pbe_ddec_charge
 _atom_site_pbe_ddec_spin_density
 _atom_site_pbe_ddec_sum_bond_order
 _atom_site_pbe_magmom
Ba  Ba0  1  0.43635849  0.90740672  0.72097794  1  0  1.626189  0  1.1181  0  0  1.474654  0  1.512307  0  0  1.514998  0  1.467335  0  0  0.923401  1.445211  0  1.54384  0
Ba  Ba1  1  0.06364118  0.27901965  0.09259526  1  0  1.626161  0  1.118142  0  0  1.474606  0  1.512372  0  0  1.514968  0  1.467374  0  0  0.923375  1.445162  0  1.543906  0
Ba  Ba2  1  0.56364012  0.09259474  0.27902128  1  0  1.626199  0  1.118108  0  0  1.474637  0  1.512335  0  0  1.514988  0  1.467348  0  0  0.923399  1.445194  0  1.54387  0
Ba  Ba3  1  0.93635763  0.72097799  0.90740646  1  0  1.626175  0  1.11814  0  0  1.474639  0  1.512345  0  0  1.515003  0  1.467337  0  0  0.9234  1.445195  0  1.54388  0
H  H4  1  0.94702357  0.24819357  0.57016962  1  0  0.103704  0  0.935018  0  0  0.114294  0  0.995583  0  0  0.118446  0  0.992267  0  0  0.106592  0.111289  0  0.998047  0
H  H5  1  0.55296959  0.42983185  0.75180683  1  0  0.103712  0  0.935027  0  0  0.114309  0  0.995584  0  0  0.118458  0  0.992271  0  0  0.106588  0.111304  0  0.998047  0
H  H6  1  0.05297129  0.75180687  0.42983386  1  0  0.103691  0  0.93501  0  0  0.114271  0  0.995589  0  0  0.118422  0  0.992275  0  0  0.106575  0.111266  0  0.998053  0
H  H7  1  0.44703264  0.57016771  0.24819273  1  0  0.103693  0  0.935067  0  0  0.114296  0  0.995614  0  0  0.118446  0  0.992301  0  0  0.106574  0.111291  0  0.998078  0
H  H8  1  0.77796294  0.59670736  0.64159989  1  0  0.099674  0  0.950561  0  0  0.11086  0  1.012453  0  0  0.114601  0  1.009664  0  0  0.110034  0.108151  0  1.014506  0
H  H9  1  0.72203824  0.35839921  0.40329432  1  0  0.099684  0  0.95055  0  0  0.110864  0  1.012449  0  0  0.114604  0  1.00966  0  0  0.110053  0.108155  0  1.014503  0
H  H10  1  0.22203998  0.40329313  0.35840139  1  0  0.099668  0  0.950535  0  0  0.110844  0  1.012444  0  0  0.114584  0  1.009656  0  0  0.110033  0.108136  0  1.014497  0
H  H11  1  0.27796268  0.64160130  0.59670529  1  0  0.099706  0  0.950561  0  0  0.110898  0  1.012442  0  0  0.114639  0  1.009655  0  0  0.110061  0.108188  0  1.014496  0
H  H12  1  0.10483394  0.29186134  0.80364794  1  0  0.101947  0  0.977694  0  0  0.106207  0  1.052129  0  0  0.110447  0  1.048437  0  0  0.116734  0.102913  0  1.055235  0
H  H13  1  0.39516503  0.19634631  0.70814088  1  0  0.101925  0  0.97763  0  0  0.106122  0  1.05214  0  0  0.110355  0  1.048457  0  0  0.116697  0.102836  0  1.055222  0
H  H14  1  0.89516356  0.70813724  0.19635384  1  0  0.10195  0  0.977688  0  0  0.106134  0  1.052205  0  0  0.110369  0  1.048513  0  0  0.116722  0.10285  0  1.055286  0
H  H15  1  0.60483337  0.80365898  0.29185584  1  0  0.101916  0  0.977589  0  0  0.106173  0  1.05204  0  0  0.110402  0  1.048371  0  0  0.116694  0.102887  0  1.055122  0
H  H16  1  0.81017630  0.48610894  0.42111097  1  0  0.092448  0  0.937013  0  0  0.109723  0  0.996316  0  0  0.110281  0  0.996994  0  0  0.099263  0.109298  0  0.995973  0
H  H17  1  0.68981999  0.57889122  0.51388721  1  0  0.092423  0  0.936955  0  0  0.109704  0  0.996261  0  0  0.110266  0  0.99693  0  0  0.099248  0.109279  0  0.995918  0
H  H18  1  0.18982170  0.51389443  0.57888678  1  0  0.092466  0  0.936959  0  0  0.109739  0  0.996255  0  0  0.110297  0  0.996934  0  0  0.09925  0.109315  0  0.995909  0
H  H19  1  0.31017599  0.42111214  0.48611130  1  0  0.092404  0  0.93703  0  0  0.109704  0  0.996285  0  0  0.110266  0  0.996956  0  0  0.099243  0.109278  0  0.995942  0
H  H20  1  0.27648784  0.74071045  0.02247409  1  0  0.424479  0  0.819433  0  0  0.412655  0  0.863171  0  0  0.41962  0  0.856474  0  0  0.335189  0.40759  0  0.868284  0
H  H21  1  0.22351420  0.97752396  0.25928892  1  0  0.424495  0  0.819502  0  0  0.412675  0  0.863224  0  0  0.419637  0  0.856535  0  0  0.335205  0.407611  0  0.868336  0
H  H22  1  0.72351269  0.25928815  0.97752655  1  0  0.424442  0  0.819419  0  0  0.41262  0  0.863158  0  0  0.419583  0  0.856465  0  0  0.335152  0.407555  0  0.868272  0
H  H23  1  0.77648562  0.02247369  0.74071162  1  0  0.424503  0  0.819364  0  0  0.412681  0  0.863096  0  0  0.419644  0  0.856402  0  0  0.335191  0.407616  0  0.86821  0
H  H24  1  0.25406123  0.69697621  0.93365154  1  0  0.425197  0  0.875303  0  0  0.393693  0  0.939444  0  0  0.404921  0  0.92301  0  0  0.301075  0.38576  0  0.951038  0
H  H25  1  0.24593883  0.06634555  0.30302366  1  0  0.425184  0  0.875308  0  0  0.393675  0  0.939462  0  0  0.404903  0  0.923027  0  0  0.301058  0.385742  0  0.951055  0
H  H26  1  0.74593727  0.30302239  0.06634905  1  0  0.425228  0  0.875264  0  0  0.393729  0  0.939396  0  0  0.404956  0  0.922963  0  0  0.301095  0.385796  0  0.950991  0
H  H27  1  0.75406129  0.93365115  0.69697721  1  0  0.425203  0  0.875297  0  0  0.393701  0  0.939435  0  0  0.404928  0  0.923002  0  0  0.301074  0.385768  0  0.95103  0
H  H28  1  0.78050818  0.89023398  0.51740196  1  0  0.434322  0  0.868215  0  0  0.399966  0  0.936912  0  0  0.411128  0  0.920619  0  0  0.297997  0.392107  0  0.94835  0
H  H29  1  0.71949173  0.48259924  0.10976459  1  0  0.434343  0  0.868197  0  0  0.399965  0  0.936926  0  0  0.411128  0  0.920632  0  0  0.297991  0.392106  0  0.948364  0
H  H30  1  0.21948963  0.10976367  0.48259853  1  0  0.434344  0  0.868199  0  0  0.399967  0  0.936928  0  0  0.411128  0  0.920637  0  0  0.29798  0.392109  0  0.948365  0
H  H31  1  0.28050888  0.51740220  0.89023549  1  0  0.434347  0  0.86819  0  0  0.39997  0  0.936918  0  0  0.411134  0  0.920622  0  0  0.297999  0.392111  0  0.948357  0
H  H32  1  0.79868135  0.78104930  0.65007849  1  0  0.421931  0  0.885746  0  0  0.390428  0  0.950906  0  0  0.401199  0  0.935013  0  0  0.300364  0.382824  0  0.962098  0
H  H33  1  0.70131575  0.34992423  0.21895052  1  0  0.421947  0  0.885719  0  0  0.390449  0  0.950891  0  0  0.401221  0  0.934996  0  0  0.300371  0.382845  0  0.962083  0
H  H34  1  0.20131716  0.21894930  0.34992210  1  0  0.421993  0  0.885664  0  0  0.390483  0  0.950845  0  0  0.401256  0  0.934948  0  0  0.300368  0.382879  0  0.962038  0
H  H35  1  0.29868214  0.65007627  0.78104941  1  0  0.421956  0  0.88571  0  0  0.390456  0  0.950872  0  0  0.401227  0  0.934979  0  0  0.300373  0.382852  0  0.962064  0
H  H36  1  0.40263941  0.04675894  0.90988748  1  0  0.430499  0  0.867623  0  0  0.40209  0  0.927037  0  0  0.412687  0  0.911524  0  0  0.295441  0.394569  0  0.938024  0
H  H37  1  0.09735936  0.09011270  0.95324032  1  0  0.430508  0  0.867623  0  0  0.402103  0  0.927028  0  0  0.412699  0  0.911517  0  0  0.295441  0.394582  0  0.938016  0
H  H38  1  0.59736121  0.95324252  0.09011179  1  0  0.430486  0  0.867645  0  0  0.40208  0  0.927062  0  0  0.412667  0  0.911556  0  0  0.29542  0.394559  0  0.938049  0
H  H39  1  0.90263844  0.90988496  0.04676017  1  0  0.430518  0  0.867608  0  0  0.402071  0  0.927061  0  0  0.412688  0  0.911527  0  0  0.295449  0.39455  0  0.938047  0
H  H40  1  0.55824520  0.95978169  0.87762541  1  0  0.416888  0  0.880774  0  0  0.388796  0  0.940906  0  0  0.398843  0  0.926074  0  0  0.295676  0.381633  0  0.951475  0
H  H41  1  0.94175448  0.12237829  0.04021464  1  0  0.416845  0  0.880837  0  0  0.388756  0  0.940967  0  0  0.398802  0  0.926135  0  0  0.295657  0.381592  0  0.951536  0
H  H42  1  0.44175462  0.04021597  0.12237513  1  0  0.416843  0  0.880838  0  0  0.388758  0  0.940958  0  0  0.398804  0  0.926128  0  0  0.295662  0.381595  0  0.951527  0
H  H43  1  0.05824382  0.87762410  0.95978587  1  0  0.416865  0  0.880807  0  0  0.388773  0  0.94094  0  0  0.39882  0  0.926108  0  0  0.295667  0.381609  0  0.951509  0
H  H44  1  0.58778550  0.67359869  0.94851823  1  0  0.427136  0  0.870171  0  0  0.399275  0  0.928382  0  0  0.409469  0  0.913409  0  0  0.298419  0.392071  0  0.938961  0
H  H45  1  0.91221377  0.05148006  0.32640310  1  0  0.427132  0  0.870169  0  0  0.399283  0  0.92837  0  0  0.409478  0  0.913396  0  0  0.298416  0.392079  0  0.938948  0
H  H46  1  0.41221340  0.32640181  0.05148213  1  0  0.427085  0  0.870232  0  0  0.399226  0  0.928455  0  0  0.409422  0  0.913478  0  0  0.298389  0.392022  0  0.939032  0
H  H47  1  0.08778504  0.94851760  0.67359701  1  0  0.427125  0  0.870176  0  0  0.399269  0  0.928392  0  0  0.409464  0  0.913418  0  0  0.298412  0.392065  0  0.93897  0
H  H48  1  0.68657014  0.66198161  0.82168443  1  0  0.405676  0  0.906634  0  0  0.377345  0  0.967382  0  0  0.386763  0  0.953627  0  0  0.293436  0.370669  0  0.977145  0
H  H49  1  0.81342957  0.17831302  0.33801646  1  0  0.405648  0  0.906676  0  0  0.37732  0  0.967422  0  0  0.386739  0  0.953665  0  0  0.293421  0.370643  0  0.977186  0
H  H50  1  0.31343038  0.33801700  0.17831540  1  0  0.405666  0  0.906652  0  0  0.37734  0  0.967394  0  0  0.386758  0  0.953638  0  0  0.293434  0.370662  0  0.977158  0
H  H51  1  0.18656995  0.82168562  0.66198213  1  0  0.405684  0  0.906623  0  0  0.377362  0  0.967359  0  0  0.386779  0  0.953604  0  0  0.293439  0.370684  0  0.977123  0
C  C52  1  0.13517632  0.12528822  0.71188370  1  0  0.659128  0  3.915599  0  0  0.605109  0  4.209675  0  0  0.638967  0  4.202057  0  0  0.216206  0.58223  0  4.214058  0
C  C53  1  0.36482039  0.28811362  0.87471552  1  0  0.658959  0  3.915518  0  0  0.604933  0  4.209632  0  0  0.638789  0  4.202023  0  0  0.216131  0.582054  0  4.214011  0
C  C54  1  0.86481724  0.87471320  0.28811741  1  0  0.659148  0  3.915288  0  0  0.605116  0  4.209387  0  0  0.638972  0  4.201771  0  0  0.216262  0.582238  0  4.213772  0
C  C55  1  0.63518294  0.71188878  0.12528391  1  0  0.659013  0  3.915289  0  0  0.604996  0  4.209374  0  0  0.638852  0  4.201761  0  0  0.216226  0.582117  0  4.213758  0
C  C56  1  0.03435629  0.25615773  0.69050604  1  0  -0.06851  0  3.771923  0  0  -0.042473  0  4.008694  0  0  -0.05091  0  4.031239  0  0  -0.017544  -0.037369  0  3.993847  0
C  C57  1  0.46564454  0.30949268  0.74384339  1  0  -0.068447  0  3.771708  0  0  -0.042426  0  4.008496  0  0  -0.05086  0  4.03104  0  0  -0.017582  -0.037324  0  3.993651  0
C  C58  1  0.96564231  0.74384372  0.30949399  1  0  -0.068458  0  3.771798  0  0  -0.04244  0  4.008598  0  0  -0.050877  0  4.031144  0  0  -0.017571  -0.037338  0  3.993756  0
C  C59  1  0.53435616  0.69051162  0.25615614  1  0  -0.068251  0  3.771527  0  0  -0.04226  0  4.008338  0  0  -0.050688  0  4.030874  0  0  -0.017538  -0.037158  0  3.993495  0
C  C60  1  0.94387313  0.30593812  0.61543100  1  0  -0.099852  0  3.672943  0  0  -0.134651  0  3.921102  0  0  -0.133405  0  3.939623  0  0  -0.076601  -0.135269  0  3.908821  0
C  C61  1  0.55613159  0.38456429  0.69406507  1  0  -0.099894  0  3.672937  0  0  -0.134698  0  3.921102  0  0  -0.133452  0  3.939623  0  0  -0.076618  -0.135316  0  3.908819  0
C  C62  1  0.05612849  0.69406335  0.38456789  1  0  -0.099894  0  3.672952  0  0  -0.134676  0  3.921123  0  0  -0.13343  0  3.939645  0  0  -0.076615  -0.135292  0  3.90884  0
C  C63  1  0.44387568  0.61543533  0.30593179  1  0  -0.099983  0  3.672952  0  0  -0.134793  0  3.921123  0  0  -0.133549  0  3.939641  0  0  -0.07663  -0.13541  0  3.90884  0
C  C64  1  0.84961383  0.42822328  0.59835799  1  0  0.095362  0  3.749184  0  0  0.120241  0  3.991824  0  0  0.117349  0  4.017906  0  0  -0.007356  0.122039  0  3.97412  0
C  C65  1  0.65037969  0.40164304  0.57177793  1  0  0.095373  0  3.749398  0  0  0.120258  0  3.992016  0  0  0.117367  0  4.018093  0  0  -0.007309  0.122055  0  3.974311  0
C  C66  1  0.15038346  0.57177911  0.40164209  1  0  0.095418  0  3.749355  0  0  0.120263  0  3.992007  0  0  0.117371  0  4.018088  0  0  -0.007323  0.122061  0  3.974302  0
C  C67  1  0.34962203  0.59836131  0.42821798  1  0  0.09548  0  3.749075  0  0  0.120383  0  3.991648  0  0  0.117494  0  4.017726  0  0  -0.007269  0.12218  0  3.973943  0
C  C68  1  0.84923523  0.50070978  0.65593216  1  0  -0.108173  0  3.691958  0  0  -0.143854  0  3.941442  0  0  -0.143044  0  3.960928  0  0  -0.078315  -0.143839  0  3.927881  0
C  C69  1  0.65076782  0.34406774  0.49929044  1  0  -0.108129  0  3.692015  0  0  -0.143824  0  3.941501  0  0  -0.143018  0  3.960989  0  0  -0.078368  -0.143811  0  3.927939  0
C  C70  1  0.15076599  0.49928976  0.34406939  1  0  -0.108164  0  3.691968  0  0  -0.143845  0  3.941471  0  0  -0.143041  0  3.960959  0  0  -0.078346  -0.143832  0  3.92791  0
C  C71  1  0.34922987  0.65593657  0.50070779  1  0  -0.108162  0  3.69192  0  0  -0.143906  0  3.941392  0  0  -0.143101  0  3.960872  0  0  -0.078373  -0.14389  0  3.927828  0
C  C72  1  0.94024629  0.45237913  0.73062886  1  0  -0.08207  0  3.793514  0  0  -0.058059  0  4.03471  0  0  -0.066586  0  4.056995  0  0  -0.021226  -0.052548  0  4.019483  0
C  C73  1  0.55975780  0.26936943  0.54761936  1  0  -0.082217  0  3.79341  0  0  -0.058162  0  4.034535  0  0  -0.066686  0  4.056816  0  0  -0.021279  -0.052652  0  4.01931  0
C  C74  1  0.05975484  0.54761757  0.26937244  1  0  -0.082029  0  3.793437  0  0  -0.057986  0  4.034553  0  0  -0.066503  0  4.056819  0  0  -0.021212  -0.052475  0  4.019328  0
C  C75  1  0.44024180  0.73063199  0.45238271  1  0  -0.082203  0  3.793451  0  0  -0.058081  0  4.034511  0  0  -0.066595  0  4.056777  0  0  -0.021275  -0.052571  0  4.019286  0
C  C76  1  0.03203077  0.33000567  0.74769932  1  0  -0.074518  0  3.720626  0  0  -0.112389  0  3.971309  0  0  -0.109611  0  3.989087  0  0  -0.069664  -0.113879  0  3.959719  0
C  C77  1  0.46797134  0.25229894  0.66999274  1  0  -0.074504  0  3.720528  0  0  -0.112322  0  3.971214  0  0  -0.109543  0  3.988987  0  0  -0.069628  -0.113811  0  3.959625  0
C  C78  1  0.96796975  0.66999292  0.25230213  1  0  -0.074576  0  3.720621  0  0  -0.112393  0  3.97134  0  0  -0.10961  0  3.989106  0  0  -0.069657  -0.113885  0  3.959758  0
C  C79  1  0.53202796  0.74770342  0.33000982  1  0  -0.074626  0  3.720432  0  0  -0.112507  0  3.971106  0  0  -0.109735  0  3.988875  0  0  -0.06964  -0.113995  0  3.95952  0
C  C80  1  0.74999756  0.48060575  0.51939117  1  0  -0.196649  0  3.726278  0  0  -0.247152  0  3.966722  0  0  -0.247861  0  3.981101  0  0  -0.153572  -0.246665  0  3.957175  0
C  C81  1  0.25000114  0.51939860  0.48060507  1  0  -0.196744  0  3.726343  0  0  -0.247232  0  3.966731  0  0  -0.247943  0  3.981112  0  0  -0.153579  -0.246744  0  3.957183  0
C  C82  1  0.94234939  0.53021944  0.79083980  1  0  0.669153  0  3.910148  0  0  0.619545  0  4.198982  0  0  0.653727  0  4.190392  0  0  0.219838  0.596432  0  4.203982  0
C  C83  1  0.55764623  0.20915908  0.46977765  1  0  0.669089  0  3.910171  0  0  0.619476  0  4.199015  0  0  0.653658  0  4.190429  0  0  0.21981  0.596362  0  4.204012  0
C  C84  1  0.05765174  0.46977725  0.20916231  1  0  0.66909  0  3.910299  0  0  0.619501  0  4.199103  0  0  0.653679  0  4.19051  0  0  0.219827  0.596388  0  4.204103  0
C  C85  1  0.44235176  0.79084429  0.53022010  1  0  0.669213  0  3.910257  0  0  0.619579  0  4.199098  0  0  0.653758  0  4.190504  0  0  0.21984  0.596465  0  4.204098  0
O  O86  1  0.19193840  0.07746218  0.80075040  1  0  -0.668263  0  2.003638  0  0  -0.603081  0  2.232178  0  0  -0.629552  0  2.223208  0  0  -0.350807  -0.584461  0  2.237834  0
O  O87  1  0.30806018  0.19924453  0.92254205  1  0  -0.668246  0  2.003612  0  0  -0.603041  0  2.232116  0  0  -0.629511  0  2.223147  0  0  -0.350805  -0.584422  0  2.237769  0
O  O88  1  0.80805789  0.92254023  0.19924843  1  0  -0.668279  0  2.003538  0  0  -0.60302  0  2.232006  0  0  -0.629494  0  2.223044  0  0  -0.35079  -0.584403  0  2.237663  0
O  O89  1  0.69194021  0.80076069  0.07745875  1  0  -0.668277  0  2.003511  0  0  -0.603087  0  2.2321  0  0  -0.629558  0  2.223129  0  0  -0.350844  -0.584468  0  2.237756  0
O  O90  1  0.16344054  0.06694735  0.63916025  1  0  -0.703456  0  2.021214  0  0  -0.634363  0  2.243158  0  0  -0.660034  0  2.230924  0  0  -0.325999  -0.616485  0  2.25108  0
O  O91  1  0.33656085  0.36083979  0.93305290  1  0  -0.703326  0  2.02117  0  0  -0.63422  0  2.243116  0  0  -0.659893  0  2.230885  0  0  -0.325915  -0.616342  0  2.251036  0
O  O92  1  0.83655494  0.93305121  0.36084228  1  0  -0.703495  0  2.02114  0  0  -0.634413  0  2.243095  0  0  -0.660083  0  2.230857  0  0  -0.326066  -0.616536  0  2.251019  0
O  O93  1  0.66345378  0.63915886  0.06694569  1  0  -0.703421  0  2.021069  0  0  -0.634322  0  2.24301  0  0  -0.659993  0  2.230777  0  0  -0.326008  -0.616443  0  2.250932  0
O  O94  1  0.01275815  0.47895678  0.87014688  1  0  -0.711576  0  1.95557  0  0  -0.65105  0  2.196657  0  0  -0.678003  0  2.188282  0  0  -0.372247  -0.632094  0  2.201728  0
O  O95  1  0.48723435  0.12985328  0.52104285  1  0  -0.711505  0  1.955611  0  0  -0.650988  0  2.196703  0  0  -0.677929  0  2.188313  0  0  -0.372237  -0.632034  0  2.201772  0
O  O96  1  0.98724632  0.52103900  0.12985281  1  0  -0.71156  0  1.955743  0  0  -0.651055  0  2.196833  0  0  -0.678011  0  2.188465  0  0  -0.372261  -0.632101  0  2.201904  0
O  O97  1  0.51276788  0.87014630  0.47895590  1  0  -0.711555  0  1.955619  0  0  -0.651035  0  2.196712  0  0  -0.677986  0  2.188346  0  0  -0.372233  -0.632081  0  2.201782  0
O  O98  1  0.87194234  0.64854007  0.75948933  1  0  -0.722188  0  2.040861  0  0  -0.648293  0  2.262589  0  0  -0.675143  0  2.251318  0  0  -0.355609  -0.629543  0  2.26984  0
O  O99  1  0.62806035  0.24051520  0.35145597  1  0  -0.722139  0  2.04091  0  0  -0.648241  0  2.262651  0  0  -0.675093  0  2.251384  0  0  -0.355541  -0.629492  0  2.269902  0
O  O100  1  0.12806009  0.35145562  0.24051597  1  0  -0.722161  0  2.040833  0  0  -0.648262  0  2.262553  0  0  -0.675116  0  2.251292  0  0  -0.355557  -0.629512  0  2.269805  0
O  O101  1  0.37194321  0.75948346  0.64854111  1  0  -0.722193  0  2.040975  0  0  -0.648308  0  2.262716  0  0  -0.675157  0  2.251447  0  0  -0.355571  -0.629556  0  2.269966  0
O  O102  1  0.24978281  0.77270505  0.94535079  1  0  -0.843696  0  1.811877  0  0  -0.786598  0  1.97343  0  0  -0.806572  0  1.947654  0  0  -0.579303  -0.772378  0  1.991357  0
O  O103  1  0.25021601  0.05464621  0.22729525  1  0  -0.843706  0  1.811936  0  0  -0.786613  0  1.973494  0  0  -0.806586  0  1.947718  0  0  -0.579317  -0.772394  0  1.991421  0
O  O104  1  0.75021771  0.22729355  0.05464985  1  0  -0.843685  0  1.81184  0  0  -0.786588  0  1.973395  0  0  -0.806559  0  1.947622  0  0  -0.579279  -0.772366  0  1.991324  0
O  O105  1  0.74978341  0.94534955  0.77270552  1  0  -0.843734  0  1.811825  0  0  -0.786636  0  1.973376  0  0  -0.806609  0  1.9476  0  0  -0.579302  -0.772414  0  1.991304  0
O  O106  1  0.73905181  0.86731793  0.61166669  1  0  -0.888337  0  1.817982  0  0  -0.825856  0  1.989102  0  0  -0.847563  0  1.95726  0  0  -0.596009  -0.810442  0  2.011225  0
O  O107  1  0.76094591  0.38833536  0.13268001  1  0  -0.888372  0  1.817924  0  0  -0.825891  0  1.989015  0  0  -0.847601  0  1.957172  0  0  -0.596007  -0.810477  0  2.011139  0
O  O108  1  0.26094691  0.13267686  0.38833560  1  0  -0.888417  0  1.817867  0  0  -0.825912  0  1.988978  0  0  -0.84762  0  1.957133  0  0  -0.595987  -0.810498  0  2.011101  0
O  O109  1  0.23905200  0.61166515  0.86731911  1  0  -0.888378  0  1.817938  0  0  -0.825887  0  1.989061  0  0  -0.847595  0  1.957215  0  0  -0.596006  -0.810473  0  2.011185  0
O  O110  1  0.45900514  0.96306752  0.90083085  1  0  -0.883202  0  1.758498  0  0  -0.830693  0  1.914425  0  0  -0.850077  0  1.884143  0  0  -0.638281  -0.816851  0  1.935759  0
O  O111  1  0.04099384  0.09916945  0.03693103  1  0  -0.88317  0  1.758541  0  0  -0.830672  0  1.914466  0  0  -0.850057  0  1.884181  0  0  -0.638269  -0.816829  0  1.935801  0
O  O112  1  0.54099276  0.03693298  0.09916908  1  0  -0.88313  0  1.758576  0  0  -0.830642  0  1.914485  0  0  -0.850012  0  1.884231  0  0  -0.638245  -0.816801  0  1.935814  0
O  O113  1  0.95900537  0.90083011  0.96306886  1  0  -0.883195  0  1.758503  0  0  -0.830651  0  1.914516  0  0  -0.850062  0  1.884181  0  0  -0.638287  -0.81681  0  1.93585  0
O  O114  1  0.58514465  0.68143261  0.86681676  1  0  -0.881515  0  1.762008  0  0  -0.829889  0  1.91797  0  0  -0.848965  0  1.888227  0  0  -0.643874  -0.816241  0  1.938742  0
O  O115  1  0.91485442  0.13318324  0.31856684  1  0  -0.881477  0  1.762025  0  0  -0.829862  0  1.91796  0  0  -0.848939  0  1.888215  0  0  -0.643856  -0.816209  0  1.938726  0
O  O116  1  0.41485556  0.31856695  0.13318355  1  0  -0.881466  0  1.762027  0  0  -0.82985  0  1.917947  0  0  -0.848928  0  1.888204  0  0  -0.643859  -0.816203  0  1.938722  0
O  O117  1  0.08514378  0.86681632  0.68143261  1  0  -0.881502  0  1.761971  0  0  -0.829893  0  1.917893  0  0  -0.848971  0  1.888149  0  0  -0.643876  -0.816247  0  1.938672  0
