# generated using pymatgen
data_NiH9C9(NO2)2
_symmetry_space_group_name_H-M   'P 1'
_cell_length_a   6.86558675
_cell_length_b   7.62793864
_cell_length_c   22.33634771
_cell_angle_alpha   90.00078631
_cell_angle_beta   90.00050884
_cell_angle_gamma   90.00005870
_symmetry_Int_Tables_number   1
_chemical_formula_structural   NiH9C9(NO2)2
_chemical_formula_sum   'Ni4 H36 C36 N8 O16'
_cell_volume   1169.76065994
_cell_formula_units_Z   4
loop_
 _symmetry_equiv_pos_site_id
 _symmetry_equiv_pos_as_xyz
  1  'x, y, z'
loop_
 _atom_site_type_symbol
 _atom_site_label
 _atom_site_symmetry_multiplicity
 _atom_site_fract_x
 _atom_site_fract_y
 _atom_site_fract_z
 _atom_site_occupancy
 _atom_site_pbe_bader_charge
 _atom_site_pbe_bader_spin_density
 _atom_site_pbe_cm5_charge
 _atom_site_pbe_ddec_charge
 _atom_site_pbe_ddec_spin_density
 _atom_site_pbe_ddec_sum_bond_order
 _atom_site_pbe_magmom
Ni  Ni0  1  0.06675790  0.25916603  0.21186748  1  1.169413  1.561455  0.640062  0.79859  1.768485  2.462468  1.548
Ni  Ni1  1  0.93323843  0.25916875  0.78813207  1  1.169516  1.561459  0.640014  0.798507  1.768488  2.462561  1.548
Ni  Ni2  1  0.56676463  0.74083787  0.28812930  1  1.169693  1.561452  0.640022  0.798563  1.768476  2.462624  1.548
Ni  Ni3  1  0.43324102  0.74083056  0.71187252  1  1.16965  1.561448  0.640007  0.798598  1.768469  2.46256  1.548
H  H4  1  0.83876597  0.35771227  0.29195885  1  0.505457  2e-05  0.290098  0.297062  0.000309  1.002736  0.0
H  H5  1  0.89799190  0.14822878  0.30864245  1  0.440283  0.001209  0.296792  0.293163  0.00094  0.950501  0.0
H  H6  1  0.15578696  0.09967694  0.38706507  1  0.0517  -0.000165  0.098533  0.113186  -0.000248  1.001196  0.0
H  H7  1  0.36256461  0.23461636  0.38042403  1  0.045514  8.2e-05  0.107343  0.133063  -6.3e-05  0.965264  0.0
H  H8  1  0.05136035  0.40116833  0.37502338  1  0.055983  0.004794  0.103629  0.064988  0.002247  0.971411  0.003
H  H9  1  0.48679723  0.20399336  0.17856749  1  0.154828  0.001508  0.12513  0.106446  0.000417  0.994739  0.001
H  H10  1  0.68826157  0.20659389  0.08676583  1  0.110292  0.000965  0.110317  0.12092  0.000494  1.027391  0.0
H  H11  1  0.17096860  0.36083162  0.98909519  1  0.061429  0.000848  0.105274  0.109081  0.000436  1.040541  0.0
H  H12  1  0.99275275  0.35315918  0.08728727  1  0.135292  0.001796  0.11494  0.086125  0.000704  1.053682  0.001
H  H13  1  0.16123194  0.35770458  0.70804117  1  0.505496  2e-05  0.290065  0.29698  0.000309  1.002822  0.0
H  H14  1  0.10200720  0.14821905  0.69135523  1  0.440183  0.00121  0.296762  0.293097  0.000941  0.950462  0.0
H  H15  1  0.84420335  0.09966077  0.61293328  1  0.051503  -0.000165  0.098526  0.113208  -0.000248  1.001338  0.0
H  H16  1  0.63743169  0.23460553  0.61957541  1  0.045496  8.2e-05  0.107338  0.133092  -6.3e-05  0.965286  0.0
H  H17  1  0.94864489  0.40114880  0.62497505  1  0.055948  0.004794  0.103616  0.064885  0.002247  0.971545  0.003
H  H18  1  0.51318883  0.20399312  0.82143225  1  0.154886  0.001508  0.125154  0.106472  0.000416  0.994802  0.001
H  H19  1  0.31172450  0.20659715  0.91323481  1  0.110192  0.000965  0.110274  0.120834  0.000494  1.02751  0.0
H  H20  1  0.82902348  0.36082151  0.01090663  1  0.062778  0.000848  0.105259  0.10907  0.000436  1.040567  0.0
H  H21  1  0.00723932  0.35314774  0.91271452  1  0.135359  0.001796  0.114934  0.086125  0.000704  1.053654  0.001
H  H22  1  0.33877561  0.64229185  0.20803688  1  0.505512  2e-05  0.2901  0.297043  0.000309  1.002763  0.0
H  H23  1  0.39799404  0.85177933  0.19135165  1  0.440175  0.00121  0.296753  0.293041  0.000941  0.950498  0.0
H  H24  1  0.65578444  0.90033490  0.11292971  1  0.051556  -0.000166  0.098536  0.113167  -0.000248  1.001353  0.0
H  H25  1  0.86256358  0.76538910  0.11957042  1  0.045473  8.1e-05  0.107361  0.133094  -6.3e-05  0.96526  0.0
H  H26  1  0.55135053  0.59884342  0.12497067  1  0.055784  0.004793  0.103627  0.064902  0.002247  0.971447  0.003
H  H27  1  0.98681373  0.79601614  0.32143222  1  0.154874  0.001508  0.125121  0.106453  0.000416  0.994849  0.001
H  H28  1  0.18827733  0.79340356  0.41323351  1  0.110121  0.000965  0.110296  0.1209  0.000494  1.027512  0.0
H  H29  1  0.67098904  0.63916615  0.51090152  1  0.062934  0.000848  0.105322  0.109148  0.000436  1.040552  0.0
H  H30  1  0.49276542  0.64684901  0.41270977  1  0.135437  0.001797  0.114917  0.086117  0.000705  1.053591  0.001
H  H31  1  0.66122409  0.64229187  0.79196537  1  0.505484  2e-05  0.290122  0.297144  0.000309  1.002624  0.0
H  H32  1  0.60200447  0.85177866  0.80865159  1  0.440172  0.00121  0.296824  0.293175  0.00094  0.95041  0.0
H  H33  1  0.34419518  0.90033059  0.88707510  1  0.051332  -0.000166  0.098503  0.1132  -0.000248  1.001198  0.0
H  H34  1  0.13742317  0.76538172  0.88042748  1  0.045341  8.1e-05  0.107329  0.133021  -6.3e-05  0.965224  0.0
H  H35  1  0.44864329  0.59884527  0.87503048  1  0.05578  0.004793  0.103593  0.064821  0.002247  0.971471  0.003
H  H36  1  0.01320218  0.79600058  0.67856807  1  0.154797  0.001508  0.125153  0.106382  0.000416  0.994872  0.001
H  H37  1  0.81173712  0.79340074  0.58676542  1  0.109819  0.000965  0.110312  0.120917  0.000494  1.02738  0.0
H  H38  1  0.32903397  0.63916950  0.48909713  1  0.061453  0.000848  0.105282  0.109062  0.000436  1.040562  0.0
H  H39  1  0.50724740  0.64683022  0.58728981  1  0.135287  0.001797  0.114963  0.086115  0.000704  1.053648  0.001
C  C40  1  0.31710483  0.06198500  0.30649921  1  1.567288  -0.002675  0.213553  0.64302  -0.003261  4.110784  -0.003
C  C41  1  0.23711973  0.18292426  0.35548009  1  -0.028427  0.007071  -0.160888  -0.338048  0.004024  3.914671  0.005
C  C42  1  0.10820556  0.33398557  0.33492095  1  0.306324  0.010292  -0.002982  0.072054  0.006454  3.888717  0.005
C  C43  1  0.23103223  0.47018163  0.30042251  1  1.583961  0.000779  0.216654  0.566729  -0.000165  4.118957  -0.001
C  C44  1  0.42272490  0.23675099  0.13536167  1  0.469854  -0.005353  0.050589  0.093727  -0.006147  3.915933  -0.003
C  C45  1  0.53404165  0.23882657  0.08328706  1  -0.083507  0.00409  -0.082224  -0.177961  0.002119  3.941991  0.003
C  C46  1  0.44529100  0.28009347  0.02838326  1  0.054365  -0.00827  0.005348  0.095984  -0.009346  3.997653  -0.005
C  C47  1  0.24635393  0.32210607  0.02981438  1  -0.028541  0.003347  -0.088336  -0.180882  0.001676  3.961845  0.003
C  C48  1  0.14598019  0.31774682  0.08365563  1  0.428107  -0.005369  0.044186  0.08802  -0.006212  3.949003  -0.004
C  C49  1  0.68288689  0.06198110  0.69350076  1  1.567485  -0.002675  0.21354  0.642956  -0.00326  4.110774  -0.003
C  C50  1  0.76287796  0.18291584  0.64451911  1  -0.028329  0.007071  -0.160937  -0.338224  0.004024  3.91494  0.005
C  C51  1  0.89179668  0.33397285  0.66507761  1  0.306447  0.010292  -0.003004  0.072179  0.006454  3.888832  0.005
C  C52  1  0.76897309  0.47017673  0.69957669  1  1.583865  0.00078  0.2167  0.566682  -0.000164  4.119079  -0.001
C  C53  1  0.57726266  0.23675122  0.86463733  1  0.469567  -0.005352  0.050566  0.093653  -0.006147  3.915969  -0.003
C  C54  1  0.46594591  0.23882748  0.91671329  1  -0.083523  0.00409  -0.082076  -0.177754  0.002119  3.94192  0.003
C  C55  1  0.55469661  0.28009140  0.97161729  1  0.01205  -0.008343  0.005183  0.095821  -0.009345  3.997536  -0.005
C  C56  1  0.75363373  0.32210412  0.97018591  1  -0.028881  0.003347  -0.088291  -0.180827  0.001676  3.961691  0.003
C  C57  1  0.85400893  0.31774411  0.91634420  1  0.428308  -0.005368  0.044234  0.088042  -0.006211  3.94895  -0.004
C  C58  1  0.81710761  0.93802173  0.19349333  1  1.567029  -0.002674  0.213534  0.642876  -0.003259  4.110863  -0.003
C  C59  1  0.73711949  0.81708241  0.14451626  1  -0.028449  0.007069  -0.160943  -0.338117  0.004023  3.915163  0.005
C  C60  1  0.60820136  0.66602360  0.16507415  1  0.306651  0.010291  -0.002994  0.072139  0.006454  3.888977  0.005
C  C61  1  0.73102886  0.52981979  0.19957113  1  1.583962  0.000783  0.216672  0.566681  -0.000162  4.119528  -0.001
C  C62  1  0.92274115  0.76325714  0.36463563  1  0.469806  -0.005354  0.050558  0.093516  -0.006149  3.916026  -0.003
C  C63  1  0.03406039  0.76117729  0.41671321  1  -0.083764  0.00409  -0.082115  -0.177804  0.00212  3.942025  0.003
C  C64  1  0.94531467  0.71991206  0.47161545  1  0.01179  -0.008345  0.005285  0.09595  -0.009347  3.997359  -0.005
C  C65  1  0.74637168  0.67789404  0.47018154  1  -0.029347  0.003348  -0.088391  -0.181021  0.001676  3.961594  0.003
C  C66  1  0.64600221  0.68226108  0.41634047  1  0.428896  -0.005368  0.044187  0.087957  -0.006209  3.949164  -0.004
C  C67  1  0.18288955  0.93801799  0.80650808  1  1.56701  -0.002674  0.213493  0.642742  -0.003258  4.110946  -0.003
C  C68  1  0.26286878  0.81708069  0.85548458  1  -0.028143  0.007068  -0.160854  -0.337996  0.004022  3.914777  0.005
C  C69  1  0.39179546  0.66602249  0.83492687  1  0.306583  0.01029  -0.002895  0.072357  0.006453  3.88887  0.005
C  C70  1  0.26896925  0.52982112  0.80042970  1  1.584016  0.000782  0.216638  0.566627  -0.000163  4.119456  -0.001
C  C71  1  0.07727327  0.76324646  0.63536316  1  0.469889  -0.005352  0.050543  0.093729  -0.006147  3.915875  -0.003
C  C72  1  0.96595839  0.76117185  0.58328647  1  -0.082981  0.004089  -0.082193  -0.17793  0.002119  3.941963  0.003
C  C73  1  0.05471135  0.71990888  0.52838224  1  0.054701  -0.00827  0.005324  0.095995  -0.009347  3.997732  -0.005
C  C74  1  0.25364846  0.67789371  0.52981685  1  -0.028818  0.003348  -0.088404  -0.180917  0.001676  3.961943  0.003
C  C75  1  0.35401793  0.68224726  0.58365794  1  0.428318  -0.005368  0.044226  0.088056  -0.00621  3.949037  -0.004
N  N76  1  0.95096323  0.26824263  0.29635029  1  -1.167095  0.085743  -0.635021  -0.608845  0.048165  3.436975  0.069
N  N77  1  0.23101662  0.27381991  0.13580606  1  -1.194195  0.05426  -0.323296  -0.2016  0.031675  3.553052  0.049
N  N78  1  0.04903602  0.26823204  0.70364931  1  -1.167109  0.085748  -0.634902  -0.608619  0.048168  3.43688  0.069
N  N79  1  0.76897098  0.27382160  0.86419356  1  -1.194176  0.054256  -0.323315  -0.201618  0.031674  3.552972  0.049
N  N80  1  0.45096558  0.73176684  0.20364575  1  -1.1671  0.085732  -0.634956  -0.608643  0.04816  3.436895  0.069
N  N81  1  0.73102845  0.72618675  0.36419116  1  -1.194469  0.054263  -0.323242  -0.201357  0.031677  3.552938  0.049
N  N82  1  0.54903278  0.73176431  0.79635693  1  -1.167043  0.085725  -0.635066  -0.609003  0.048159  3.436894  0.069
N  N83  1  0.26898593  0.72617232  0.63580835  1  -1.194316  0.054268  -0.323327  -0.201602  0.03168  3.552839  0.049
O  O84  1  0.28082018  0.08557086  0.25124175  1  -1.147952  0.070007  -0.30255  -0.550962  0.038631  2.274404  0.065
O  O85  1  0.42058408  0.93850144  0.32779630  1  -1.160681  0.07213  -0.325072  -0.564008  0.040385  2.374418  0.066
O  O86  1  0.34839049  0.56522628  0.32948898  1  -1.164373  0.071664  -0.300789  -0.541823  0.039898  2.312919  0.065
O  O87  1  0.20612458  0.47529064  0.24381700  1  -1.144748  0.069826  -0.301252  -0.517996  0.038396  2.387881  0.064
O  O88  1  0.71917302  0.08557837  0.74875788  1  -1.148079  0.070006  -0.302544  -0.550901  0.038632  2.274467  0.065
O  O89  1  0.57941453  0.93849266  0.67220421  1  -1.16074  0.072127  -0.325048  -0.563957  0.040384  2.374486  0.066
O  O90  1  0.65161350  0.56521488  0.67050978  1  -1.164294  0.071666  -0.300831  -0.541834  0.039898  2.312909  0.065
O  O91  1  0.79389385  0.47529459  0.75618178  1  -1.144633  0.069826  -0.301206  -0.5179  0.038393  2.38794  0.064
O  O92  1  0.78083036  0.91442273  0.24875561  1  -1.147961  0.070008  -0.302557  -0.550931  0.038633  2.274139  0.065
O  O93  1  0.92057061  0.06150669  0.17219875  1  -1.160257  0.072121  -0.32506  -0.563899  0.040378  2.374508  0.066
O  O94  1  0.84838033  0.43478179  0.17050902  1  -1.164376  0.071644  -0.300773  -0.541752  0.039887  2.313334  0.065
O  O95  1  0.70609954  0.52470288  0.25618061  1  -1.144781  0.069829  -0.301261  -0.518021  0.038395  2.387868  0.064
O  O96  1  0.21916968  0.91441419  0.75124523  1  -1.147871  0.070011  -0.302503  -0.550853  0.038635  2.274122  0.065
O  O97  1  0.07942839  0.06150896  0.82780076  1  -1.160362  0.072115  -0.325089  -0.563892  0.040376  2.374528  0.066
O  O98  1  0.15161329  0.43478549  0.82949047  1  -1.164396  0.071643  -0.300779  -0.541731  0.039887  2.313264  0.065
O  O99  1  0.29389856  0.52469935  0.74381975  1  -1.144779  0.069832  -0.301255  -0.518023  0.038397  2.387862  0.064
