# generated using pymatgen
data_Zr3H35(C39O8)2
_symmetry_space_group_name_H-M   'P 1'
_cell_length_a   22.11741793
_cell_length_b   22.12281588
_cell_length_c   22.12873025
_cell_angle_alpha   89.96833441
_cell_angle_beta   90.03035850
_cell_angle_gamma   89.93201680
_symmetry_Int_Tables_number   1
_chemical_formula_structural   Zr3H35(C39O8)2
_chemical_formula_sum   'Zr6 H70 C156 O32'
_cell_volume   10827.56727991
_cell_formula_units_Z   2
loop_
 _symmetry_equiv_pos_site_id
 _symmetry_equiv_pos_as_xyz
  1  'x, y, z'
loop_
 _atom_site_type_symbol
 _atom_site_label
 _atom_site_symmetry_multiplicity
 _atom_site_fract_x
 _atom_site_fract_y
 _atom_site_fract_z
 _atom_site_occupancy
 _atom_site_pbe_bader_charge
 _atom_site_pbe_bader_spin_density
 _atom_site_pbe_cm5_charge
 _atom_site_pbe_ddec_charge
 _atom_site_pbe_ddec_spin_density
 _atom_site_pbe_ddec_sum_bond_order
 _atom_site_pbe_magmom
Zr  Zr0  1  0.49819575  0.61368907  0.49983871  1  2.635237  0  1.623887  2.373157  0  2.760417  0
Zr  Zr1  1  0.49844675  0.50100692  0.38682381  1  2.636302  0  1.623084  2.3741  0  2.754186  0
Zr  Zr2  1  0.61193963  0.50092155  0.49951468  1  2.637514  0  1.623999  2.373469  0  2.756913  0
Zr  Zr3  1  0.49943160  0.38762940  0.49943914  1  2.634879  0  1.624696  2.374365  0  2.75867  0
Zr  Zr4  1  0.38592087  0.50009188  0.50045086  1  2.633484  0  1.624377  2.37339  0  2.760968  0
Zr  Zr5  1  0.49952555  0.50070167  0.61276580  1  2.637142  0  1.624581  2.373294  0  2.761937  0
H  H6  1  0.41090750  0.41151804  0.58934816  1  0.616215  0  0.330838  0.422375  0  0.857496  0
H  H7  1  0.50678432  0.00061867  0.20820189  1  0.09493  0  0.110381  0.120191  0  0.984331  0
H  H8  1  0.49508596  0.15408390  0.05565703  1  0.0746  0  0.102638  0.105501  0  1.007054  0
H  H9  1  0.49262671  0.15410951  0.94350131  1  0.118774  0  0.102945  0.105881  0  1.006597  0
H  H10  1  0.52749544  0.72655090  0.16411646  1  0.084342  0  0.105631  0.108767  0  0.989689  0
H  H11  1  0.52200933  0.64055650  0.23741997  1  0.099457  0  0.108698  0.112493  0  0.992798  0
H  H12  1  0.48998076  0.76533666  0.38243480  1  0.124292  0  0.109851  0.115421  0  0.994214  0
H  H13  1  0.49381424  0.85174613  0.30974052  1  0.105069  0  0.105533  0.106931  0  0.989899  0
H  H14  1  0.49119265  0.36161252  0.23388261  1  0.08894  0  0.108933  0.113085  0  0.990942  0
H  H15  1  0.49263450  0.27502315  0.16128134  1  0.098231  0  0.105522  0.10786  0  0.990864  0
H  H16  1  0.50150732  0.15038356  0.31109973  1  0.05942  0  0.10558  0.107257  0  0.989737  0
H  H17  1  0.49929312  0.23751754  0.38288402  1  0.131609  0  0.110126  0.116196  0  0.995369  0
H  H18  1  0.49500345  0.00068860  0.79073598  1  0.067971  0  0.110509  0.120725  0  0.982618  0
H  H19  1  0.50457963  0.84723899  0.94331342  1  0.086021  0  0.102571  0.105529  0  1.007516  0
H  H20  1  0.50866929  0.84720112  0.05542766  1  0.08352  0  0.102881  0.105681  0  1.006597  0
H  H21  1  0.51358227  0.27392122  0.83646604  1  0.081921  0  0.105698  0.108248  0  0.989606  0
H  H22  1  0.51622347  0.36035962  0.76348541  1  0.090254  0  0.109484  0.114195  0  0.990865  0
H  H23  1  0.48619766  0.23778636  0.61618430  1  0.10993  0  0.110158  0.115468  0  0.995155  0
H  H24  1  0.48178048  0.15100709  0.68849481  1  0.057405  0  0.105952  0.10818  0  0.989197  0
H  H25  1  0.49567117  0.63986879  0.76392891  1  0.094754  0  0.109094  0.113396  0  0.991679  0
H  H26  1  0.49681921  0.72595147  0.83729808  1  0.061404  0  0.105579  0.108128  0  0.990446  0
H  H27  1  0.50061456  0.85180810  0.68832759  1  0.064755  0  0.105983  0.108163  0  0.989079  0
H  H28  1  0.49920527  0.76520978  0.61579192  1  0.098311  0  0.110413  0.116478  0  0.993049  0
H  H29  1  0.78975624  0.50389080  0.00076846  1  0.046585  0  0.110034  0.119761  0  0.983326  0
H  H30  1  0.94167365  0.48878828  0.84718451  1  0.088467  0  0.102804  0.105786  0  1.007773  0
H  H31  1  0.05392778  0.48854868  0.84660561  1  0.087546  0  0.102907  0.106366  0  1.006752  0
H  H32  1  0.83626277  0.50127737  0.27394990  1  0.088088  0  0.105799  0.108555  0  0.989199  0
H  H33  1  0.76349438  0.49982068  0.36044416  1  0.091183  0  0.109762  0.11427  0  0.990087  0
H  H34  1  0.61523313  0.52197656  0.23712623  1  0.084599  0  0.109854  0.115653  0  0.995874  0
H  H35  1  0.68724587  0.52437115  0.15008995  1  0.090021  0  0.105821  0.108176  0  0.988981  0
H  H36  1  0.76425776  0.48974512  0.63991037  1  0.093495  0  0.108709  0.112463  0  0.99149  0
H  H37  1  0.83642382  0.48843129  0.72707017  1  0.08098  0  0.105596  0.108208  0  0.990664  0
H  H38  1  0.68589313  0.49648315  0.85078369  1  0.07574  0  0.10592  0.108185  0  0.989042  0
H  H39  1  0.61455696  0.49725312  0.76314846  1  0.070816  0  0.110355  0.115784  0  0.995462  0
H  H40  1  0.20756947  0.49940760  0.99896246  1  0.041691  0  0.110404  0.119961  0  0.983943  0
H  H41  1  0.05560706  0.50766022  0.15302872  1  0.082105  0  0.102711  0.105639  0  1.006651  0
H  H42  1  0.94338617  0.50966044  0.15349437  1  0.078491  0  0.102773  0.105845  0  1.006468  0
H  H43  1  0.16228874  0.49070044  0.72500590  1  0.054828  0  0.105694  0.108527  0  0.98993  0
H  H44  1  0.23606057  0.49469848  0.63936732  1  0.085023  0  0.10892  0.113388  0  0.992166  0
H  H45  1  0.38295726  0.50904922  0.76538991  1  0.125741  0  0.110584  0.116455  0  0.992927  0
H  H46  1  0.30996902  0.50575638  0.85155765  1  0.066696  0  0.105833  0.10787  0  0.9891  0
H  H47  1  0.23321042  0.50606647  0.36026500  1  0.091225  0  0.108998  0.113186  0  0.990915  0
H  H48  1  0.16115860  0.50945917  0.27315627  1  0.034451  0  0.10557  0.108507  0  0.989914  0
H  H49  1  0.31083084  0.48915937  0.14975742  1  0.081979  0  0.105972  0.107717  0  0.989802  0
H  H50  1  0.38209529  0.48668754  0.23738337  1  0.080453  0  0.110797  0.117125  0  0.993644  0
H  H51  1  0.99670776  0.79197018  0.49694159  1  0.100627  0  0.110503  0.120359  0  0.983046  0
H  H52  1  0.15184406  0.94275760  0.50582645  1  0.09663  0  0.102429  0.105415  0  1.006511  0
H  H53  1  0.15300724  0.05492804  0.50884529  1  0.085145  0  0.102564  0.105829  0  1.006337  0
H  H54  1  0.72236086  0.83926937  0.49241203  1  0.085025  0  0.105792  0.108151  0  0.990408  0
H  H55  1  0.63651884  0.76566584  0.49232572  1  0.093669  0  0.109534  0.11415  0  0.991297  0
H  H56  1  0.76235204  0.61783578  0.49416325  1  0.07695  0  0.110143  0.116042  0  0.994607  0
H  H57  1  0.84879238  0.69053797  0.49428625  1  0.062816  0  0.105648  0.107489  0  0.989337  0
H  H58  1  0.35775082  0.76399844  0.49800502  1  0.083438  0  0.109084  0.113467  0  0.991886  0
H  H59  1  0.27097263  0.83670256  0.49581734  1  0.074979  0  0.10557  0.108288  0  0.989428  0
H  H60  1  0.14648920  0.68720359  0.50842686  1  0.08091  0  0.105974  0.108286  0  0.989495  0
H  H61  1  0.23378916  0.61531076  0.51005892  1  0.087824  0  0.110387  0.116181  0  0.99369  0
H  H62  1  0.00103832  0.20953337  0.50745579  1  0.05986  0  0.110366  0.120258  0  0.98358  0
H  H63  1  0.84592272  0.05868250  0.50075006  1  0.074676  0  0.102575  0.105456  0  1.0071  0
H  H64  1  0.84473060  0.94648995  0.49803896  1  0.095683  0  0.102566  0.105452  0  1.006075  0
H  H65  1  0.27541793  0.16212745  0.51163206  1  0.050967  0  0.10551  0.108501  0  0.990151  0
H  H66  1  0.36142212  0.23541442  0.50706139  1  0.121754  0  0.10909  0.112985  0  0.991389  0
H  H67  1  0.23579847  0.38300039  0.49485167  1  0.130054  0  0.11054  0.116174  0  0.994314  0
H  H68  1  0.14925763  0.31051345  0.49888460  1  0.077808  0  0.106125  0.108045  0  0.989729  0
H  H69  1  0.64064512  0.23757555  0.48151781  1  0.101502  0  0.109228  0.113311  0  0.990432  0
H  H70  1  0.72784703  0.16545450  0.48006031  1  0.062373  0  0.105631  0.108322  0  0.989783  0
H  H71  1  0.84853901  0.31150501  0.52600322  1  0.05901  0  0.105884  0.10794  0  0.988775  0
H  H72  1  0.76104112  0.38322937  0.52539607  1  0.112299  0  0.110037  0.115393  0  0.995052  0
H  H73  1  0.40901181  0.58941557  0.41126880  1  0.61139  0  0.331813  0.424973  0  0.85414  0
H  H74  1  0.58788111  0.41248601  0.40996500  1  0.615353  0  0.331294  0.423344  0  0.855723  0
H  H75  1  0.58829031  0.58956313  0.58838524  1  0.612771  0  0.331486  0.424203  0  0.855036  0
C  C76  1  0.49546975  0.35534616  0.35711392  1  1.531979  0  0.233735  0.63607  0  4.106426  0
C  C77  1  0.50178501  0.64724370  0.35840819  1  1.541546  0  0.233798  0.637419  0  4.107669  0
C  C78  1  0.50181648  0.05603363  0.12825679  1  0.132386  0  0.001347  0.090464  0  4.109969  0
C  C79  1  0.50533606  0.00064443  0.15900521  1  0.015843  0  -0.072532  -0.158604  0  3.903117  0
C  C80  1  0.50692070  0.94526375  0.12815739  1  0.085766  0  0.001737  0.090288  0  4.111124  0
C  C81  1  0.50493509  0.94460047  0.06362333  1  -0.052982  0  0.002427  0.037635  0  3.975065  0
C  C82  1  0.50146982  0.00066647  0.03177547  1  -0.116409  0  0.005099  0.004184  0  3.93262  0
C  C83  1  0.49995635  0.05672505  0.06370290  1  0.008156  0  0.00244  0.038178  0  3.972782  0
C  C84  1  0.49653961  0.11171932  0.03051139  1  -0.096176  0  -0.086286  -0.116277  0  3.999249  0
C  C85  1  0.49514241  0.11172926  0.96859193  1  0.055082  0  -0.085824  -0.115997  0  3.999344  0
C  C86  1  0.50976369  0.89102352  0.16167929  1  -0.122599  0  -0.039934  -0.092866  0  4.133677  0
C  C87  1  0.51131472  0.84497629  0.19223711  1  -0.193478  0  -0.041177  -0.110093  0  4.103122  0
C  C88  1  0.51052214  0.79495705  0.23201228  1  0.067247  0  0.004168  0.145708  0  4.114714  0
C  C89  1  0.51883077  0.73489669  0.21186918  1  -0.053391  0  -0.083464  -0.133024  0  3.951717  0
C  C90  1  0.51599827  0.68706180  0.25254000  1  -0.028487  0  -0.078531  -0.081743  0  3.98576  0
C  C91  1  0.50539402  0.69789330  0.31408321  1  -0.047378  0  -0.017093  -0.044334  0  3.966068  0
C  C92  1  0.49790058  0.75755317  0.33449145  1  0.017528  0  -0.080371  -0.084797  0  3.990909  0
C  C93  1  0.50018682  0.80543198  0.29420709  1  -0.087406  0  -0.082445  -0.126072  0  3.954115  0
C  C94  1  0.50022132  0.11028614  0.16177565  1  -0.17223  0  -0.039793  -0.094795  0  4.133241  0
C  C95  1  0.49871759  0.15648770  0.19205902  1  -0.181893  0  -0.041517  -0.108351  0  4.102157  0
C  C96  1  0.49525363  0.30462350  0.31269485  1  0.012189  0  -0.01747  -0.044321  0  3.962462  0
C  C97  1  0.49329379  0.31513763  0.25017725  1  -0.020277  0  -0.078673  -0.082805  0  3.985559  0
C  C98  1  0.49417895  0.26695492  0.20985270  1  -0.017901  0  -0.083469  -0.131803  0  3.951414  0
C  C99  1  0.49729423  0.20683231  0.23133425  1  0.044764  0  0.004342  0.145165  0  4.114523  0
C  C100  1  0.49911704  0.19669840  0.29441955  1  -0.032011  0  -0.082358  -0.126612  0  3.953775  0
C  C101  1  0.49795244  0.24493710  0.33425629  1  -0.069633  0  -0.081314  -0.08578  0  3.990785  0
C  C102  1  0.49659630  0.64687324  0.64134153  1  1.533762  0  0.234054  0.638231  0  4.106644  0
C  C103  1  0.50293824  0.35470971  0.64129428  1  1.532805  0  0.233038  0.634876  0  4.10875  0
C  C104  1  0.49830393  0.94530870  0.87082056  1  0.12387  0  0.001657  0.092255  0  4.108163  0
C  C105  1  0.49612704  0.00069314  0.83995684  1  -0.011784  0  -0.072089  -0.159412  0  3.900848  0
C  C106  1  0.49573481  0.05608617  0.87079362  1  0.102903  0  0.001736  0.091967  0  4.11088  0
C  C107  1  0.49677775  0.05672779  0.93535107  1  -0.071871  0  0.002514  0.037214  0  3.973518  0
C  C108  1  0.49951447  0.00066840  0.96724684  1  0.04829  0  0.004723  0.006376  0  3.931699  0
C  C109  1  0.50048871  0.94460144  0.93534710  1  0.038846  0  0.002693  0.036824  0  3.973404  0
C  C110  1  0.50379154  0.88958683  0.96849382  1  -0.022831  0  -0.086148  -0.116215  0  4.000248  0
C  C111  1  0.50603964  0.88958545  0.03037583  1  -0.065572  0  -0.085952  -0.115673  0  3.999677  0
C  C112  1  0.49518229  0.11036340  0.83725457  1  -0.030926  0  -0.04039  -0.095295  0  4.135528  0
C  C113  1  0.49610845  0.15643407  0.80673078  1  -0.372359  0  -0.040631  -0.108223  0  4.104057  0
C  C114  1  0.49751114  0.20667166  0.76729114  1  0.093827  0  0.003443  0.14432  0  4.115883  0
C  C115  1  0.50717709  0.26623394  0.78824453  1  -0.036223  0  -0.082978  -0.130329  0  3.94896  0
C  C116  1  0.50885776  0.31426190  0.74776223  1  -0.064122  0  -0.078948  -0.084913  0  3.98692  0
C  C117  1  0.50147647  0.30400174  0.68564366  1  -0.040954  0  -0.017016  -0.04249  0  3.965487  0
C  C118  1  0.49191806  0.24490187  0.66455264  1  0.02646  0  -0.08102  -0.085051  0  3.989176  0
C  C119  1  0.48960443  0.19686935  0.70464322  1  -0.005222  0  -0.082387  -0.127456  0  3.95575  0
C  C120  1  0.49866478  0.89103454  0.83735926  1  -0.036032  0  -0.04055  -0.09537  0  4.134181  0
C  C121  1  0.49877281  0.84480092  0.80711935  1  -0.336631  0  -0.040287  -0.107578  0  4.104451  0
C  C122  1  0.49711497  0.69753803  0.68568806  1  -0.046326  0  -0.017828  -0.045884  0  3.967474  0
C  C123  1  0.49664789  0.68653712  0.74812769  1  -0.099149  0  -0.079279  -0.083848  0  3.988733  0
C  C124  1  0.49736452  0.73440657  0.78877247  1  0.031697  0  -0.083339  -0.131101  0  3.95295  0
C  C125  1  0.49858635  0.79467556  0.76758856  1  0.11863  0  0.003763  0.144305  0  4.118051  0
C  C126  1  0.49941381  0.80530436  0.70456645  1  -0.057529  0  -0.082705  -0.12801  0  3.954075  0
C  C127  1  0.49863620  0.75735045  0.66437992  1  0.039602  0  -0.079919  -0.083218  0  3.987334  0
C  C128  1  0.64126147  0.49637420  0.64548533  1  1.544705  0  0.233589  0.635106  0  4.107553  0
C  C129  1  0.64059752  0.50653365  0.35417344  1  1.535097  0  0.233972  0.636694  0  4.107875  0
C  C130  1  0.86955248  0.49803199  0.94525274  1  0.022965  0  0.001304  0.090621  0  4.110837  0
C  C131  1  0.83899863  0.50256223  0.00062322  1  0.041186  0  -0.071926  -0.15791  0  3.90135  0
C  C132  1  0.87009593  0.50524040  0.05583561  1  0.11564  0  0.001969  0.091434  0  4.108841  0
C  C133  1  0.93470314  0.50386266  0.05628861  1  0.070936  0  0.002473  0.03654  0  3.973338  0
C  C134  1  0.96634043  0.49980889  0.00017644  1  0.03577  0  0.004792  0.007056  0  3.929842  0
C  C135  1  0.93414097  0.49652163  0.94433159  1  0.032157  0  0.00248  0.036461  0  3.974334  0
C  C136  1  0.96706815  0.49204848  0.88930008  1  -0.065969  0  -0.086118  -0.115438  0  3.999897  0
C  C137  1  0.02903969  0.49181216  0.88900769  1  -0.021455  0  -0.086338  -0.117768  0  4.001265  0
C  C138  1  0.83663631  0.50884738  0.11002639  1  -0.375642  0  -0.040243  -0.094632  0  4.133261  0
C  C139  1  0.80592420  0.51117941  0.15589976  1  -0.026629  0  -0.040683  -0.108384  0  4.10266  0
C  C140  1  0.76653976  0.51239847  0.20616515  1  0.023662  0  0.00362  0.145058  0  4.115013  0
C  C141  1  0.78783853  0.50608092  0.26608017  1  0.008693  0  -0.083065  -0.131112  0  3.949488  0
C  C142  1  0.74745204  0.50522540  0.31417768  1  -0.045932  0  -0.079109  -0.08417  0  3.985454  0
C  C143  1  0.68507574  0.51034905  0.30372788  1  -0.030608  0  -0.016683  -0.042043  0  3.964257  0
C  C144  1  0.66375629  0.51768914  0.24437657  1  0.026762  0  -0.080517  -0.085505  0  3.989783  0
C  C145  1  0.70369659  0.51888956  0.19620489  1  -0.0493  0  -0.083141  -0.128782  0  3.954125  0
C  C146  1  0.83571649  0.49538479  0.89123031  1  0.175369  0  -0.039847  -0.093534  0  4.1343  0
C  C147  1  0.80516179  0.49358698  0.84519984  1  -0.558618  0  -0.041138  -0.109302  0  4.103506  0
C  C148  1  0.68524863  0.49386540  0.69648793  1  -0.015284  0  -0.017252  -0.043545  0  3.9634  0
C  C149  1  0.74779798  0.49107829  0.68633632  1  -0.039663  0  -0.079177  -0.084187  0  3.987553  0
C  C150  1  0.78780449  0.49037195  0.73479557  1  -0.040722  0  -0.083484  -0.131493  0  3.951933  0
C  C151  1  0.76594894  0.49271820  0.79477592  1  0.0749  0  0.003863  0.145254  0  4.115505  0
C  C152  1  0.70280130  0.49486024  0.80455162  1  -0.03368  0  -0.082767  -0.128327  0  3.955059  0
C  C153  1  0.66324403  0.49532745  0.75603000  1  0.015084  0  -0.080517  -0.083799  0  3.987937  0
C  C154  1  0.35620400  0.49670809  0.35471675  1  1.530706  0  0.233863  0.635912  0  4.105938  0
C  C155  1  0.35813112  0.50296254  0.64678239  1  1.543838  0  0.233618  0.635824  0  4.107882  0
C  C156  1  0.12781042  0.50123847  0.05481130  1  0.107223  0  0.001797  0.091194  0  4.109166  0
C  C157  1  0.15832888  0.49917580  0.99928049  1  0.128469  0  -0.072139  -0.158488  0  3.901024  0
C  C158  1  0.12716854  0.49666895  0.94407925  1  0.026778  0  0.001909  0.091994  0  4.108695  0
C  C159  1  0.06257575  0.49573371  0.94374080  1  0.049755  0  0.00279  0.03834  0  3.97407  0
C  C160  1  0.03095273  0.49916641  0.99989046  1  0.047177  0  0.004709  0.002622  0  3.933301  0
C  C161  1  0.06320197  0.50202469  0.05574513  1  -0.126351  0  0.002205  0.038003  0  3.973652  0
C  C162  1  0.03023699  0.50556623  0.11081430  1  -0.075613  0  -0.085528  -0.115475  0  3.998703  0
C  C163  1  0.96827357  0.50659540  0.11107362  1  -0.025207  0  -0.086125  -0.11624  0  4.000179  0
C  C164  1  0.16057389  0.49580935  0.88976500  1  -0.358615  0  -0.039824  -0.093954  0  4.132999  0
C  C165  1  0.19139761  0.49626268  0.84390742  1  -0.049945  0  -0.04103  -0.109222  0  4.102211  0
C  C166  1  0.23129537  0.49800577  0.79407461  1  0.097258  0  0.003927  0.145956  0  4.113203  0
C  C167  1  0.21059937  0.49491530  0.73371085  1  -0.008693  0  -0.083712  -0.132447  0  3.95233  0
C  C168  1  0.25146670  0.49711564  0.68609173  1  -0.073276  0  -0.079147  -0.083862  0  3.988993  0
C  C169  1  0.31367834  0.50215221  0.69737188  1  0.026351  0  -0.017644  -0.044028  0  3.966143  0
C  C170  1  0.33453759  0.50524216  0.75725988  1  -0.042731  0  -0.079694  -0.083504  0  3.987047  0
C  C171  1  0.29408502  0.50330038  0.80499024  1  -0.034642  0  -0.082769  -0.128157  0  3.952781  0
C  C172  1  0.16161282  0.50204866  0.10893256  1  -0.13268  0  -0.039935  -0.093862  0  4.133966  0
C  C173  1  0.19211603  0.50145800  0.15502926  1  -0.189045  0  -0.040326  -0.108  0  4.103326  0
C  C174  1  0.31190366  0.49634341  0.30387454  1  -0.024013  0  -0.016977  -0.042942  0  3.962841  0
C  C175  1  0.24955539  0.50236111  0.31395266  1  -0.041417  0  -0.079617  -0.08462  0  3.98578  0
C  C176  1  0.20955976  0.50421062  0.26548361  1  0.01245  0  -0.083102  -0.131767  0  3.94875  0
C  C177  1  0.23121214  0.49966483  0.20555027  1  0.071607  0  0.003337  0.143948  0  4.115072  0
C  C178  1  0.29406755  0.49296056  0.19590584  1  -0.050944  0  -0.082688  -0.1271  0  3.954102  0
C  C179  1  0.33360609  0.49148398  0.24442724  1  0.016465  0  -0.080473  -0.084725  0  3.986253  0
C  C180  1  0.35183648  0.64144072  0.50388152  1  1.537337  0  0.23417  0.636653  0  4.107256  0
C  C181  1  0.64407720  0.64287275  0.49525698  1  1.560902  0  0.234479  0.637491  0  4.102672  0
C  C182  1  0.05293150  0.87132664  0.50060023  1  0.118117  0  0.001506  0.090435  0  4.110943  0
C  C183  1  0.99719907  0.84117211  0.49848231  1  0.010918  0  -0.072032  -0.157685  0  3.899594  0
C  C184  1  0.94209875  0.87266830  0.49817862  1  0.03238  0  0.001682  0.091486  0  4.109107  0
C  C185  1  0.94211151  0.93722773  0.49995260  1  0.043175  0  0.0023  0.036026  0  3.974722  0
C  C186  1  0.99854423  0.96845393  0.50217604  1  -0.044209  0  0.004944  0.006126  0  3.931345  0
C  C187  1  0.05431829  0.93586889  0.50264349  1  -0.038696  0  0.002145  0.036402  0  3.974105  0
C  C188  1  0.10971317  0.96841236  0.50522782  1  0.044561  0  -0.085463  -0.114876  0  3.997078  0
C  C189  1  0.11035052  0.03033854  0.50688830  1  -0.067389  0  -0.085972  -0.116875  0  3.999611  0
C  C190  1  0.88754302  0.83970180  0.49616223  1  -0.001711  0  -0.040839  -0.095945  0  4.133603  0
C  C191  1  0.84137485  0.80939662  0.49465527  1  -0.381927  0  -0.040228  -0.107187  0  4.102275  0
C  C192  1  0.79135625  0.76974109  0.49363588  1  0.059741  0  0.004057  0.144429  0  4.115662  0
C  C193  1  0.73098315  0.79075225  0.49279428  1  -0.035951  0  -0.083373  -0.130582  0  3.949943  0
C  C194  1  0.68323731  0.74995497  0.49276175  1  -0.036801  0  -0.079174  -0.084954  0  3.986301  0
C  C195  1  0.69447453  0.68753542  0.49351750  1  -0.027899  0  -0.017675  -0.043888  0  3.96382  0
C  C196  1  0.75439522  0.66641752  0.49376961  1  0.004139  0  -0.079831  -0.083822  0  3.989164  0
C  C197  1  0.80223430  0.70673249  0.49381112  1  -0.011624  0  -0.08219  -0.126472  0  3.953345  0
C  C198  1  0.10684943  0.83715720  0.50077533  1  0.038746  0  -0.040055  -0.094613  0  4.135816  0
C  C199  1  0.15267905  0.80620821  0.50104044  1  -0.385079  0  -0.04101  -0.108762  0  4.103311  0
C  C200  1  0.30079934  0.68550942  0.50410814  1  -0.022554  0  -0.017094  -0.044033  0  3.966588  0
C  C201  1  0.31125207  0.74792524  0.50029091  1  -0.046656  0  -0.079683  -0.084529  0  3.989663  0
C  C202  1  0.26301586  0.78820347  0.49912364  1  -0.032019  0  -0.083181  -0.131701  0  3.950858  0
C  C203  1  0.20292590  0.76671506  0.50202131  1  0.055479  0  0.00398  0.146521  0  4.112714  0
C  C204  1  0.19282737  0.70373423  0.50607866  1  -0.048388  0  -0.082783  -0.128799  0  3.95445  0
C  C205  1  0.24116935  0.66388629  0.50700392  1  0.035869  0  -0.080143  -0.083922  0  3.989054  0
C  C206  1  0.64501020  0.35887064  0.50219765  1  1.523088  0  0.23416  0.636408  0  4.106162  0
C  C207  1  0.35394172  0.35801922  0.49875629  1  1.531536  0  0.234023  0.637245  0  4.104975  0
C  C208  1  0.94479740  0.13013587  0.50453919  1  0.101681  0  0.001487  0.090455  0  4.11156  0
C  C209  1  0.00050403  0.16031300  0.50660285  1  -0.017076  0  -0.072487  -0.159548  0  3.902388  0
C  C210  1  0.05560886  0.12881187  0.50719667  1  0.119463  0  0.001759  0.092712  0  4.108215  0
C  C211  1  0.05564805  0.06423671  0.50611595  1  -0.038321  0  0.002428  0.03667  0  3.974753  0
C  C212  1  0.99921968  0.03300817  0.50390525  1  0.045281  0  0.005046  0.006003  0  3.931026  0
C  C213  1  0.94345668  0.06558240  0.50312908  1  0.03509  0  0.001771  0.037029  0  3.97369  0
C  C214  1  0.88805860  0.03303494  0.50106625  1  -0.063262  0  -0.085504  -0.115813  0  3.997906  0
C  C215  1  0.88740089  0.97110607  0.49960369  1  -0.029949  0  -0.085294  -0.11473  0  3.99728  0
C  C216  1  0.11019500  0.16175968  0.50795093  1  -0.178474  0  -0.039964  -0.095607  0  4.13478  0
C  C217  1  0.15644528  0.19197554  0.50740591  1  -0.174687  0  -0.040829  -0.107327  0  4.103094  0
C  C218  1  0.20654474  0.23149825  0.50554910  1  0.10777  0  0.004175  0.144945  0  4.11548  0
C  C219  1  0.26689012  0.21051259  0.50785708  1  -0.025709  0  -0.083787  -0.133058  0  3.951554  0
C  C220  1  0.31471684  0.25114500  0.50532930  1  -0.037942  0  -0.079176  -0.082872  0  3.985394  0
C  C221  1  0.30355652  0.31341713  0.50060962  1  0.014273  0  -0.017842  -0.046244  0  3.966039  0
C  C222  1  0.24367351  0.33453208  0.49846813  1  -0.120319  0  -0.080087  -0.083256  0  3.987775  0
C  C223  1  0.19578977  0.29435528  0.50077910  1  -0.026707  0  -0.082517  -0.126802  0  3.953677  0
C  C224  1  0.89079511  0.16418181  0.50361262  1  -0.295347  0  -0.039893  -0.092933  0  4.133502  0
C  C225  1  0.84460356  0.19458741  0.50275521  1  -0.077954  0  -0.040928  -0.109707  0  4.104599  0
C  C226  1  0.69586434  0.31460912  0.50343431  1  -0.053525  0  -0.016133  -0.042019  0  3.964139  0
C  C227  1  0.68640110  0.25313094  0.49114484  1  -0.047768  0  -0.079253  -0.084663  0  3.985621  0
C  C228  1  0.73487366  0.21307486  0.49048687  1  0.04401  0  -0.083169  -0.1307  0  3.949515  0
C  C229  1  0.79403333  0.23370329  0.50298007  1  -0.010305  0  0.003604  0.144244  0  4.11608  0
C  C230  1  0.80299051  0.29562004  0.51600959  1  -0.007695  0  -0.082862  -0.127947  0  3.953418  0
C  C231  1  0.75456313  0.33537316  0.51583540  1  0.01366  0  -0.080393  -0.083846  0  3.987466  0
O  O232  1  0.54543951  0.54794716  0.45273392  1  -1.197021  0  -0.790553  -1.14773  0  2.124227  0
O  O233  1  0.56275389  0.56438883  0.56323895  1  -1.244798  0  -0.69469  -1.068265  0  2.359235  0
O  O234  1  0.49635971  0.40963965  0.33769449  1  -1.175334  0  -0.345077  -0.612335  0  2.246007  0
O  O235  1  0.50097817  0.59302743  0.33889361  1  -1.176951  0  -0.345045  -0.613367  0  2.252436  0
O  O236  1  0.49581924  0.33971387  0.41297481  1  -1.185459  0  -0.368648  -0.631891  0  2.312253  0
O  O237  1  0.49896682  0.66287336  0.41419883  1  -1.186853  0  -0.369329  -0.632137  0  2.312442  0
O  O238  1  0.49707758  0.59264301  0.66086297  1  -1.178197  0  -0.344546  -0.612294  0  2.251694  0
O  O239  1  0.50303481  0.40891153  0.66083645  1  -1.168199  0  -0.345208  -0.611246  0  2.252613  0
O  O240  1  0.49655608  0.66250416  0.58544603  1  -1.17956  0  -0.369798  -0.632478  0  2.312522  0
O  O241  1  0.50289711  0.33912307  0.58543046  1  -1.173924  0  -0.369127  -0.630993  0  2.312864  0
O  O242  1  0.43442319  0.56407231  0.43646121  1  -1.242417  0  -0.69493  -1.069169  0  2.358958  0
O  O243  1  0.66085492  0.49759070  0.59133702  1  -1.170686  0  -0.343775  -0.611011  0  2.245424  0
O  O244  1  0.66013581  0.50403048  0.40836371  1  -1.172965  0  -0.347071  -0.613028  0  2.256627  0
O  O245  1  0.58535691  0.49818408  0.66096235  1  -1.183558  0  -0.371003  -0.632074  0  2.32131  0
O  O246  1  0.58477082  0.50499588  0.33844720  1  -1.169104  0  -0.367867  -0.631755  0  2.311753  0
O  O247  1  0.33675225  0.49727347  0.40894392  1  -1.168141  0  -0.344332  -0.610758  0  2.245256  0
O  O248  1  0.33850655  0.50227895  0.59259242  1  -1.180146  0  -0.345065  -0.612781  0  2.256588  0
O  O249  1  0.41209592  0.49762027  0.33907382  1  -1.172254  0  -0.369934  -0.632607  0  2.314814  0
O  O250  1  0.41407241  0.50316501  0.66230806  1  -1.181455  0  -0.3688  -0.631097  0  2.306585  0
O  O251  1  0.56259081  0.43745525  0.43559192  1  -1.247929  0  -0.694465  -1.066994  0  2.359973  0
O  O252  1  0.40593067  0.66126116  0.50311249  1  -1.171936  0  -0.34523  -0.61188  0  2.250412  0
O  O253  1  0.58970226  0.66205913  0.49596716  1  -1.182693  0  -0.345634  -0.61301  0  2.252892  0
O  O254  1  0.33660666  0.58545675  0.50337850  1  -1.172476  0  -0.37007  -0.631742  0  2.314977  0
O  O255  1  0.66008251  0.58709613  0.49706089  1  -1.180235  0  -0.370153  -0.632622  0  2.311483  0
O  O256  1  0.59085138  0.33922704  0.50021942  1  -1.172289  0  -0.346626  -0.612578  0  2.250173  0
O  O257  1  0.40831848  0.33878183  0.49859341  1  -1.165642  0  -0.345986  -0.612873  0  2.252098  0
O  O258  1  0.66048116  0.41475239  0.50230502  1  -1.161582  0  -0.368179  -0.6307  0  2.311314  0
O  O259  1  0.33802170  0.41383129  0.49845273  1  -1.186904  0  -0.368989  -0.63148  0  2.313673  0
O  O260  1  0.43601797  0.43677168  0.56386041  1  -1.24853  0  -0.694414  -1.067019  0  2.362598  0
O  O261  1  0.45198169  0.45369867  0.45304296  1  -1.195576  0  -0.791293  -1.147769  0  2.127196  0
O  O262  1  0.45195531  0.54750098  0.54700922  1  -1.197763  0  -0.791348  -1.14751  0  2.1268  0
O  O263  1  0.54623683  0.45376999  0.54634173  1  -1.198826  0  -0.791377  -1.148572  0  2.12792  0
