# generated using pymatgen
data_CdH12C13(NO)2
_symmetry_space_group_name_H-M   'P 1'
_cell_length_a   10.51992511
_cell_length_b   17.86662194
_cell_length_c   17.86839504
_cell_angle_alpha   85.03001280
_cell_angle_beta   72.87900015
_cell_angle_gamma   72.88779303
_symmetry_Int_Tables_number   1
_chemical_formula_structural   CdH12C13(NO)2
_chemical_formula_sum   'Cd8 H96 C104 N16 O16'
_cell_volume   3067.54448219
_cell_formula_units_Z   8
loop_
 _symmetry_equiv_pos_site_id
 _symmetry_equiv_pos_as_xyz
  1  'x, y, z'
loop_
 _atom_site_type_symbol
 _atom_site_label
 _atom_site_symmetry_multiplicity
 _atom_site_fract_x
 _atom_site_fract_y
 _atom_site_fract_z
 _atom_site_occupancy
 _atom_site_pbe_bader_charge
 _atom_site_pbe_bader_spin_density
 _atom_site_pbe_cm5_charge
 _atom_site_pbe_ddec_charge
 _atom_site_pbe_ddec_spin_density
 _atom_site_pbe_ddec_sum_bond_order
 _atom_site_pbe_magmom
Cd  Cd0  1  0.47723256  0.79541413  0.32761969  1  1.237498  0  0.801461  0.857451  0  2.30065  0
Cd  Cd1  1  0.80490283  0.67234789  0.29538592  1  1.23939  0  0.801504  0.855943  0  2.302307  0
Cd  Cd2  1  0.10030142  0.70454920  0.17236415  1  1.238874  0  0.802069  0.858001  0  2.299557  0
Cd  Cd3  1  0.27260568  0.82766204  0.20460282  1  1.237907  0  0.801544  0.857531  0  2.300396  0
Cd  Cd4  1  0.52276831  0.20458568  0.67238039  1  1.237538  0  0.801456  0.857453  0  2.300651  0
Cd  Cd5  1  0.19509775  0.32765250  0.70461415  1  1.23939  0  0.801486  0.855919  0  2.302295  0
Cd  Cd6  1  0.89969945  0.29545061  0.82763593  1  1.238982  0  0.802069  0.857999  0  2.299584  0
Cd  Cd7  1  0.72739464  0.17233836  0.79539653  1  1.238006  0  0.801533  0.857503  0  2.3004  0
H  H8  1  0.95616262  0.88195831  0.10216148  1  0.085911  0  0.100629  0.101632  0  1.044763  0
H  H9  1  0.05819703  0.89781697  0.38200545  1  0.115826  0  0.10104  0.102121  0  1.044009  0
H  H10  1  0.44018116  0.61802631  0.39786091  1  0.1092  0  0.100623  0.101325  0  1.045409  0
H  H11  1  0.83828173  0.60214039  0.11800538  1  0.106875  0  0.100296  0.101029  0  1.046055  0
H  H12  1  0.04383993  0.11804091  0.89783822  1  0.085935  0  0.100639  0.101664  0  1.044773  0
H  H13  1  0.94180188  0.10218401  0.61799502  1  0.115835  0  0.101036  0.102113  0  1.043973  0
H  H14  1  0.55981833  0.38197350  0.60213955  1  0.1092  0  0.100611  0.101323  0  1.045397  0
H  H15  1  0.16171776  0.39785942  0.88199509  1  0.106877  0  0.100286  0.101037  0  1.046088  0
H  H16  1  0.93033768  0.02173158  0.06328434  1  0.051384  0  0.098303  0.099325  0  1.01578  0
H  H17  1  0.99360316  0.93662297  0.52176075  1  0.05402  0  0.098085  0.099121  0  1.017393  0
H  H18  1  0.51530518  0.47827062  0.43673145  1  0.05315  0  0.098402  0.099371  0  1.017246  0
H  H19  1  0.95219926  0.56332014  0.97822081  1  0.054827  0  0.097945  0.098697  0  1.017135  0
H  H20  1  0.06966323  0.97826764  0.93671501  1  0.051442  0  0.098291  0.099304  0  1.015827  0
H  H21  1  0.00639574  0.06337800  0.47823971  1  0.054049  0  0.098078  0.099128  0  1.017362  0
H  H22  1  0.48469431  0.52172919  0.56326901  1  0.053199  0  0.098397  0.099362  0  1.017252  0
H  H23  1  0.04780161  0.43667967  0.02177927  1  0.054864  0  0.097926  0.098677  0  1.017192  0
H  H24  1  0.53495221  0.08817771  0.23802041  1  0.066136  0  0.093318  0.090151  0  1.019727  0
H  H25  1  0.77294480  0.76185525  0.58819930  1  0.044641  0  0.093618  0.090389  0  1.019525  0
H  H26  1  0.36121969  0.41176950  0.26194468  1  0.033295  0  0.093962  0.090502  0  1.020179  0
H  H27  1  0.62317440  0.73806741  0.91185442  1  0.034018  0  0.093761  0.090917  0  1.019391  0
H  H28  1  0.46504922  0.91182210  0.76197910  1  0.066136  0  0.093338  0.090204  0  1.019698  0
H  H29  1  0.22705496  0.23814514  0.41180060  1  0.044634  0  0.093625  0.090409  0  1.019529  0
H  H30  1  0.63878037  0.58823031  0.73805522  1  0.033305  0  0.093969  0.090516  0  1.020171  0
H  H31  1  0.37682565  0.26193239  0.08814549  1  0.034018  0  0.093748  0.090907  0  1.019402  0
H  H32  1  0.56447984  0.94964214  0.27893622  1  0.089417  0  0.097982  0.095018  0  1.062123  0
H  H33  1  0.84336301  0.72099581  0.44961988  1  0.091071  0  0.097758  0.094253  0  1.063467  0
H  H34  1  0.29313924  0.55029801  0.22103851  1  0.104095  0  0.097148  0.092495  0  1.063085  0
H  H35  1  0.51417812  0.77887908  0.05041615  1  0.107245  0  0.097809  0.094463  0  1.062391  0
H  H36  1  0.43552159  0.05035767  0.72106330  1  0.089401  0  0.098018  0.095061  0  1.06208  0
H  H37  1  0.15663649  0.27900458  0.55037929  1  0.091063  0  0.097749  0.094246  0  1.063471  0
H  H38  1  0.70685995  0.44970239  0.77896196  1  0.104099  0  0.097171  0.092516  0  1.063048  0
H  H39  1  0.48582302  0.22112132  0.94958337  1  0.10724  0  0.097803  0.094464  0  1.062396  0
H  H40  1  0.60735928  0.18346752  0.15656187  1  0.02717  0  0.09051  0.083643  0  0.989243  0
H  H41  1  0.76379260  0.84338757  0.68349552  1  0.013477  0  0.090577  0.08404  0  0.988794  0
H  H42  1  0.44730241  0.31647256  0.34347698  1  0.01561  0  0.090768  0.083856  0  0.988008  0
H  H43  1  0.79084757  0.65658184  0.81652151  1  0.006535  0  0.091213  0.084929  0  0.988216  0
H  H44  1  0.39264107  0.81653170  0.84343803  1  0.027158  0  0.090516  0.083636  0  0.989302  0
H  H45  1  0.23620798  0.15661282  0.31650455  1  0.013466  0  0.090563  0.084031  0  0.98878  0
H  H46  1  0.55269764  0.68352725  0.65652293  1  0.015612  0  0.09076  0.083851  0  0.988011  0
H  H47  1  0.20915359  0.34341738  0.18347856  1  0.006511  0  0.091219  0.084939  0  0.988142  0
H  H48  1  0.78167234  0.17210837  0.15044106  1  0.026514  0  0.097698  0.098565  0  0.975976  0
H  H49  1  0.93196882  0.84955105  0.67212875  1  0.030916  0  0.098121  0.099268  0  0.975599  0
H  H50  1  0.60411441  0.32785564  0.34961444  1  0.006896  0  0.097753  0.098565  0  0.975648  0
H  H51  1  0.95382588  0.65047860  0.82783568  1  0.030217  0  0.098693  0.100494  0  0.975712  0
H  H52  1  0.21832801  0.82789085  0.84955884  1  0.026571  0  0.097694  0.098551  0  0.975975  0
H  H53  1  0.06803205  0.15044876  0.32787133  1  0.030932  0  0.098127  0.099274  0  0.975615  0
H  H54  1  0.39588397  0.67214476  0.65038585  1  0.006885  0  0.097774  0.098596  0  0.975598  0
H  H55  1  0.04617472  0.34952062  0.17216496  1  0.030163  0  0.098696  0.100496  0  0.975752  0
H  H56  1  0.70358989  0.01606911  0.99500300  1  0.060383  0  0.093785  0.133945  0  1.001722  0
H  H57  1  0.69864089  0.00499673  0.51598884  1  0.056075  0  0.093442  0.133881  0  1.001901  0
H  H58  1  0.21467760  0.48395198  0.50501713  1  0.053986  0  0.093919  0.134448  0  1.000856  0
H  H59  1  0.71963055  0.49501065  0.98395264  1  0.053113  0  0.093714  0.13426  0  1.001316  0
H  H60  1  0.29641016  0.98393070  0.00499690  1  0.06038  0  0.09379  0.133952  0  1.001722  0
H  H61  1  0.30135973  0.99500308  0.48401050  1  0.056094  0  0.093453  0.133909  0  1.00187  0
H  H62  1  0.78532298  0.51604841  0.49498295  1  0.053935  0  0.093925  0.134443  0  1.000865  0
H  H63  1  0.28036812  0.50498916  0.01604765  1  0.053147  0  0.093706  0.134237  0  1.001351  0
H  H64  1  0.60594113  0.07459330  0.93366352  1  0.053384  0  0.095539  0.133235  0  1.002771  0
H  H65  1  0.53966413  0.06633122  0.57452213  1  0.033778  0  0.095545  0.132764  0  1.002233  0
H  H66  1  0.11418267  0.42543700  0.56635409  1  0.033023  0  0.094997  0.132486  0  1.002561  0
H  H67  1  0.68053058  0.43365317  0.92541673  1  0.053542  0  0.0959  0.133448  0  1.002401  0
H  H68  1  0.39405781  0.92540709  0.06633621  1  0.053399  0  0.095539  0.133215  0  1.0028  0
H  H69  1  0.46033645  0.93366918  0.42547794  1  0.033779  0  0.095549  0.132778  0  1.002213  0
H  H70  1  0.88581906  0.57456222  0.43364543  1  0.033053  0  0.094993  0.132487  0  1.002537  0
H  H71  1  0.31946947  0.56634664  0.07458317  1  0.053542  0  0.095916  0.133459  0  1.00245  0
H  H72  1  0.54346138  0.08510839  0.03708989  1  0.036182  0  0.095393  0.138127  0  0.984688  0
H  H73  1  0.58058031  0.96292194  0.58503296  1  0.049355  0  0.095467  0.138405  0  0.984222  0
H  H74  1  0.16570053  0.41489077  0.46294070  1  0.041797  0  0.096084  0.139018  0  0.982843  0
H  H75  1  0.62855492  0.53708020  0.91490686  1  0.043515  0  0.095719  0.13837  0  0.984678  0
H  H76  1  0.45653838  0.91489200  0.96291001  1  0.036186  0  0.095394  0.138125  0  0.984688  0
H  H77  1  0.41942383  0.03707963  0.41496596  1  0.049296  0  0.095487  0.138435  0  0.984248  0
H  H78  1  0.83429952  0.58510904  0.53705921  1  0.041789  0  0.096088  0.139021  0  0.982839  0
H  H79  1  0.37144655  0.46291902  0.08509193  1  0.043491  0  0.095709  0.13836  0  0.984684  0
H  H80  1  0.79693335  0.32486318  0.06396640  1  0.02034  0  0.091535  0.128801  0  0.989271  0
H  H81  1  0.86087401  0.93601127  0.82482305  1  0.039377  0  0.092362  0.129579  0  0.989745  0
H  H82  1  0.68562617  0.17517487  0.43605353  1  0.039706  0  0.092067  0.128689  0  0.990467  0
H  H83  1  0.12185074  0.56395999  0.67516927  1  0.03025  0  0.091852  0.129405  0  0.989445  0
H  H84  1  0.20306670  0.67513663  0.93603351  1  0.020342  0  0.091536  0.128797  0  0.989269  0
H  H85  1  0.13913219  0.06398678  0.17517458  1  0.03933  0  0.092353  0.129531  0  0.989788  0
H  H86  1  0.31437444  0.82482494  0.56394582  1  0.039741  0  0.092075  0.128699  0  0.990457  0
H  H87  1  0.87814774  0.43604392  0.32483413  1  0.030278  0  0.091837  0.129342  0  0.989474  0
H  H88  1  0.94800531  0.29657527  0.98328759  1  0.062508  0  0.095709  0.137701  0  1.015038  0
H  H89  1  0.93123506  0.01670761  0.79647863  1  0.057617  0  0.095907  0.137567  0  1.015506  0
H  H90  1  0.72773149  0.20347044  0.51672503  1  0.053338  0  0.094897  0.136081  0  1.014876  0
H  H91  1  0.24458648  0.48328623  0.70348954  1  0.060579  0  0.095557  0.137452  0  1.016265  0
H  H92  1  0.05199363  0.70342513  0.01671214  1  0.062214  0  0.095704  0.137682  0  1.015067  0
H  H93  1  0.06876187  0.98329396  0.20352352  1  0.057594  0  0.0959  0.137521  0  1.015543  0
H  H94  1  0.27226856  0.79652937  0.48327488  1  0.05334  0  0.094895  0.13608  0  1.014871  0
H  H95  1  0.75541256  0.51671241  0.29650799  1  0.060596  0  0.095561  0.137411  0  1.01629  0
H  H96  1  0.93608091  0.24201887  0.07114745  1  0.053585  0  0.093195  0.130185  0  0.994193  0
H  H97  1  0.00718488  0.92884056  0.74195595  1  0.074981  0  0.093709  0.130615  0  0.994804  0
H  H98  1  0.74906038  0.25803890  0.42889045  1  0.027013  0  0.093403  0.129281  0  0.994377  0
H  H99  1  0.17814734  0.57114739  0.75801687  1  0.020327  0  0.093357  0.130449  0  0.994603  0
H  H100  1  0.06391832  0.75798094  0.92885228  1  0.053562  0  0.09319  0.130174  0  0.99418  0
H  H101  1  0.99282112  0.07116335  0.25804293  1  0.074981  0  0.093689  0.130605  0  0.994844  0
H  H102  1  0.25093968  0.74196091  0.57110946  1  0.027011  0  0.093404  0.129276  0  0.994384  0
H  H103  1  0.82185854  0.42884949  0.24198464  1  0.020254  0  0.093345  0.130418  0  0.994538  0
C  C104  1  0.77989591  0.82421713  0.22026527  1  1.545149  0  0.205678  0.596823  0  4.148908  0
C  C105  1  0.00008046  0.77970383  0.32422032  1  1.540784  0  0.206638  0.598609  0  4.144914  0
C  C106  1  0.32429236  0.67578128  0.27975112  1  1.511185  0  0.206161  0.596348  0  4.14573  0
C  C107  1  0.60415024  0.72016540  0.17581043  1  1.5098  0  0.207463  0.599784  0  4.145272  0
C  C108  1  0.22010526  0.17578209  0.77973481  1  1.544825  0  0.205684  0.596843  0  4.148744  0
C  C109  1  0.99991980  0.22029832  0.67577920  1  1.540812  0  0.206683  0.598797  0  4.144829  0
C  C110  1  0.67570766  0.32421911  0.72024952  1  1.511239  0  0.206216  0.596396  0  4.145651  0
C  C111  1  0.39585063  0.27983441  0.82418964  1  1.509803  0  0.207453  0.599736  0  4.145288  0
C  C112  1  0.76234883  0.90689978  0.19370180  1  -0.018404  0  -0.021654  -0.039271  0  3.967937  0
C  C113  1  0.95588903  0.80629032  0.40691560  1  -0.034166  0  -0.021651  -0.040226  0  3.966157  0
C  C114  1  0.36292181  0.59307804  0.30630475  1  0.060152  0  -0.022271  -0.040863  0  3.966088  0
C  C115  1  0.66936620  0.69363747  0.09311014  1  0.029474  0  -0.022214  -0.040143  0  3.966581  0
C  C116  1  0.23765428  0.09309944  0.80629733  1  -0.018395  0  -0.021616  -0.039118  0  3.967791  0
C  C117  1  0.04411044  0.19371066  0.59308430  1  -0.034173  0  -0.021656  -0.040235  0  3.96616  0
C  C118  1  0.63707768  0.40692177  0.69369571  1  0.060087  0  -0.022253  -0.040789  0  3.966025  0
C  C119  1  0.33063438  0.30636292  0.90688994  1  0.029472  0  -0.022193  -0.040094  0  3.966603  0
C  C120  1  0.86450642  0.92753777  0.13198010  1  -0.011444  0  -0.081533  -0.074808  0  3.955138  0
C  C121  1  0.99638870  0.86796514  0.42757466  1  -0.043461  0  -0.081905  -0.074421  0  3.955515  0
C  C122  1  0.42398101  0.57243491  0.36802271  1  -0.146518  0  -0.080618  -0.073717  0  3.953787  0
C  C123  1  0.79222853  0.63198329  0.07241974  1  0.013272  0  -0.082253  -0.076294  0  3.956417  0
C  C124  1  0.13549501  0.07246204  0.86801942  1  -0.011415  0  -0.081533  -0.074875  0  3.955066  0
C  C125  1  0.00361077  0.13203584  0.57242524  1  -0.043427  0  -0.081886  -0.074408  0  3.955459  0
C  C126  1  0.57601848  0.42756490  0.63197776  1  -0.146507  0  -0.080604  -0.073737  0  3.953729  0
C  C127  1  0.20777152  0.36801652  0.92758017  1  0.013277  0  -0.082253  -0.076316  0  3.956508  0
C  C128  1  0.84967778  0.00577429  0.11055227  1  -0.077094  0  -0.095295  -0.151349  0  3.982206  0
C  C129  1  0.96022544  0.88934314  0.50582101  1  -0.052994  0  -0.09594  -0.152728  0  3.984175  0
C  C130  1  0.46601513  0.49419083  0.38945272  1  -0.037964  0  -0.095315  -0.150363  0  3.980337  0
C  C131  1  0.85561711  0.61058690  0.99418138  1  -0.099288  0  -0.095545  -0.150386  0  3.981179  0
C  C132  1  0.15032310  0.99422552  0.88944781  1  -0.077161  0  -0.095326  -0.151362  0  3.982188  0
C  C133  1  0.03977403  0.11065784  0.49417889  1  -0.053012  0  -0.095914  -0.152702  0  3.984093  0
C  C134  1  0.53398436  0.50580898  0.61054774  1  -0.03818  0  -0.095318  -0.150363  0  3.980335  0
C  C135  1  0.14438238  0.38941291  0.00581908  1  -0.099283  0  -0.095547  -0.15039  0  3.98117  0
C  C136  1  0.73160414  0.06476320  0.14854684  1  -0.039582  0  -0.004577  0.13122  0  3.959855  0
C  C137  1  0.88008102  0.85135829  0.56478705  1  -0.014837  0  -0.004581  0.130957  0  3.960109  0
C  C138  1  0.44490394  0.43519129  0.35146410  1  0.039459  0  -0.004905  0.129474  0  3.958681  0
C  C139  1  0.79645630  0.64859860  0.93520658  1  0.021493  0  -0.004131  0.130593  0  3.959545  0
C  C140  1  0.26839595  0.93523602  0.85145233  1  -0.039319  0  -0.004597  0.131175  0  3.959871  0
C  C141  1  0.11991956  0.14864210  0.43521303  1  -0.014822  0  -0.004588  0.130932  0  3.960115  0
C  C142  1  0.55509720  0.56480910  0.64853542  1  0.039683  0  -0.004912  0.129482  0  3.958664  0
C  C143  1  0.20354429  0.35140179  0.06479350  1  0.021105  0  -0.004103  0.130635  0  3.959446  0
C  C144  1  0.62884192  0.04327480  0.20874631  1  -0.040359  0  -0.100043  -0.159115  0  4.01029  0
C  C145  1  0.83754422  0.79114688  0.54329794  1  -0.063045  0  -0.10111  -0.160167  0  4.010691  0
C  C146  1  0.38090909  0.45667001  0.29124293  1  -0.061765  0  -0.10149  -0.161272  0  4.010169  0
C  C147  1  0.67222420  0.70878452  0.95673626  1  -0.084114  0  -0.100768  -0.160725  0  4.009655  0
C  C148  1  0.37115895  0.95672501  0.79125377  1  -0.040607  0  -0.100023  -0.159107  0  4.010391  0
C  C149  1  0.16245554  0.20885352  0.45670196  1  -0.063053  0  -0.101127  -0.160195  0  4.010708  0
C  C150  1  0.61909015  0.54332979  0.70875680  1  -0.061682  0  -0.101497  -0.161287  0  4.010161  0
C  C151  1  0.32777694  0.29121587  0.04326326  1  -0.083727  0  -0.100761  -0.160741  0  4.009646  0
C  C152  1  0.64462263  0.96551918  0.23184064  1  -0.050254  0  -0.085889  -0.075046  0  3.972292  0
C  C153  1  0.87636278  0.76809525  0.46552029  1  -0.029468  0  -0.08463  -0.072459  0  3.970952  0
C  C154  1  0.34203041  0.53443634  0.26814211  1  -0.067348  0  -0.084756  -0.070219  0  3.971181  0
C  C155  1  0.61023116  0.73182488  0.03451192  1  -0.07338  0  -0.084487  -0.071723  0  3.971904  0
C  C156  1  0.35538018  0.03448005  0.76815979  1  -0.050295  0  -0.085958  -0.075191  0  3.972469  0
C  C157  1  0.12363780  0.23190514  0.53447979  1  -0.029486  0  -0.084628  -0.072469  0  3.970916  0
C  C158  1  0.65796965  0.46556347  0.73185779  1  -0.067427  0  -0.0848  -0.070279  0  3.971201  0
C  C159  1  0.38976889  0.26817493  0.96548798  1  -0.07338  0  -0.084495  -0.071748  0  3.971928  0
C  C160  1  0.71441060  0.14990917  0.12625300  1  0.02158  0  -0.149099  -0.191258  0  4.021606  0
C  C161  1  0.84053337  0.87369496  0.64991846  1  0.016103  0  -0.149114  -0.191912  0  4.022014  0
C  C162  1  0.49046830  0.35005439  0.37378129  1  0.046276  0  -0.148927  -0.189619  0  4.019614  0
C  C163  1  0.86436535  0.62629501  0.85006720  1  0.013891  0  -0.150474  -0.19395  0  4.023082  0
C  C164  1  0.28559001  0.85009064  0.87374634  1  0.021581  0  -0.149078  -0.191222  0  4.021652  0
C  C165  1  0.15946722  0.12630544  0.35008162  1  0.016121  0  -0.149113  -0.191902  0  4.022  0
C  C166  1  0.50953146  0.64994601  0.62621861  1  0.046261  0  -0.14893  -0.189661  0  4.01958  0
C  C167  1  0.13563525  0.37370421  0.14993344  1  0.013958  0  -0.150489  -0.193974  0  4.023011  0
C  C168  1  0.74650169  0.16711300  0.04018843  1  -0.004688  0  -0.047211  -0.130053  0  3.992022  0
C  C169  1  0.78658684  0.95977040  0.66708766  1  -0.037644  0  -0.048979  -0.131443  0  3.99387  0
C  C170  1  0.45368072  0.33288663  0.45985519  1  -0.022161  0  -0.049009  -0.134283  0  3.994882  0
C  C171  1  0.91362552  0.54022284  0.83290465  1  0.003047  0  -0.049023  -0.131804  0  3.995194  0
C  C172  1  0.25349892  0.83288681  0.95981091  1  -0.004777  0  -0.047182  -0.129977  0  3.99199  0
C  C173  1  0.21341513  0.04022999  0.33291204  1  -0.037684  0  -0.049027  -0.131533  0  3.993927  0
C  C174  1  0.54631963  0.66711259  0.54014471  1  -0.022162  0  -0.048998  -0.13425  0  3.994864  0
C  C175  1  0.08637615  0.45977756  0.16709634  1  0.003057  0  -0.049075  -0.131876  0  3.995268  0
C  C176  1  0.71010981  0.13613487  0.98209577  1  0.438957  0  0.080484  0.190156  0  4.035335  0
C  C177  1  0.69222888  0.01788524  0.63606287  1  0.438203  0  0.081487  0.19132  0  4.035825  0
C  C178  1  0.32828794  0.36389177  0.51796450  1  0.434048  0  0.081396  0.19328  0  4.033124  0
C  C179  1  0.84621268  0.48213179  0.86389981  1  0.431164  0  0.081318  0.191629  0  4.033253  0
C  C180  1  0.28988913  0.86386552  0.01790396  1  0.438957  0  0.080443  0.190102  0  4.035366  0
C  C181  1  0.30777282  0.98211516  0.36393609  1  0.437877  0  0.081444  0.191261  0  4.035991  0
C  C182  1  0.67171293  0.63610804  0.48203558  1  0.434047  0  0.081387  0.193269  0  4.033206  0
C  C183  1  0.15378764  0.51786802  0.13610082  1  0.43116  0  0.081314  0.191626  0  4.033237  0
C  C184  1  0.63728216  0.07484250  0.98712528  1  -0.069045  0  -0.23508  -0.420863  0  3.983097  0
C  C185  1  0.62447813  0.01287626  0.57476506  1  -0.060619  0  -0.235196  -0.421125  0  3.983696  0
C  C186  1  0.19927240  0.42516915  0.51291166  1  -0.05197  0  -0.234524  -0.421221  0  3.980269  0
C  C187  1  0.71211193  0.48712577  0.92517661  1  -0.070203  0  -0.234688  -0.420765  0  3.981783  0
C  C188  1  0.36271678  0.92515789  0.01287445  1  -0.069056  0  -0.235069  -0.420831  0  3.983134  0
C  C189  1  0.37552354  0.98712471  0.42523463  1  -0.060272  0  -0.235214  -0.42118  0  3.983714  0
C  C190  1  0.80072904  0.57483066  0.48708786  1  -0.051963  0  -0.234517  -0.421205  0  3.980279  0
C  C191  1  0.28788894  0.51287404  0.07482347  1  -0.070218  0  -0.234684  -0.420731  0  3.981836  0
C  C192  1  0.81373535  0.22274535  0.00108348  1  0.412452  0  0.078313  0.187487  0  4.047289  0
C  C193  1  0.81471910  0.99886813  0.72271613  1  0.460057  0  0.080407  0.189544  0  4.047903  0
C  C194  1  0.53738300  0.27725613  0.49895138  1  0.44736  0  0.0797  0.189473  0  4.048541  0
C  C195  1  0.03645035  0.50110695  0.77727465  1  0.421303  0  0.079359  0.18741  0  4.049312  0
C  C196  1  0.18626609  0.77725446  0.99891604  1  0.412463  0  0.078342  0.187477  0  4.047196  0
C  C197  1  0.18528205  0.00113226  0.27728339  1  0.460058  0  0.080444  0.189622  0  4.04788  0
C  C198  1  0.46261705  0.72274368  0.50104852  1  0.447377  0  0.079682  0.189431  0  4.048538  0
C  C199  1  0.96355079  0.49889286  0.22272616  1  0.42145  0  0.079392  0.18742  0  4.049267  0
C  C200  1  0.87622601  0.27423011  0.03148244  1  -0.065151  0  -0.23282  -0.416292  0  3.98513  0
C  C201  1  0.90764303  0.96848894  0.77416561  1  -0.107089  0  -0.234468  -0.41767  0  3.988907  0
C  C202  1  0.68175225  0.22581414  0.46855275  1  -0.053786  0  -0.233079  -0.413827  0  3.986317  0
C  C203  1  0.15047397  0.53148324  0.72581547  1  -0.041432  0  -0.233431  -0.417048  0  3.986915  0
C  C204  1  0.12377266  0.72576970  0.96851785  1  -0.064843  0  -0.232814  -0.416248  0  3.985099  0
C  C205  1  0.09236002  0.03151204  0.22583369  1  -0.107004  0  -0.234433  -0.417582  0  3.98905  0
C  C206  1  0.31824780  0.77418567  0.53144716  1  -0.053816  0  -0.233079  -0.413814  0  3.986316  0
C  C207  1  0.84952717  0.46851657  0.27418534  1  -0.041535  0  -0.233415  -0.416895  0  3.986817  0
N  N208  1  0.81547105  0.22493557  0.92507529  1  -0.768944  0  -0.294129  -0.262085  0  3.587817  0
N  N209  1  0.74051349  0.07488952  0.72489830  1  -0.772869  0  -0.294489  -0.262628  0  3.587521  0
N  N210  1  0.46538071  0.27508120  0.57496686  1  -0.771821  0  -0.294722  -0.263137  0  3.58601  0
N  N211  1  0.04034948  0.42509938  0.77509723  1  -0.769014  0  -0.294051  -0.260396  0  3.585319  0
N  N212  1  0.18452871  0.77506483  0.07492462  1  -0.768845  0  -0.294161  -0.262144  0  3.587752  0
N  N213  1  0.25948848  0.92511088  0.27510139  1  -0.772748  0  -0.294473  -0.262627  0  3.587505  0
N  N214  1  0.53461934  0.72491861  0.42503304  1  -0.771824  0  -0.294731  -0.263158  0  3.586038  0
N  N215  1  0.95965110  0.57490102  0.22490285  1  -0.76901  0  -0.29405  -0.260369  0  3.585232  0
N  N216  1  0.75305678  0.17194606  0.91332440  1  -0.779892  0  -0.290513  -0.271791  0  3.571272  0
N  N217  1  0.66642912  0.08666141  0.67187738  1  -0.78067  0  -0.290653  -0.271823  0  3.57012  0
N  N218  1  0.33827951  0.32809206  0.58673426  1  -0.780215  0  -0.290846  -0.2719  0  3.567879  0
N  N219  1  0.92495607  0.41336125  0.82808551  1  -0.785945  0  -0.290855  -0.272633  0  3.569922  0
N  N220  1  0.24694298  0.82805433  0.08667550  1  -0.779892  0  -0.290514  -0.271785  0  3.571224  0
N  N221  1  0.33357146  0.91333899  0.32812270  1  -0.780675  0  -0.290627  -0.271764  0  3.570128  0
N  N222  1  0.66172054  0.67190774  0.41326565  1  -0.780211  0  -0.290856  -0.271899  0  3.567929  0
N  N223  1  0.07504451  0.58663915  0.17191457  1  -0.785955  0  -0.290828  -0.272605  0  3.569799  0
O  O224  1  0.70781083  0.81090723  0.28963574  1  -1.173852  0  -0.340214  -0.57462  0  2.312568  0
O  O225  1  0.99742562  0.71031826  0.31092694  1  -1.169709  0  -0.339966  -0.574481  0  2.311754  0
O  O226  1  0.30825414  0.68910133  0.21039109  1  -1.169202  0  -0.339753  -0.574255  0  2.312026  0
O  O227  1  0.51870243  0.78952432  0.18913631  1  -1.172032  0  -0.340889  -0.576428  0  2.31252  0
O  O228  1  0.29219090  0.18909200  0.71036378  1  -1.173599  0  -0.340217  -0.57463  0  2.312485  0
O  O229  1  0.00257631  0.28968272  0.68907349  1  -1.169776  0  -0.339965  -0.574536  0  2.311773  0
O  O230  1  0.69174588  0.31089907  0.78960954  1  -1.169172  0  -0.339762  -0.574244  0  2.312002  0
O  O231  1  0.48129762  0.21047549  0.81086359  1  -1.172042  0  -0.340869  -0.576373  0  2.312519  0
O  O232  1  0.86568559  0.76859624  0.17590388  1  -1.19102  0  -0.33201  -0.567064  0  2.288472  0
O  O233  1  0.04157595  0.82404686  0.26859036  1  -1.189696  0  -0.332918  -0.568732  0  2.287754  0
O  O234  1  0.31011390  0.73140290  0.32411798  1  -1.18367  0  -0.332867  -0.56727  0  2.286942  0
O  O235  1  0.63432427  0.67581901  0.23142454  1  -1.187488  0  -0.332474  -0.567692  0  2.288238  0
O  O236  1  0.13431476  0.23140299  0.82409603  1  -1.190981  0  -0.332013  -0.567095  0  2.288471  0
O  O237  1  0.95842404  0.17595471  0.73140972  1  -1.189688  0  -0.332964  -0.568841  0  2.287697  0
O  O238  1  0.68988808  0.26859574  0.67588356  1  -1.183705  0  -0.332907  -0.567335  0  2.286964  0
O  O239  1  0.36567578  0.32418080  0.76857537  1  -1.18748  0  -0.332476  -0.567683  0  2.288206  0
