# generated using pymatgen
data_CdH18C18(NO)4
_symmetry_space_group_name_H-M   'P 1'
_cell_length_a   7.01007113
_cell_length_b   9.67925179
_cell_length_c   13.35356861
_cell_angle_alpha   88.39209693
_cell_angle_beta   84.09152501
_cell_angle_gamma   86.17676272
_symmetry_Int_Tables_number   1
_chemical_formula_structural   CdH18C18(NO)4
_chemical_formula_sum   'Cd2 H36 C36 N8 O8'
_cell_volume   899.04535273
_cell_formula_units_Z   2
loop_
 _symmetry_equiv_pos_site_id
 _symmetry_equiv_pos_as_xyz
  1  'x, y, z'
loop_
 _atom_site_type_symbol
 _atom_site_label
 _atom_site_symmetry_multiplicity
 _atom_site_fract_x
 _atom_site_fract_y
 _atom_site_fract_z
 _atom_site_occupancy
 _atom_site_hle17_bader_spin_density
 _atom_site_hle17_ddec_charge
 _atom_site_hle17_ddec_spin_density
 _atom_site_hle17_ddec_sum_bond_order
 _atom_site_hle17_magmom
 _atom_site_hse06_10hf_bader_spin_density
 _atom_site_hse06_10hf_ddec_charge
 _atom_site_hse06_10hf_ddec_spin_density
 _atom_site_hse06_10hf_ddec_sum_bond_order
 _atom_site_hse06_10hf_magmom
 _atom_site_hse06_bader_spin_density
 _atom_site_hse06_ddec_charge
 _atom_site_hse06_ddec_spin_density
 _atom_site_hse06_ddec_sum_bond_order
 _atom_site_hse06_magmom
 _atom_site_pbe_bader_spin_density
 _atom_site_pbe_cm5_charge
 _atom_site_pbe_ddec_charge
 _atom_site_pbe_ddec_spin_density
 _atom_site_pbe_ddec_sum_bond_order
 _atom_site_pbe_magmom
Cd  Cd0  1  0.35219933  0.74455276  0.26162694  1  0  1.067763  0  1.707459  0  0  0.873932  0  2.150651  0  0  0.932962  0  2.100064  0  0  0.760773  0.833124  0  2.184395  0
Cd  Cd1  1  0.64779584  0.25544597  0.73837206  1  0  1.067747  0  1.707537  0  0  0.873897  0  2.150748  0  0  0.93293  0  2.100161  0  0  0.760751  0.833089  0  2.184489  0
H  H2  1  0.70843881  0.88401660  0.89506848  1  0  0.132699  0  0.964223  0  0  0.140504  0  1.027917  0  0  0.14387  0  1.025667  0  0  0.125087  0.138032  0  1.029698  0
H  H3  1  0.29155826  0.11599155  0.10493386  1  0  0.132762  0  0.964118  0  0  0.140536  0  1.027822  0  0  0.143908  0  1.025571  0  0  0.125091  0.138064  0  1.029604  0
H  H4  1  0.66429163  0.63737914  0.61594967  1  0  0.129098  0  0.975354  0  0  0.137046  0  1.039877  0  0  0.140133  0  1.038034  0  0  0.123197  0.134791  0  1.041303  0
H  H5  1  0.33570354  0.36261959  0.38404933  1  0  0.129111  0  0.975358  0  0  0.137074  0  1.039855  0  0  0.140164  0  1.03801  0  0  0.123206  0.134819  0  1.041281  0
H  H6  1  0.39775232  0.77028067  0.01182610  1  0  0.104124  0  0.982694  0  0  0.111371  0  1.049162  0  0  0.113843  0  1.048266  0  0  0.11369  0.109583  0  1.049946  0
H  H7  1  0.60224984  0.22972012  0.98817176  1  0  0.104109  0  0.9825  0  0  0.111304  0  1.049076  0  0  0.113779  0  1.048175  0  0  0.113667  0.109515  0  1.049859  0
H  H8  1  0.86302836  0.39673145  0.55241344  1  0  0.098427  0  0.943837  0  0  0.109872  0  1.011752  0  0  0.111287  0  1.010386  0  0  0.113162  0.108799  0  1.012764  0
H  H9  1  0.13697220  0.60327046  0.44758745  1  0  0.098422  0  0.943825  0  0  0.109864  0  1.011766  0  0  0.111276  0  1.010405  0  0  0.11315  0.108789  0  1.01278  0
H  H10  1  0.94670287  0.39957324  0.42154262  1  0  0.086026  0  0.939036  0  0  0.099594  0  1.005077  0  0  0.099988  0  1.00577  0  0  0.114845  0.099227  0  1.004686  0
H  H11  1  0.05329814  0.60042352  0.57845917  1  0  0.086061  0  0.939016  0  0  0.09968  0  1.005025  0  0  0.100076  0  1.005718  0  0  0.114849  0.099312  0  1.004642  0
H  H12  1  0.40091505  0.79673722  0.50876591  1  0  0.101994  0  0.971995  0  0  0.111751  0  1.034069  0  0  0.113582  0  1.034043  0  0  0.11499  0.110555  0  1.033845  0
H  H13  1  0.59907517  0.20325319  0.49123286  1  0  0.102018  0  0.971876  0  0  0.111736  0  1.033992  0  0  0.113589  0  1.033943  0  0  0.115014  0.110541  0  1.033765  0
H  H14  1  0.75684054  0.53892481  0.30798700  1  0  0.089367  0  0.973988  0  0  0.099235  0  1.039057  0  0  0.100346  0  1.038511  0  0  0.131079  0.098449  0  1.039331  0
H  H15  1  0.24316187  0.46107292  0.69201245  1  0  0.089356  0  0.973963  0  0  0.099195  0  1.039057  0  0  0.100322  0  1.038494  0  0  0.131086  0.098411  0  1.039328  0
H  H16  1  0.11233274  0.25497980  0.26605233  1  0  0.102138  0  0.96294  0  0  0.111679  0  1.029899  0  0  0.11536  0  1.026716  0  0  0.099071  0.108984  0  1.031958  0
H  H17  1  0.88767357  0.74502210  0.73394754  1  0  0.102125  0  0.963024  0  0  0.111664  0  1.029975  0  0  0.115347  0  1.026788  0  0  0.099057  0.108958  0  1.032062  0
H  H18  1  0.55895866  0.08250610  0.31606076  1  0  0.091554  0  0.953702  0  0  0.102814  0  1.014021  0  0  0.105994  0  1.012705  0  0  0.097109  0.100616  0  1.014997  0
H  H19  1  0.44105108  0.91749055  0.68393614  1  0  0.091715  0  0.953787  0  0  0.102977  0  1.014068  0  0  0.106156  0  1.012754  0  0  0.097161  0.100779  0  1.015043  0
H  H20  1  0.84107163  0.82443700  0.19565631  1  0  0.104095  0  0.934464  0  0  0.11375  0  0.997159  0  0  0.115725  0  0.995124  0  0  0.138219  0.112295  0  0.998486  0
H  H21  1  0.15892078  0.17555974  0.80434589  1  0  0.104046  0  0.93447  0  0  0.113758  0  0.997104  0  0  0.115715  0  0.995093  0  0  0.138209  0.112303  0  0.998431  0
H  H22  1  0.63839655  0.43483045  0.11563153  1  0  0.094125  0  0.946784  0  0  0.106786  0  1.0039  0  0  0.109942  0  1.002672  0  0  0.098569  0.104401  0  1.00518  0
H  H23  1  0.36160833  0.56517145  0.88436841  1  0  0.094103  0  0.946782  0  0  0.106737  0  1.00393  0  0  0.109894  0  1.002701  0  0  0.098561  0.104353  0  1.00521  0
H  H24  1  0.80913563  0.99368745  0.41146573  1  0  0.107192  0  0.926836  0  0  0.122187  0  0.985677  0  0  0.124851  0  0.984192  0  0  0.099982  0.120159  0  0.986778  0
H  H25  1  0.19086605  0.00631759  0.58853575  1  0  0.107236  0  0.92691  0  0  0.122232  0  0.985749  0  0  0.124889  0  0.984274  0  0  0.099999  0.120212  0  0.986841  0
H  H26  1  0.98228404  0.10856758  0.43424826  1  0  0.125566  0  0.922446  0  0  0.140943  0  0.982007  0  0  0.14376  0  0.9806  0  0  0.107147  0.138822  0  0.983212  0
H  H27  1  0.01772072  0.89143538  0.56575240  1  0  0.125553  0  0.922531  0  0  0.140935  0  0.982081  0  0  0.143756  0  0.980675  0  0  0.107142  0.138814  0  0.983288  0
H  H28  1  0.42745563  0.26271801  0.20169912  1  0  0.085356  0  0.968368  0  0  0.097116  0  1.028874  0  0  0.099527  0  1.027887  0  0  0.098482  0.095252  0  1.029721  0
H  H29  1  0.57255257  0.73727969  0.79829856  1  0  0.085333  0  0.968248  0  0  0.097134  0  1.028734  0  0  0.099551  0  1.027736  0  0  0.098479  0.095273  0  1.029581  0
H  H30  1  0.93407070  0.52322277  0.07850555  1  0  0.105708  0  0.952642  0  0  0.118472  0  1.015905  0  0  0.120853  0  1.014739  0  0  0.099363  0.116628  0  1.016849  0
H  H31  1  0.06593107  0.47676854  0.92148666  1  0  0.105657  0  0.95268  0  0  0.118457  0  1.015909  0  0  0.120838  0  1.01474  0  0  0.099381  0.116615  0  1.016853  0
H  H32  1  0.12842914  0.39815286  0.07638046  1  0  0.10869  0  0.933731  0  0  0.124942  0  0.99317  0  0  0.126815  0  0.992954  0  0  0.103224  0.123595  0  0.993488  0
H  H33  1  0.87157904  0.60184391  0.92362100  1  0  0.108654  0  0.933753  0  0  0.124918  0  0.993198  0  0  0.126791  0  0.992979  0  0  0.103223  0.123569  0  0.993516  0
H  H34  1  0.10227418  0.89705093  0.07070850  1  0  0.101774  0  0.934568  0  0  0.114463  0  1.000423  0  0  0.115917  0  0.999279  0  0  0.119522  0.113339  0  1.001286  0
H  H35  1  0.89771894  0.10295405  0.92929189  1  0  0.101746  0  0.934559  0  0  0.114406  0  1.000453  0  0  0.115863  0  0.999293  0  0  0.119526  0.113281  0  1.001317  0
H  H36  1  0.07971024  0.87068395  0.94088167  1  0  0.08633  0  0.932311  0  0  0.100763  0  0.995935  0  0  0.10037  0  0.998134  0  0  0.113822  0.100954  0  0.994476  0
H  H37  1  0.92028312  0.12931797  0.05912031  1  0  0.086231  0  0.932402  0  0  0.100663  0  0.996008  0  0  0.100267  0  0.998208  0  0  0.113785  0.100855  0  0.994548  0
C  C38  1  0.68685048  0.85161977  0.97370479  1  0  -0.075115  0  3.664487  0  0  -0.11321  0  3.92067  0  0  -0.112629  0  3.940202  0  0  0.00102  -0.113582  0  3.907802  0
C  C39  1  0.31314541  0.14838625  0.02629543  1  0  -0.075296  0  3.664585  0  0  -0.113362  0  3.92079  0  0  -0.112787  0  3.940326  0  0  0.00102  -0.113734  0  3.907922  0
C  C40  1  0.13288126  0.54908791  0.18563756  1  0  0.679263  0  3.887609  0  0  0.6382  0  4.177289  0  0  0.671069  0  4.172377  0  0  0.190865  0.615826  0  4.179955  0
C  C41  1  0.86711260  0.45092811  0.81434968  1  0  0.679127  0  3.88776  0  0  0.63804  0  4.177498  0  0  0.670907  0  4.172586  0  0  0.190772  0.615665  0  4.180163  0
C  C42  1  0.08466968  0.95141092  0.33083608  1  0  0.67926  0  3.882685  0  0  0.639867  0  4.171793  0  0  0.672682  0  4.16735  0  0  0.189353  0.617588  0  4.173949  0
C  C43  1  0.91533713  0.04858389  0.66917000  1  0  0.67943  0  3.882385  0  0  0.640077  0  4.171444  0  0  0.672896  0  4.166991  0  0  0.189483  0.617795  0  4.173601  0
C  C44  1  0.89122082  0.35515130  0.18392008  1  0  0.110773  0  3.783858  0  0  0.129546  0  4.02559  0  0  0.131146  0  4.048496  0  0  -0.018753  0.128335  0  4.009655  0
C  C45  1  0.10878538  0.64485165  0.81608051  1  0  0.110622  0  3.783877  0  0  0.129419  0  4.025624  0  0  0.13102  0  4.048524  0  0  -0.018795  0.128208  0  4.009695  0
C  C46  1  0.84511989  0.15766566  0.29990103  1  0  0.119178  0  3.776352  0  0  0.138918  0  4.016264  0  0  0.140259  0  4.040605  0  0  -0.014494  0.137902  0  3.999448  0
C  C47  1  0.15488803  0.84233420  0.70009958  1  0  0.119487  0  3.776041  0  0  0.139223  0  4.015961  0  0  0.14057  0  4.040297  0  0  -0.014392  0.138208  0  3.999145  0
C  C48  1  0.64452994  0.64565924  0.53650619  1  0  -0.059805  0  3.643746  0  0  -0.100446  0  3.899618  0  0  -0.099057  0  3.9188  0  0  0.002778  -0.101385  0  3.886913  0
C  C49  1  0.35546397  0.35433744  0.46349369  1  0  -0.059878  0  3.643823  0  0  -0.100524  0  3.899687  0  0  -0.099142  0  3.918876  0  0  0.002744  -0.101463  0  3.886981  0
C  C50  1  0.53505875  0.79869548  0.03237371  1  0  -0.00491  0  3.767556  0  0  -0.039772  0  4.033546  0  0  -0.038032  0  4.055137  0  0  -0.009738  -0.040996  0  4.019314  0
C  C51  1  0.46493786  0.20130326  0.96762523  1  0  -0.0047  0  3.767388  0  0  -0.039508  0  4.033332  0  0  -0.037769  0  4.054925  0  0  -0.009694  -0.040732  0  4.019096  0
C  C52  1  0.91197278  0.46314220  0.48843703  1  0  -0.016959  0  3.594716  0  0  -0.081294  0  3.849993  0  0  -0.077249  0  3.859708  0  0  -0.048527  -0.083887  0  3.843494  0
C  C53  1  0.08802940  0.53685764  0.51156386  1  0  -0.016927  0  3.594683  0  0  -0.081383  0  3.850084  0  0  -0.077341  0  3.859799  0  0  -0.0485  -0.083976  0  3.843586  0
C  C54  1  0.51660192  0.72262511  0.48266820  1  0  -0.006375  0  3.769463  0  0  -0.041088  0  4.037157  0  0  -0.039371  0  4.058865  0  0  -0.009743  -0.042172  0  4.022252  0
C  C55  1  0.48338807  0.27736741  0.51733202  1  0  -0.006286  0  3.769387  0  0  -0.040955  0  4.037085  0  0  -0.039257  0  4.058783  0  0  -0.009716  -0.042039  0  4.022175  0
C  C56  1  0.69610909  0.59223684  0.37536514  1  0  0.169408  0  3.664157  0  0  0.107566  0  3.926939  0  0  0.122123  0  3.941287  0  0  0.141949  0.098124  0  3.916866  0
C  C57  1  0.30389208  0.40775882  0.62463444  1  0  0.169505  0  3.663779  0  0  0.107693  0  3.926574  0  0  0.122239  0  3.940904  0  0  0.141934  0.098252  0  3.916501  0
C  C58  1  0.96242833  0.25595886  0.25127458  1  0  -0.175958  0  3.700566  0  0  -0.206709  0  3.955037  0  0  -0.208843  0  3.972376  0  0  -0.098385  -0.204278  0  3.942481  0
C  C59  1  0.03757517  0.74404204  0.74872696  1  0  -0.175977  0  3.700605  0  0  -0.206738  0  3.955086  0  0  -0.208874  0  3.972426  0  0  -0.098382  -0.204304  0  3.942519  0
C  C60  1  0.65251181  0.15908016  0.27984312  1  0  -0.143718  0  3.759563  0  0  -0.163442  0  4.006384  0  0  -0.167441  0  4.028397  0  0  -0.100104  -0.161451  0  3.991888  0
C  C61  1  0.34749915  0.84091858  0.72015440  1  0  -0.144127  0  3.759579  0  0  -0.163841  0  4.006421  0  0  -0.167841  0  4.028427  0  0  -0.100224  -0.161848  0  3.991926  0
C  C62  1  0.75783759  0.82501875  0.13155384  1  0  0.168594  0  3.662866  0  0  0.106549  0  3.928911  0  0  0.120682  0  3.943088  0  0  0.142732  0.097683  0  3.918567  0
C  C63  1  0.24215599  0.17498107  0.86844745  1  0  0.168678  0  3.662898  0  0  0.106594  0  3.928929  0  0  0.120741  0  3.943108  0  0  0.142698  0.097727  0  3.918586  0
C  C64  1  0.69666619  0.35691973  0.16696050  1  0  -0.146371  0  3.760767  0  0  -0.167349  0  4.011237  0  0  -0.170953  0  4.031611  0  0  -0.101077  -0.165484  0  3.997675  0
C  C65  1  0.30333589  0.64308115  0.83304036  1  0  -0.146331  0  3.760732  0  0  -0.167291  0  4.011221  0  0  -0.170898  0  4.031598  0  0  -0.101119  -0.165426  0  3.997663  0
C  C66  1  0.92379666  0.05419688  0.37363069  1  0  -0.30869  0  3.701975  0  0  -0.350273  0  3.941839  0  0  -0.35667  0  3.949477  0  0  -0.16189  -0.345627  0  3.936465  0
C  C67  1  0.07620674  0.94580506  0.62637082  1  0  -0.308849  0  3.702092  0  0  -0.350492  0  3.942057  0  0  -0.356895  0  3.949711  0  0  -0.161926  -0.345851  0  3.936686  0
C  C68  1  0.57842930  0.25948083  0.21476925  1  0  -0.059065  0  3.807386  0  0  -0.071395  0  4.058294  0  0  -0.071637  0  4.079707  0  0  -0.095871  -0.070712  0  4.043909  0
C  C69  1  0.42157914  0.74051380  0.78523003  1  0  -0.058971  0  3.807009  0  0  -0.071338  0  4.057929  0  0  -0.07158  0  4.079343  0  0  -0.095839  -0.070654  0  4.043543  0
C  C70  1  0.01845260  0.45596445  0.12702897  1  0  -0.304429  0  3.706935  0  0  -0.344322  0  3.944515  0  0  -0.350085  0  3.951693  0  0  -0.162605  -0.340061  0  3.939215  0
C  C71  1  0.98154694  0.54403422  0.87296759  1  0  -0.304186  0  3.706908  0  0  -0.344161  0  3.944581  0  0  -0.349918  0  3.951747  0  0  -0.162572  -0.339899  0  3.939286  0
C  C72  1  0.01264128  0.92184441  0.00932880  1  0  -0.02425  0  3.613125  0  0  -0.089667  0  3.872297  0  0  -0.085565  0  3.881951  0  0  -0.048396  -0.092299  0  3.865749  0
C  C73  1  0.98735456  0.07816165  0.99067292  1  0  -0.024149  0  3.613131  0  0  -0.089483  0  3.8722  0  0  -0.08537  0  3.88185  0  0  -0.04837  -0.092119  0  3.865652  0
N  N74  1  0.75646341  0.56359160  0.46718563  1  0  -0.04459  0  3.563172  0  0  0.05169  0  3.777122  0  0  0.037057  0  3.80323  0  0  -0.237369  0.061252  0  3.75952  0
N  N75  1  0.24353590  0.43640823  0.53281540  1  0  -0.044718  0  3.563211  0  0  0.051583  0  3.777189  0  0  0.036952  0  3.803296  0  0  -0.237362  0.061144  0  3.759588  0
N  N76  1  0.55006361  0.68811787  0.38222268  1  0  -0.408543  0  3.291414  0  0  -0.329216  0  3.580259  0  0  -0.351953  0  3.597051  0  0  -0.368643  -0.313734  0  3.568448  0
N  N77  1  0.44993357  0.31187465  0.61777644  1  0  -0.40857  0  3.291172  0  0  -0.329262  0  3.580049  0  0  -0.351999  0  3.596844  0  0  -0.368653  -0.31378  0  3.568236  0
N  N78  1  0.58089193  0.78300629  0.13057980  1  0  -0.404242  0  3.279928  0  0  -0.326469  0  3.567007  0  0  -0.349034  0  3.5848  0  0  -0.366014  -0.311059  0  3.554226  0
N  N79  1  0.41910202  0.21699034  0.86941858  1  0  -0.404294  0  3.280012  0  0  -0.326532  0  3.567106  0  0  -0.349096  0  3.58489  0  0  -0.365925  -0.311122  0  3.554324  0
N  N80  1  0.82690313  0.86636168  0.03769206  1  0  -0.047214  0  3.57355  0  0  0.048335  0  3.789937  0  0  0.034092  0  3.81557  0  0  -0.242369  0.057721  0  3.77238  0
N  N81  1  0.17309289  0.13364233  0.96231047  1  0  -0.047266  0  3.573703  0  0  0.048271  0  3.790089  0  0  0.034025  0  3.815718  0  0  -0.242403  0.057656  0  3.772531  0
O  O82  1  0.19543610  0.50955177  0.26798627  1  0  -0.652222  0  1.935576  0  0  -0.594095  0  2.17323  0  0  -0.621268  0  2.165785  0  0  -0.331025  -0.57566  0  2.177838  0
O  O83  1  0.80457194  0.49046443  0.73200554  1  0  -0.652098  0  1.935972  0  0  -0.593844  0  2.173471  0  0  -0.62103  0  2.166061  0  0  -0.330862  -0.575409  0  2.178079  0
O  O84  1  0.16641532  0.66665953  0.14320691  1  0  -0.657554  0  1.971098  0  0  -0.592716  0  2.217491  0  0  -0.621889  0  2.208605  0  0  -0.342643  -0.572206  0  2.222541  0
O  O85  1  0.83357160  0.33335248  0.85678604  1  0  -0.657618  0  1.970774  0  0  -0.592809  0  2.217246  0  0  -0.621985  0  2.208365  0  0  -0.342701  -0.572293  0  2.222289  0
O  O86  1  0.10493053  0.83678343  0.37984078  1  0  -0.65495  0  1.935933  0  0  -0.593978  0  2.175517  0  0  -0.62243  0  2.166177  0  0  -0.34396  -0.573913  0  2.180812  0
O  O87  1  0.89506560  0.16321671  0.62017162  1  0  -0.654983  0  1.935812  0  0  -0.594009  0  2.175376  0  0  -0.62247  0  2.166055  0  0  -0.344049  -0.573955  0  2.180698  0
O  O88  1  0.19230165  0.98051925  0.25151203  1  0  -0.653529  0  1.916286  0  0  -0.592443  0  2.148095  0  0  -0.620121  0  2.139561  0  0  -0.33844  -0.57352  0  2.153159  0
O  O89  1  0.80770106  0.01947442  0.74849054  1  0  -0.653624  0  1.916261  0  0  -0.59254  0  2.148046  0  0  -0.620219  0  2.139517  0  0  -0.33849  -0.573615  0  2.153112  0
