# generated using pymatgen
data_MnH20C26S2N8(OF)6
_symmetry_space_group_name_H-M   'P 1'
_cell_length_a   9.86867244
_cell_length_b   9.48394424
_cell_length_c   12.20170711
_cell_angle_alpha   109.88454157
_cell_angle_beta   104.69089342
_cell_angle_gamma   91.79977521
_symmetry_Int_Tables_number   1
_chemical_formula_structural   MnH20C26S2N8(OF)6
_chemical_formula_sum   'Mn1 H20 C26 S2 N8 O6 F6'
_cell_volume   1030.08342855
_cell_formula_units_Z   1
loop_
 _symmetry_equiv_pos_site_id
 _symmetry_equiv_pos_as_xyz
  1  'x, y, z'
loop_
 _atom_site_type_symbol
 _atom_site_label
 _atom_site_symmetry_multiplicity
 _atom_site_fract_x
 _atom_site_fract_y
 _atom_site_fract_z
 _atom_site_occupancy
 _atom_site_hle17_bader_charge
 _atom_site_hle17_bader_spin_density
 _atom_site_hle17_ddec_charge
 _atom_site_hle17_ddec_spin_density
 _atom_site_hle17_ddec_sum_bond_order
 _atom_site_hle17_magmom
 _atom_site_hse06_10hf_bader_charge
 _atom_site_hse06_10hf_bader_spin_density
 _atom_site_hse06_10hf_ddec_charge
 _atom_site_hse06_10hf_ddec_spin_density
 _atom_site_hse06_10hf_ddec_sum_bond_order
 _atom_site_hse06_10hf_magmom
 _atom_site_hse06_ddec_charge
 _atom_site_hse06_ddec_spin_density
 _atom_site_hse06_ddec_sum_bond_order
 _atom_site_hse06_magmom
 _atom_site_pbe_cm5_charge
 _atom_site_pbe_ddec_charge
 _atom_site_pbe_ddec_spin_density
 _atom_site_pbe_ddec_sum_bond_order
 _atom_site_pbe_magmom
Mn  Mn0  1  0.99999936  0.49999277  0.49999527  1  1.362155  1.033163  0.755092  1.070839  2.703735  1.04  1.407955  1.022726  0.659258  1.068147  3.235572  1.017  0.696763  1.038522  3.181716  0.988  0.678268  0.633606  1.091149  3.269542  1.03
H  H1  1  0.72440664  0.35642339  0.54583285  1  0.120301  0.00042  0.097086  0.000147  0.988235  0.0  0.197178  -7.6e-05  0.102302  -0.000156  1.06028  0.0  0.105694  -4.5e-05  1.054996  0.0  0.132204  0.09934  -0.000377  1.064868  0.0
H  H2  1  0.27560872  0.64358341  0.45417663  1  0.120561  0.00042  0.097048  0.000147  0.988201  0.0  0.197235  -7.6e-05  0.102264  -0.000156  1.060261  0.0  0.105644  -4.5e-05  1.054962  0.0  0.132232  0.099308  -0.000377  1.064846  0.0
H  H3  1  0.03368865  0.14396925  0.38840331  1  0.075117  -0.000134  0.106721  -0.000187  0.959022  0.0  0.116611  -4.5e-05  0.113398  -0.00013  1.024135  0.0  0.116405  -0.000103  1.021512  0.0  0.116436  0.110803  -0.000267  1.026755  0.0
H  H4  1  0.96631321  0.85602306  0.61159302  1  0.075161  -0.000134  0.10673  -0.000187  0.959138  0.0  0.116686  -4.5e-05  0.113419  -0.000131  1.024223  0.0  0.116425  -0.000103  1.021605  0.0  0.116423  0.11082  -0.000267  1.026841  0.0
H  H5  1  0.83550348  0.92301258  0.37986941  1  0.045341  5.1e-05  0.122563  1.3e-05  0.943018  0.0  0.097921  1.7e-05  0.133308  -2.7e-05  0.999619  0.0  0.136114  -2.5e-05  0.998435  0.0  0.126987  0.131032  -0.000313  1.000834  0.0
H  H6  1  0.16449619  0.07698655  0.62013977  1  0.045333  5.1e-05  0.122562  1.3e-05  0.943113  0.0  0.097983  1.7e-05  0.133364  -2.7e-05  0.999647  0.0  0.136169  -2.5e-05  0.998462  0.0  0.127012  0.131087  -0.000313  1.000865  0.0
H  H7  1  0.48672076  0.20372889  0.41362263  1  0.024657  -4.5e-05  0.11373  -4.9e-05  0.931603  0.0  0.081932  -6.5e-05  0.126216  -8.5e-05  0.986478  0.0  0.129348  -4.3e-05  0.985041  0.0  0.113365  0.123494  -0.000125  0.988281  0.0
H  H8  1  0.51328853  0.79628706  0.58639625  1  0.023947  -4.5e-05  0.113768  -4.9e-05  0.931622  0.0  0.081747  -6.5e-05  0.126252  -8.5e-05  0.986509  0.0  0.129378  -4.3e-05  0.985069  0.0  0.113409  0.12354  -0.000125  0.988311  0.0
H  H9  1  0.72702301  0.89804919  0.55151158  1  0.019967  -4e-06  0.105788  -8e-06  0.958799  0.0  0.089429  -2.5e-05  0.114926  -2.7e-05  1.024401  0.0  0.117939  -1.4e-05  1.022639  0.0  0.106562  0.112376  -3.9e-05  1.026266  0.0
H  H10  1  0.27298764  0.10196900  0.44850900  1  0.020015  -4e-06  0.105805  -8e-06  0.958771  0.0  0.089281  -2.4e-05  0.114853  -2.7e-05  1.024467  0.0  0.117866  -1.4e-05  1.022709  0.0  0.106546  0.112338  -3.9e-05  1.026298  0.0
H  H11  1  0.85728430  0.49105408  0.22304401  1  0.156596  0.000198  0.107883  -1.8e-05  0.989204  0.0  0.211448  -0.000115  0.110893  -0.00037  1.063874  0.0  0.114757  -0.000177  1.057732  0.0  0.133642  0.108293  -0.000421  1.067718  0.0
H  H12  1  0.14270028  0.50890340  0.77693710  1  0.156935  0.000198  0.108002  -1.8e-05  0.989177  0.0  0.21162  -0.000115  0.110879  -0.00037  1.064018  0.0  0.114733  -0.000177  1.057873  0.0  0.133627  0.108279  -0.000421  1.06786  0.0
H  H13  1  0.69512305  0.59279364  0.52655070  1  0.07089  -0.000125  0.106827  -0.000114  0.989378  0.0  0.115167  -0.000261  0.112573  -0.000207  1.054883  0.0  0.115415  -0.000177  1.053005  0.0  0.114384  0.110913  -4.2e-05  1.055717  0.0
H  H14  1  0.30488644  0.40720876  0.47344577  1  0.070851  -0.000125  0.106708  -0.000114  0.989377  0.0  0.115606  -0.000261  0.112495  -0.000207  1.054851  0.0  0.115333  -0.000177  1.052982  0.0  0.114375  0.110837  -4.2e-05  1.055687  0.0
H  H15  1  0.48116875  0.58450139  0.32739876  1  0.084256  -3.5e-05  0.130608  -1.6e-05  0.971786  0.0  0.172309  0.000233  0.140195  0.000192  1.031209  0.0  0.142752  0.000172  1.029867  0.0  0.123521  0.138563  -6.2e-05  1.031927  0.0
H  H16  1  0.51883371  0.41549545  0.67259726  1  0.084212  -3.5e-05  0.130587  -1.6e-05  0.971758  0.0  0.172271  0.000233  0.140213  0.000192  1.03115  0.0  0.14277  0.000172  1.029804  0.0  0.123531  0.138573  -6.2e-05  1.031864  0.0
H  H17  1  0.36959845  0.45772808  0.13809305  1  0.059771  3e-05  0.116532  4.2e-05  0.975062  0.0  0.127998  2.8e-05  0.124423  5e-05  1.03899  0.0  0.128026  3.8e-05  1.036453  0.0  0.105425  0.121825  6e-06  1.040848  0.0
H  H18  1  0.63039101  0.54226557  0.86189949  1  0.059816  3e-05  0.11654  4.2e-05  0.97505  0.0  0.127891  2.9e-05  0.124378  5e-05  1.039029  0.0  0.128018  3.8e-05  1.036443  0.0  0.105409  0.121783  6e-06  1.040883  0.0
H  H19  1  0.76081817  0.57257766  0.07046224  1  0.008047  9e-06  0.120067  8e-06  0.930515  0.0  0.059033  -7.6e-05  0.133161  -6.2e-05  0.983349  0.0  0.13637  -1.7e-05  0.981431  0.0  0.115377  0.130858  -0.000111  0.98474  0.0
H  H20  1  0.23917041  0.42742508  0.92953172  1  0.007897  9e-06  0.120121  8e-06  0.930521  0.0  0.059525  -7.6e-05  0.1332  -6.2e-05  0.983355  0.0  0.136404  -1.7e-05  0.981451  0.0  0.115384  0.130902  -0.000111  0.984742  0.0
C  C21  1  0.78177313  0.27169505  0.49917650  1  0.972601  -0.00874  0.155873  -0.011578  3.603098  -0.007  0.919986  -0.004526  0.095117  -0.00565  3.869175  -0.003  0.113372  0.000633  3.875622  0.001  0.135428  0.081128  -0.008841  3.867178  -0.005
C  C22  1  0.21823790  0.72831069  0.50083100  1  0.972484  -0.008735  0.155885  -0.01157  3.603062  -0.007  0.920303  -0.00452  0.095128  -0.005644  3.869215  -0.003  0.113398  0.000635  3.87564  0.001  0.135415  0.081123  -0.008838  3.867216  -0.005
C  C23  1  0.94101285  0.15564461  0.42113073  1  0.482175  0.000405  0.007776  0.001007  3.716856  0.001  0.415288  0.000781  -0.027793  0.000623  3.991752  0.001  -0.024548  0.001458  4.009193  0.002  0.000988  -0.030708  -0.003612  3.981706  -0.002
C  C24  1  0.05898753  0.84435226  0.57886652  1  0.482445  0.000406  0.007717  0.001007  3.717082  0.001  0.415223  0.000782  -0.027837  0.000623  3.991989  0.001  -0.024613  0.001456  4.009431  0.002  0.000949  -0.030755  -0.003611  3.981932  -0.002
C  C25  1  0.84355193  0.04521009  0.41556216  1  0.360051  0.002013  -0.066103  0.001732  3.683598  0.001  0.350527  0.000947  -0.107589  0.00072  3.940968  0.001  -0.106809  -0.000239  3.959623  0.0  0.001415  -0.108237  8.9e-05  3.929439  0.0
C  C26  1  0.15644833  0.95479357  0.58444261  1  0.359994  0.002012  -0.066301  0.001731  3.68372  0.001  0.350733  0.000947  -0.10785  0.000719  3.941087  0.001  -0.107066  -0.000237  3.959747  0.0  0.001336  -0.108495  8.9e-05  3.929558  0.0
C  C27  1  0.61980973  0.05724905  0.48099116  1  0.258095  -0.000884  0.173678  -0.001121  3.785787  -0.001  0.277718  -0.000863  0.166478  -0.001074  4.031527  -0.001  0.171244  -0.000401  4.054254  0.0  0.096112  0.162633  -0.001891  4.016993  -0.001
C  C28  1  0.38019941  0.94276578  0.51902575  1  0.257808  -0.000884  0.173461  -0.00112  3.78608  -0.001  0.278015  -0.000862  0.166353  -0.001073  4.03168  -0.001  0.171131  -0.000401  4.0544  0.0  0.096092  0.162498  -0.001891  4.01717  -0.001
C  C29  1  0.49257396  0.11595385  0.45300154  1  0.099249  -5.7e-05  -0.123824  -7.5e-05  3.734395  0.0  0.034693  -0.000372  -0.14476  -0.000427  3.984981  0.0  -0.147619  -9.6e-05  4.005037  0.0  -0.081994  -0.14342  -0.000657  3.973136  0.0
C  C30  1  0.50743653  0.88406322  0.54701871  1  0.100294  -5.7e-05  -0.123775  -7.5e-05  3.734734  0.0  0.035442  -0.000371  -0.144761  -0.000426  3.985353  0.0  -0.147612  -9.5e-05  4.005397  0.0  -0.082006  -0.143428  -0.000657  3.973505  0.0
C  C31  1  0.62721045  0.94123303  0.52774610  1  0.102908  -0.000179  -0.122647  -0.000224  3.749753  0.0  0.026873  -0.000256  -0.146583  -0.000291  4.003549  0.0  -0.148747  -2.4e-05  4.023469  0.0  -0.085519  -0.145792  -0.000684  3.991782  0.0
C  C32  1  0.37279885  0.05878292  0.47227361  1  0.102833  -0.000179  -0.122569  -0.000224  3.749619  0.0  0.02682  -0.000256  -0.146455  -0.000291  4.003399  0.0  -0.148625  -2.3e-05  4.02332  0.0  -0.085485  -0.145688  -0.000684  3.991627  0.0
C  C33  1  0.78697798  0.51988593  0.28048830  1  0.982454  -0.005706  0.157162  -0.007582  3.573746  -0.004  0.945595  -0.008558  0.091232  -0.011034  3.844382  -0.005  0.109215  -0.006378  3.851826  -0.003  0.137002  0.080586  -0.008424  3.83693  -0.004
C  C34  1  0.21301408  0.48008049  0.71949671  1  0.982278  -0.005701  0.157228  -0.007577  3.57413  -0.004  0.945383  -0.008558  0.091329  -0.011034  3.844823  -0.005  0.109328  -0.006377  3.852257  -0.003  0.137185  0.080685  -0.008425  3.837368  -0.004
C  C35  1  0.69774258  0.57077200  0.43410892  1  0.414474  6e-06  -0.027308  -0.000338  3.7423  0.001  0.399022  0.00108  -0.060163  0.001606  4.016837  0.002  -0.059194  0.001489  4.037247  0.002  -0.010156  -0.0605  -0.000848  4.001412  0.0
C  C36  1  0.30226406  0.42922477  0.56588711  1  0.414136  8e-06  -0.026947  -0.000337  3.742325  0.001  0.39845  0.001081  -0.059856  0.001606  4.016867  0.002  -0.058885  0.001491  4.037283  0.002  -0.010078  -0.0602  -0.000848  4.001448  0.0
C  C37  1  0.59068217  0.56772384  0.33645566  1  0.369184  0.002646  -0.05794  0.002192  3.674792  0.002  0.286468  0.002174  -0.101227  0.00159  3.933319  0.001  -0.099414  0.001902  3.951976  0.002  -0.002336  -0.10185  0.000746  3.919611  0.001
C  C38  1  0.40931789  0.43227078  0.66353847  1  0.369472  0.002644  -0.058122  0.002191  3.674942  0.002  0.286686  0.002174  -0.101478  0.00159  3.933541  0.001  -0.099663  0.001899  3.952195  0.002  -0.00248  -0.102091  0.000746  3.919827  0.001
C  C39  1  0.57360007  0.51787383  0.11846973  1  0.204302  -0.000717  0.171455  -0.000913  3.78907  -0.001  0.224264  -0.001068  0.160503  -0.001347  4.041554  -0.001  0.165372  -0.000595  4.06498  0.0  0.092525  0.157098  -0.001642  4.025488  -0.001
C  C40  1  0.42638667  0.48210740  0.88152223  1  0.203449  -0.000717  0.171428  -0.000914  3.78913  -0.001  0.224305  -0.001069  0.160483  -0.001347  4.041586  -0.001  0.16535  -0.000591  4.065023  0.0  0.092495  0.157083  -0.001643  4.025515  -0.001
C  C41  1  0.42686595  0.47784245  0.07823002  1  0.115705  -1.4e-05  -0.127367  -4.7e-05  3.728251  0.0  0.040558  -0.000203  -0.1487  -0.000252  3.980065  0.0  -0.151232  -0.000147  3.999252  0.0  -0.089383  -0.146769  -0.000251  3.966913  0.0
C  C42  1  0.57313112  0.52214541  0.92176498  1  0.115722  -1.3e-05  -0.127621  -4.7e-05  3.728246  0.0  0.04053  -0.000202  -0.148913  -0.000251  3.980105  0.0  -0.151473  -0.000148  3.999263  0.0  -0.089552  -0.146985  -0.00025  3.966948  0.0
C  C43  1  0.64679550  0.53989900  0.04003467  1  0.133697  -0.000623  -0.128937  -0.000697  3.736084  0.0  0.073979  -0.000815  -0.151607  -0.000873  3.988881  0.0  -0.154276  -0.000322  4.008668  0.0  -0.084971  -0.149688  -0.001095  3.975356  -0.001
C  C44  1  0.35319438  0.46009012  0.95995347  1  0.134122  -0.000623  -0.129173  -0.000697  3.736252  0.0  0.07322  -0.000815  -0.151838  -0.000873  3.989088  0.0  -0.154509  -0.000322  4.00886  0.0  -0.085068  -0.149926  -0.001095  3.975575  -0.001
C  C45  1  0.12255726  0.18866225  0.15880078  1  1.644627  -0.001028  0.600176  -0.001344  3.701529  -0.001  1.709335  -0.002244  0.533511  -0.002921  4.067323  -0.002  0.561784  -0.002657  4.039571  -0.001  0.289398  0.513524  -0.00035  4.086873  0.0
C  C46  1  0.87743449  0.81134837  0.84119428  1  1.643371  -0.001029  0.600351  -0.001345  3.701051  -0.001  1.709575  -0.002245  0.533672  -0.002922  4.066851  -0.002  0.561943  -0.002649  4.0391  -0.001  0.289542  0.513681  -0.000349  4.086409  0.0
S  S47  1  0.12393400  0.39342533  0.24526435  1  3.215894  0.002809  1.116355  0.003539  5.762088  0.005  3.328493  0.000365  1.012022  -0.000453  6.296676  0.003  1.055132  -0.000934  6.280932  0.002  0.507493  0.982841  -0.003128  6.305137  -0.004
S  S48  1  0.87606418  0.60658631  0.75473720  1  3.21576  0.002807  1.116231  0.003536  5.762395  0.005  3.328595  0.000364  1.01194  -0.000455  6.296959  0.003  1.055043  -0.000935  6.281218  0.002  0.507429  0.982757  -0.003126  6.305426  -0.004
N  N49  1  0.90214334  0.29691769  0.47414990  1  -1.177303  -0.012088  -0.302016  -0.015965  3.334061  -0.01  -1.216652  -0.004274  -0.248822  -0.009252  3.636483  -0.009  -0.268394  -0.009334  3.647472  -0.01  -0.360781  -0.236659  -0.011073  3.630355  -0.01
N  N50  1  0.09786362  0.70308134  0.52584844  1  -1.17784  -0.012079  -0.302052  -0.01596  3.333932  -0.01  -1.216915  -0.004276  -0.248919  -0.009251  3.636402  -0.009  -0.268453  -0.009332  3.647359  -0.01  -0.360783  -0.236726  -0.011073  3.630237  -0.01
N  N51  1  0.74255054  0.12017322  0.46507006  1  -1.276444  -0.000873  -0.087656  -0.000731  3.618158  0.0  -1.304354  -0.001072  0.001851  -0.001035  3.830189  0.0  -0.012209  0.000118  3.853518  0.0  -0.227569  0.011081  -0.001524  3.815348  -0.001
N  N52  1  0.25745960  0.87983367  0.53494003  1  -1.276434  -0.000873  -0.087213  -0.00073  3.617924  0.0  -1.304632  -0.001071  0.002288  -0.001035  3.829898  0.0  -0.011785  0.000118  3.853237  0.0  -0.227444  0.011516  -0.001523  3.815074  -0.001
N  N53  1  0.82012282  0.54019889  0.39844666  1  -1.199936  -0.004145  -0.3113  -0.009231  3.332346  -0.012  -1.253057  -0.000252  -0.256516  -0.006032  3.638958  -0.009  -0.277573  -0.004458  3.655863  -0.007  -0.362498  -0.240418  -0.006467  3.622788  -0.011
N  N54  1  0.17987437  0.45978218  0.60154246  1  -1.199971  -0.004152  -0.311642  -0.009233  3.332722  -0.012  -1.253142  -0.00025  -0.256745  -0.006033  3.639256  -0.009  -0.277809  -0.004461  3.656165  -0.007  -0.362704  -0.240646  -0.006465  3.623086  -0.011
N  N55  1  0.64769216  0.53552129  0.23940624  1  -1.285945  -0.001242  -0.083469  -0.001358  3.605503  -0.001  -1.318852  -0.002495  0.004905  -0.002384  3.821946  -0.001  -0.009686  -0.002004  3.845409  -0.001  -0.224303  0.01497  -0.001634  3.8049  -0.001
N  N56  1  0.35230066  0.46445079  0.76057960  1  -1.285658  -0.001241  -0.083242  -0.001357  3.605486  -0.001  -1.318908  -0.002495  0.005167  -0.002385  3.821876  -0.001  -0.009424  -0.002005  3.845338  -0.001  -0.224076  0.015227  -0.001634  3.804829  -0.001
O  O57  1  0.06121858  0.38454891  0.34135754  1  -1.307831  0.007461  -0.601695  0.00396  2.18219  -0.002  -1.349323  0.007843  -0.544297  0.002708  2.472459  -0.002  -0.570774  0.001156  2.461724  -0.003  -0.31166  -0.525057  0.008099  2.478955  0.005
O  O58  1  0.93878584  0.61544675  0.65864513  1  -1.307596  0.007461  -0.601687  0.003961  2.182354  -0.002  -1.349311  0.00785  -0.544225  0.002708  2.472413  -0.002  -0.570683  0.001155  2.461667  -0.003  -0.311594  -0.525  0.008094  2.47892  0.005
O  O59  1  0.03819460  0.45078777  0.15862774  1  -1.286875  0.002562  -0.561304  0.002277  1.938625  0.002  -1.326425  0.002252  -0.528654  0.002042  2.163488  0.002  -0.547509  0.001737  2.15185  0.002  -0.325106  -0.515275  -0.001921  2.170574  -0.001
O  O60  1  0.96180843  0.54923623  0.84138791  1  -1.286882  0.002562  -0.561388  0.002277  1.938563  0.002  -1.326318  0.002252  -0.528742  0.002042  2.163419  0.002  -0.547594  0.001735  2.151779  0.002  -0.325183  -0.515362  -0.001922  2.170507  -0.001
O  O61  1  0.27419659  0.45085079  0.29099675  1  -1.312173  0.001935  -0.612012  0.001697  2.022846  0.002  -1.35596  0.00176  -0.572792  0.001561  2.270902  0.002  -0.592843  0.001054  2.258805  0.001  -0.328237  -0.55831  0.001257  2.278097  0.001
O  O62  1  0.72580726  0.54915622  0.70900635  1  -1.312145  0.001934  -0.611916  0.001696  2.022931  0.002  -1.356277  0.001759  -0.57269  0.00156  2.270953  0.002  -0.592748  0.001052  2.258871  0.001  -0.32817  -0.558197  0.001257  2.278139  0.001
F  F63  1  0.99035721  0.11385650  0.11786737  1  -0.614816  -3.2e-05  -0.219809  -8e-06  1.190865  0.0  -0.62449  -5.8e-05  -0.186514  6e-06  1.353986  0.0  -0.195878  3.2e-05  1.337044  0.0  -0.096609  -0.179749  5.3e-05  1.365833  0.0
F  F64  1  0.00963051  0.88616327  0.88212274  1  -0.614148  -3.2e-05  -0.21993  -8e-06  1.190665  0.0  -0.624638  -5.8e-05  -0.186642  6e-06  1.353786  0.0  -0.196006  3.2e-05  1.336843  0.0  -0.096728  -0.179877  5.3e-05  1.365636  0.0
F  F65  1  0.20543938  0.12349064  0.23089529  1  -0.625013  -5e-06  -0.234845  2.2e-05  1.169151  0.0  -0.633791  -5.1e-05  -0.197804  1.3e-05  1.334748  0.0  -0.207409  2.7e-05  1.318079  0.0  -0.100331  -0.190616  -0.000151  1.346382  0.0
F  F66  1  0.79454425  0.87650653  0.76909044  1  -0.624887  -5e-06  -0.234889  2.2e-05  1.168901  0.0  -0.633667  -5.1e-05  -0.19785  1.2e-05  1.334511  0.0  -0.207455  2.7e-05  1.317842  0.0  -0.100399  -0.190665  -0.000151  1.346142  0.0
F  F67  1  0.17435388  0.17267859  0.06319010  1  -0.61489  -0.000455  -0.219433  -0.000457  1.169582  0.0  -0.622973  -0.001081  -0.182675  -0.001097  1.326394  -0.001  -0.19307  -0.00089  1.310684  -0.001  -0.095875  -0.17497  0.000124  1.337226  0.0
F  F68  1  0.82564013  0.82734107  0.93680617  1  -0.614624  -0.000455  -0.219409  -0.000457  1.169625  0.0  -0.623216  -0.001081  -0.182653  -0.001097  1.326451  -0.001  -0.193048  -0.000891  1.310743  -0.001  -0.095845  -0.174944  0.000124  1.337284  0.0
