# generated using pymatgen
data_CoH8C10(NO2)2
_symmetry_space_group_name_H-M   'P 1'
_cell_length_a   4.86953982
_cell_length_b   10.70246691
_cell_length_c   19.42324787
_cell_angle_alpha   95.15045288
_cell_angle_beta   89.99985825
_cell_angle_gamma   89.99991498
_symmetry_Int_Tables_number   1
_chemical_formula_structural   CoH8C10(NO2)2
_chemical_formula_sum   'Co4 H32 C40 N8 O16'
_cell_volume   1008.17659559
_cell_formula_units_Z   4
loop_
 _symmetry_equiv_pos_site_id
 _symmetry_equiv_pos_as_xyz
  1  'x, y, z'
loop_
 _atom_site_type_symbol
 _atom_site_label
 _atom_site_symmetry_multiplicity
 _atom_site_fract_x
 _atom_site_fract_y
 _atom_site_fract_z
 _atom_site_occupancy
 _atom_site_hle17_ddec_charge
 _atom_site_hle17_ddec_spin_density
 _atom_site_hle17_ddec_sum_bond_order
 _atom_site_hle17_magmom
 _atom_site_hse06_10hf_ddec_charge
 _atom_site_hse06_10hf_ddec_spin_density
 _atom_site_hse06_10hf_ddec_sum_bond_order
 _atom_site_hse06_10hf_magmom
 _atom_site_hse06_ddec_charge
 _atom_site_hse06_ddec_spin_density
 _atom_site_hse06_ddec_sum_bond_order
 _atom_site_hse06_magmom
 _atom_site_pbe_cm5_charge
 _atom_site_pbe_ddec_charge
 _atom_site_pbe_ddec_spin_density
 _atom_site_pbe_ddec_sum_bond_order
 _atom_site_pbe_magmom
Co  Co0  1  0.36905285  0.65241147  0.71790100  1  1.072402  2.840712  1.852585  2.57  1.034645  2.842729  2.272408  2.637  1.116964  2.883346  2.198292  2.717  0.675395  0.960628  2.803825  2.340297  2.56
Co  Co1  1  0.86905716  0.34759239  0.78209838  1  1.072381  2.840707  1.852682  2.57  1.034579  2.842723  2.272527  2.637  1.116929  2.883346  2.198401  2.717  0.675368  0.960579  2.803824  2.34042  2.56
Co  Co2  1  0.63094678  0.34759196  0.28209846  1  1.072394  2.840704  1.852638  2.57  1.034605  2.842716  2.272477  2.637  1.116968  2.883344  2.198353  2.717  0.6754  0.960628  2.80382  2.340372  2.56
Co  Co3  1  0.13094247  0.65240916  0.21790100  1  1.072415  2.840708  1.852649  2.57  1.034636  2.84272  2.272472  2.637  1.116962  2.883337  2.198349  2.717  0.675383  0.960616  2.803816  2.340388  2.56
H  H4  1  0.74504242  0.82643377  0.81954806  1  0.104635  -0.000758  0.962371  0.0  0.117374  -0.000302  1.020658  0.0  0.119464  -0.000276  1.020319  0.0  0.106358  0.11592  -0.000291  1.020845  0.0
H  H5  1  0.24505648  0.17357304  0.68045359  1  0.104656  -0.000761  0.962457  0.0  0.117354  -0.000302  1.020782  0.0  0.119444  -0.000276  1.02044  0.0  0.106349  0.115902  -0.000291  1.020973  0.0
H  H6  1  0.25494694  0.17357251  0.18045410  1  0.104628  -0.00076  0.962466  0.0  0.117333  -0.000302  1.02079  0.0  0.119423  -0.000276  1.020448  0.0  0.106347  0.115879  -0.000291  1.02098  0.0
H  H7  1  0.75495342  0.82643136  0.31954798  1  0.104638  -0.00076  0.962377  0.0  0.117359  -0.000302  1.020682  0.0  0.119451  -0.000276  1.020338  0.0  0.10635  0.115907  -0.000291  1.020874  0.0
H  H8  1  0.01077320  0.92375755  0.92032661  1  0.083384  4.2e-05  0.960155  0.0  0.09659  1e-06  1.01919  0.0  0.099076  -7e-06  1.018438  0.0  0.097839  0.094804  2e-06  1.019806  0.0
H  H9  1  0.51079888  0.07624479  0.57967808  1  0.083469  4.2e-05  0.960154  0.0  0.096615  1e-06  1.019241  0.0  0.099102  -7e-06  1.018488  0.0  0.097845  0.094828  2e-06  1.019857  0.0
H  H10  1  0.98920589  0.07624596  0.07967852  1  0.083456  4.1e-05  0.960238  0.0  0.096632  1e-06  1.019293  0.0  0.09912  -7e-06  1.018539  0.0  0.097863  0.094844  2e-06  1.019909  0.0
H  H11  1  0.48922129  0.92375592  0.42032744  1  0.083384  4.2e-05  0.960137  0.0  0.096588  1e-06  1.019174  0.0  0.099073  -7e-06  1.018422  0.0  0.097837  0.0948  2e-06  1.019789  0.0
H  H12  1  0.54724330  0.70523433  0.05623489  1  0.116931  3.1e-05  0.953576  0.0  0.129588  -6.4e-05  1.008723  0.0  0.131996  -8.7e-05  1.008123  0.0  0.108261  0.127763  -4.3e-05  1.009383  0.0
H  H13  1  0.04726052  0.29475560  0.44376464  1  0.116983  3.1e-05  0.95353  0.0  0.12967  -6.5e-05  1.008665  0.0  0.132061  -8.7e-05  1.008092  0.0  0.108288  0.127848  -4.4e-05  1.009322  0.0
H  H14  1  0.45274196  0.29475597  0.94376450  1  0.116995  3.1e-05  0.953506  0.0  0.129679  -6.4e-05  1.008642  0.0  0.132081  -8.7e-05  1.008054  0.0  0.108287  0.127858  -4.4e-05  1.009304  0.0
H  H15  1  0.95275964  0.70523566  0.55623582  1  0.116926  3.2e-05  0.953611  0.0  0.129578  -6.4e-05  1.008769  0.0  0.131984  -8.7e-05  1.008173  0.0  0.108251  0.127752  -4.4e-05  1.00944  0.0
H  H16  1  0.91202708  0.86316916  0.03902061  1  0.089063  -0.000353  0.955014  0.0  0.102176  -7.5e-05  1.012632  0.0  0.104641  -7.9e-05  1.011992  0.0  0.100252  0.100342  -8e-05  1.013174  0.0
H  H17  1  0.41204671  0.13682712  0.46098361  1  0.089109  -0.000355  0.954951  0.0  0.102196  -7.5e-05  1.012588  0.0  0.104666  -7.9e-05  1.011934  0.0  0.100263  0.100352  -8e-05  1.013157  0.0
H  H18  1  0.08795612  0.13682778  0.96098371  1  0.089125  -0.000354  0.954925  0.0  0.102203  -7.5e-05  1.012576  0.0  0.104673  -7.9e-05  1.011921  0.0  0.100279  0.100365  -8e-05  1.013143  0.0
H  H19  1  0.58797346  0.86316889  0.53902119  1  0.089069  -0.000355  0.95501  0.0  0.102178  -7.5e-05  1.012631  0.0  0.104641  -7.9e-05  1.011993  0.0  0.100259  0.100344  -8e-05  1.013176  0.0
H  H20  1  0.07065860  0.95661501  0.72893458  1  0.142719  -0.000642  0.937839  -0.001  0.164867  -9.4e-05  0.994851  0.0  0.167267  -6.3e-05  0.994428  0.0  0.103707  0.162899  -0.000139  0.995408  0.0
H  H21  1  0.57066196  0.04338910  0.77106552  1  0.142753  -0.000642  0.937824  -0.001  0.164897  -9.4e-05  0.994845  0.0  0.167301  -6.3e-05  0.994416  0.0  0.103732  0.162929  -0.000139  0.995407  0.0
H  H22  1  0.92934103  0.04339125  0.27106604  1  0.142774  -0.00064  0.937824  -0.001  0.164913  -9.4e-05  0.994841  0.0  0.167318  -6.3e-05  0.994413  0.0  0.103743  0.162942  -0.000139  0.995405  0.0
H  H23  1  0.42933972  0.95661435  0.22893498  1  0.142721  -0.000642  0.937846  -0.001  0.164865  -9.4e-05  0.994864  0.0  0.167267  -6.4e-05  0.994438  0.0  0.10371  0.162897  -0.000139  0.995426  0.0
H  H24  1  0.85016582  0.98532074  0.65922234  1  0.132  -0.000118  0.95139  0.0  0.151497  7.4e-05  1.010323  0.0  0.154148  1.9e-05  1.009274  0.0  0.095297  0.149625  0.000165  1.011106  0.0
H  H25  1  0.35016855  0.01468503  0.84077869  1  0.131987  -0.000118  0.9514  0.0  0.151486  7.4e-05  1.010331  0.0  0.154139  1.9e-05  1.009282  0.0  0.095284  0.149617  0.000165  1.011106  0.0
H  H26  1  0.14983176  0.01468553  0.34077931  1  0.131975  -0.000117  0.951422  0.0  0.151484  7.4e-05  1.010341  0.0  0.154136  1.9e-05  1.009291  0.0  0.095295  0.149614  0.000165  1.011115  0.0
H  H27  1  0.64983313  0.98531841  0.15922181  1  0.131983  -0.000117  0.951436  0.0  0.151477  7.4e-05  1.010376  0.0  0.15413  1.9e-05  1.009324  0.0  0.095292  0.149605  0.000165  1.011153  0.0
H  H28  1  0.17157008  0.90480334  0.64375951  1  0.143436  -7.7e-05  0.950324  0.0  0.160547  7.6e-05  1.012245  0.0  0.163426  -5e-06  1.011245  0.0  0.099316  0.158495  0.000149  1.01287  0.0
H  H29  1  0.67157654  0.09520070  0.85624154  1  0.143396  -7.7e-05  0.950361  0.0  0.160497  7.6e-05  1.012299  0.0  0.16338  -5e-06  1.011301  0.0  0.09929  0.158446  0.000149  1.012924  0.0
H  H30  1  0.82842750  0.09520293  0.35624162  1  0.143448  -7.7e-05  0.950374  0.0  0.160542  7.6e-05  1.01231  0.0  0.163426  -5e-06  1.011315  0.0  0.099312  0.158491  0.000149  1.012936  0.0
H  H31  1  0.32842309  0.90480461  0.14375852  1  0.143407  -7.7e-05  0.950334  0.0  0.160517  7.6e-05  1.012261  0.0  0.163397  -6e-06  1.011257  0.0  0.099285  0.158464  0.000149  1.012891  0.0
H  H32  1  0.80991078  0.42719529  0.99156743  1  0.312036  0.000139  0.924339  0.0  0.292108  0.000125  0.986904  0.0  0.302054  6.6e-05  0.978673  0.0  0.307189  0.285034  0.000185  0.992843  0.0
H  H33  1  0.30992112  0.57279547  0.50843037  1  0.311951  0.00014  0.924381  0.0  0.29204  0.000125  0.986901  0.0  0.301985  6.6e-05  0.978672  0.0  0.307195  0.284971  0.000184  0.992829  0.0
H  H34  1  0.19008269  0.57279685  0.00842947  1  0.312022  0.00014  0.924318  0.0  0.292114  0.000125  0.98684  0.0  0.302059  6.6e-05  0.978611  0.0  0.307221  0.285046  0.000184  0.992763  0.0
H  H35  1  0.69008878  0.42719575  0.49156803  1  0.312021  0.00014  0.924345  0.0  0.2921  0.000125  0.986905  0.0  0.302045  6.6e-05  0.978674  0.0  0.307205  0.285026  0.000184  0.992852  0.0
C  C36  1  0.49684226  0.71268338  0.88044679  1  0.165948  -0.003851  3.817801  -0.003  0.166255  0.000623  4.070061  0.001  0.170974  -1.9e-05  4.09545  0.0  0.095924  0.162419  0.000916  4.052498  0.001
C  C37  1  0.99685042  0.28731571  0.61955384  1  0.165859  -0.003865  3.817877  -0.003  0.166134  0.000622  4.070176  0.001  0.170851  -2e-05  4.095565  0.0  0.095845  0.162292  0.000916  4.052616  0.001
C  C38  1  0.50315121  0.28731632  0.11955405  1  0.16586  -0.003839  3.817808  -0.003  0.166168  0.000623  4.070115  0.001  0.170883  -1.9e-05  4.095503  0.0  0.095883  0.162333  0.000916  4.052544  0.001
C  C39  1  0.00315537  0.71268307  0.38044850  1  0.165946  -0.003858  3.817682  -0.003  0.166168  0.000623  4.070024  0.001  0.170886  -1.9e-05  4.095414  0.0  0.09589  0.162339  0.000916  4.05244  0.001
C  C40  1  0.44404233  0.67923183  0.94833326  1  0.164819  0.007079  3.781858  0.01  0.153206  0.00327  4.031994  0.005  0.155777  0.002511  4.056441  0.004  0.098784  0.151671  0.004492  4.015802  0.006
C  C41  1  0.94405105  0.32076447  0.55166573  1  0.164848  0.007086  3.781928  0.01  0.15324  0.00327  4.032102  0.005  0.155809  0.002512  4.05655  0.004  0.0988  0.151714  0.004492  4.015895  0.006
C  C42  1  0.55594908  0.32076316  0.05166582  1  0.16496  0.007071  3.78184  0.01  0.15327  0.00327  4.032109  0.005  0.155841  0.002511  4.056557  0.004  0.098796  0.151737  0.004492  4.015909  0.006
C  C43  1  0.05596090  0.67923146  0.44833391  1  0.164744  0.007081  3.781875  0.01  0.153174  0.003269  4.031949  0.005  0.155743  0.002511  4.056397  0.004  0.098703  0.15164  0.004492  4.015745  0.006
C  C44  1  0.10790836  0.52848309  0.90474563  1  0.442715  -0.001193  3.84364  0.002  0.402117  -0.000543  4.126407  0.001  0.427819  -0.000532  4.124141  0.001  0.238407  0.38431  -0.001307  4.128094  0.001
C  C45  1  0.60791000  0.47151249  0.59525045  1  0.442838  -0.001191  3.843825  0.002  0.402313  -0.000543  4.126526  0.001  0.428016  -0.000531  4.124265  0.001  0.238584  0.384498  -0.001306  4.128218  0.001
C  C46  1  0.89208922  0.47151092  0.09525032  1  0.442827  -0.001194  3.843845  0.002  0.402296  -0.000542  4.126539  0.001  0.428  -0.000531  4.124277  0.001  0.238562  0.384489  -0.001305  4.128217  0.001
C  C47  1  0.39209374  0.52848339  0.40474558  1  0.442738  -0.001194  3.843722  0.002  0.402156  -0.000543  4.126445  0.001  0.427855  -0.000533  4.124181  0.001  0.23845  0.384364  -0.001306  4.128103  0.001
C  C48  1  0.17297639  0.56605572  0.83521008  1  0.409498  -0.027192  3.881758  -0.02  0.381726  -0.004138  4.162783  -0.003  0.408476  -0.003913  4.166331  -0.003  0.220335  0.361545  -0.005323  4.158842  -0.004
C  C49  1  0.67298158  0.43394733  0.66478733  1  0.409584  -0.027196  3.881666  -0.02  0.381724  -0.004139  4.162814  -0.003  0.408463  -0.003913  4.166377  -0.003  0.22035  0.361553  -0.005324  4.158856  -0.004
C  C50  1  0.82701913  0.43394674  0.16478728  1  0.4095  -0.027181  3.881685  -0.02  0.381647  -0.004138  4.162808  -0.003  0.40838  -0.003913  4.166379  -0.003  0.220343  0.361472  -0.005323  4.15886  -0.004
C  C51  1  0.32702422  0.56605420  0.33520999  1  0.409474  -0.027193  3.881675  -0.02  0.381693  -0.004139  4.162719  -0.003  0.408451  -0.003913  4.166254  -0.003  0.220302  0.361524  -0.005323  4.158749  -0.004
C  C52  1  0.85496317  0.79417202  0.68613650  1  0.749679  -0.014727  3.812098  -0.01  0.716546  0.000147  4.112289  0.002  0.756666  0.000924  4.102179  0.002  0.21721  0.686426  -0.001456  4.118087  0.0
C  C53  1  0.35496759  0.20583375  0.81386452  1  0.749614  -0.014728  3.812293  -0.01  0.71653  0.000146  4.112414  0.002  0.756654  0.000923  4.102274  0.002  0.217165  0.686408  -0.001457  4.118217  0.0
C  C54  1  0.14503235  0.20583519  0.31386519  1  0.749659  -0.01473  3.812217  -0.01  0.716559  0.000146  4.112355  0.002  0.756684  0.000923  4.102215  0.002  0.217175  0.686449  -0.001457  4.118143  0.0
C  C55  1  0.64502999  0.79416779  0.18613435  1  0.749659  -0.014726  3.812223  -0.01  0.716555  0.000147  4.112361  0.002  0.756676  0.000924  4.102235  0.002  0.217162  0.686439  -0.001455  4.118155  0.0
C  C56  1  0.70300127  0.80189917  0.87169366  1  -0.14403  0.005396  3.734067  0.008  -0.165488  0.002188  3.987307  0.003  -0.169525  0.001631  4.009684  0.003  -0.095629  -0.162411  0.0029  3.971966  0.004
C  C57  1  0.20301371  0.19810392  0.62830837  1  -0.144108  0.005407  3.734302  0.008  -0.165516  0.002188  3.987531  0.003  -0.169544  0.001632  4.009898  0.003  -0.095602  -0.162438  0.0029  3.972187  0.004
C  C58  1  0.29698809  0.19810430  0.12830838  1  -0.144023  0.005388  3.734232  0.008  -0.165432  0.002188  3.987449  0.003  -0.16946  0.001632  4.009817  0.003  -0.095584  -0.162351  0.0029  3.972097  0.004
C  C59  1  0.79699824  0.80189767  0.37169359  1  -0.144033  0.005401  3.734126  0.008  -0.165432  0.002187  3.987338  0.003  -0.169468  0.001632  4.009711  0.003  -0.0956  -0.162362  0.0029  3.971995  0.004
C  C60  1  0.84890381  0.85618825  0.92820742  1  -0.078628  -0.007062  3.808444  -0.005  -0.097086  -0.001773  4.068142  -0.001  -0.099424  -0.001866  4.091809  -0.001  -0.101737  -0.09555  -0.001903  4.051982  -0.001
C  C61  1  0.34892109  0.14381286  0.57179493  1  -0.078619  -0.007078  3.808449  -0.005  -0.097024  -0.001773  4.068111  -0.001  -0.099364  -0.001865  4.091779  -0.001  -0.101742  -0.095482  -0.001903  4.051943  -0.001
C  C62  1  0.15108145  0.14381242  0.07179552  1  -0.078638  -0.007038  3.808539  -0.005  -0.097063  -0.001773  4.068215  -0.001  -0.099404  -0.001866  4.091882  -0.001  -0.101744  -0.095525  -0.001903  4.05205  -0.001
C  C63  1  0.65109703  0.85618687  0.42820848  1  -0.078645  -0.007065  3.808477  -0.005  -0.097097  -0.001773  4.068154  -0.001  -0.099436  -0.001866  4.091823  -0.001  -0.101736  -0.09556  -0.001903  4.051985  -0.001
C  C64  1  0.59110802  0.73456863  0.00508060  1  -0.152613  -0.0068  3.727386  -0.004  -0.174327  -0.001398  3.983517  -0.001  -0.176964  -0.00161  4.004378  -0.001  -0.098526  -0.17257  -0.001381  3.969419  -0.001
C  C65  1  0.09112278  0.26542786  0.49492022  1  -0.152765  -0.006818  3.727468  -0.004  -0.174521  -0.001398  3.983614  -0.001  -0.177146  -0.001609  4.004483  -0.001  -0.098546  -0.172767  -0.001381  3.96952  -0.001
C  C66  1  0.40887929  0.26542732  0.99492007  1  -0.152838  -0.006776  3.727447  -0.004  -0.174564  -0.001397  3.983603  -0.001  -0.177196  -0.001608  4.004466  -0.001  -0.098558  -0.172811  -0.001381  3.969516  -0.001
C  C67  1  0.90889123  0.73456810  0.50508097  1  -0.152628  -0.006807  3.727474  -0.004  -0.174361  -0.001397  3.983593  -0.001  -0.176999  -0.001609  4.004458  -0.001  -0.098505  -0.172608  -0.001381  3.969505  -0.001
C  C68  1  0.79324324  0.82270738  0.99500416  1  -0.06341  0.00547  3.793696  0.007  -0.083017  0.001834  4.054187  0.002  -0.085302  0.001434  4.07694  0.002  -0.099091  -0.081159  0.00286  4.038445  0.003
C  C69  1  0.29326312  0.17729284  0.50499820  1  -0.063402  0.005479  3.793426  0.007  -0.082979  0.001835  4.053912  0.002  -0.08526  0.001434  4.076663  0.002  -0.099102  -0.081127  0.00286  4.038168  0.003
C  C70  1  0.20673996  0.17729329  0.00499879  1  -0.063415  0.005461  3.793558  0.007  -0.082989  0.001834  4.05405  0.002  -0.085271  0.001434  4.076803  0.002  -0.09913  -0.081141  0.002859  4.038317  0.003
C  C71  1  0.70675293  0.82270689  0.49500471  1  -0.063376  0.005474  3.79369  0.007  -0.082981  0.001834  4.054179  0.002  -0.085267  0.001434  4.076935  0.002  -0.099092  -0.081126  0.002859  4.038441  0.003
C  C72  1  0.99387141  0.91770352  0.67818109  1  -0.46896  0.003617  3.679113  0.006  -0.547761  0.002197  3.911769  0.003  -0.556377  0.001299  3.913702  0.002  -0.246337  -0.541284  0.003161  3.910706  0.005
C  C73  1  0.49387616  0.08230216  0.82182035  1  -0.46891  0.003617  3.679162  0.006  -0.547693  0.002197  3.91175  0.003  -0.556313  0.001299  3.913677  0.002  -0.24628  -0.541215  0.003161  3.910687  0.005
C  C74  1  0.00612617  0.08230276  0.32182056  1  -0.468977  0.003616  3.679198  0.006  -0.547769  0.002197  3.911824  0.003  -0.556394  0.001299  3.91375  0.002  -0.246337  -0.541296  0.003161  3.910763  0.005
C  C75  1  0.50612553  0.91770223  0.17818019  1  -0.468883  0.003617  3.679177  0.006  -0.547698  0.002197  3.911813  0.003  -0.556309  0.001299  3.913735  0.002  -0.246294  -0.541222  0.003161  3.910752  0.005
N  N76  1  0.35163794  0.65656653  0.82471268  1  -0.466443  0.052935  3.23789  0.09  -0.438446  0.03626  3.538687  0.055  -0.469083  0.028342  3.547626  0.043  -0.346314  -0.414292  0.043836  3.532698  0.066
N  N77  1  0.85163921  0.34343545  0.67528509  1  -0.466393  0.052937  3.237907  0.09  -0.438321  0.036259  3.538704  0.055  -0.468962  0.028341  3.547662  0.043  -0.346242  -0.414168  0.043836  3.532709  0.066
N  N78  1  0.64836579  0.34343499  0.17528464  1  -0.466423  0.052931  3.237902  0.09  -0.438355  0.036259  3.538674  0.055  -0.468999  0.02834  3.547646  0.043  -0.346298  -0.41421  0.043835  3.532689  0.066
N  N79  1  0.14836247  0.65656609  0.32471326  1  -0.46645  0.052936  3.237722  0.09  -0.438416  0.036261  3.538521  0.055  -0.46905  0.028341  3.547447  0.043  -0.346295  -0.414269  0.043838  3.532526  0.066
N  N80  1  0.24647551  0.58921270  0.95772370  1  -0.377619  -0.002301  3.393264  -0.002  -0.318399  -5.1e-05  3.622718  0.0  -0.337743  6.8e-05  3.633081  0.0  -0.370594  -0.306141  -0.000524  3.61672  0.0
N  N81  1  0.74647992  0.41078090  0.54227273  1  -0.377726  -0.002304  3.393281  -0.002  -0.318521  -5.1e-05  3.622738  0.0  -0.337862  6.8e-05  3.633095  0.0  -0.370759  -0.306259  -0.000524  3.61674  0.0
N  N82  1  0.75351796  0.41077943  0.04227268  1  -0.377823  -0.002298  3.393301  -0.002  -0.318589  -5.1e-05  3.622782  0.0  -0.33793  6.8e-05  3.63314  0.0  -0.37078  -0.306333  -0.000523  3.616779  0.0
N  N83  1  0.25352587  0.58921312  0.45772477  1  -0.377509  -0.002301  3.393147  -0.002  -0.318256  -5.1e-05  3.622512  0.0  -0.3376  6.8e-05  3.632874  0.0  -0.370531  -0.306006  -0.000524  3.616516  0.0
O  O84  1  0.04723385  0.51011510  0.78357552  1  -0.557869  0.056276  2.253527  0.095  -0.52864  0.042709  2.549705  0.065  -0.569752  0.031993  2.543858  0.048  -0.290475  -0.492864  0.053925  2.550553  0.082
O  O85  1  0.54723013  0.48988711  0.71642142  1  -0.557904  0.056273  2.253483  0.095  -0.528674  0.042708  2.549716  0.065  -0.569787  0.031993  2.543893  0.048  -0.290481  -0.492896  0.053924  2.550552  0.082
O  O86  1  0.95277194  0.48988454  0.21642120  1  -0.557844  0.056276  2.253478  0.095  -0.528605  0.042708  2.549698  0.065  -0.569718  0.031994  2.543874  0.048  -0.290474  -0.492825  0.053923  2.550542  0.082
O  O87  1  0.45277156  0.51011346  0.28357483  1  -0.557825  0.056278  2.25338  0.095  -0.528643  0.04271  2.549611  0.065  -0.569759  0.031994  2.543759  0.048  -0.290482  -0.49288  0.053927  2.550462  0.082
O  O88  1  0.92920579  0.44511229  0.91142493  1  -0.544742  0.006532  1.99798  0.013  -0.508034  0.007912  2.234598  0.014  -0.5311  0.005778  2.227189  0.011  -0.282501  -0.490167  0.010327  2.238861  0.017
O  O89  1  0.42921334  0.55487835  0.58857073  1  -0.544691  0.006528  1.99823  0.013  -0.508059  0.00791  2.234878  0.014  -0.531122  0.005775  2.227461  0.011  -0.282544  -0.490211  0.010323  2.239174  0.017
O  O90  1  0.07078768  0.55487703  0.08857132  1  -0.544669  0.006529  1.998217  0.013  -0.508038  0.00791  2.234869  0.014  -0.531098  0.005775  2.22745  0.011  -0.282523  -0.490193  0.010324  2.239158  0.017
O  O91  1  0.57078834  0.44511283  0.41142458  1  -0.544743  0.006531  1.998144  0.013  -0.508063  0.007912  2.234775  0.014  -0.53113  0.005777  2.227366  0.011  -0.282523  -0.490213  0.010326  2.23904  0.017
O  O92  1  0.59236338  0.79452180  0.69105692  1  -0.643645  0.050755  2.056003  0.087  -0.608471  0.038567  2.339363  0.06  -0.648171  0.028504  2.323477  0.044  -0.319287  -0.575721  0.048652  2.349506  0.075
O  O93  1  0.09236785  0.20548228  0.80894265  1  -0.643662  0.050755  2.056053  0.087  -0.608513  0.038566  2.339399  0.06  -0.64824  0.028503  2.323564  0.044  -0.319291  -0.575767  0.048652  2.349547  0.075
O  O94  1  0.40763420  0.20548164  0.30894306  1  -0.64367  0.050756  2.056037  0.087  -0.608504  0.038567  2.339378  0.06  -0.648229  0.028503  2.323532  0.044  -0.319289  -0.575765  0.048652  2.349525  0.075
O  O95  1  0.90763178  0.79451928  0.19105673  1  -0.643677  0.050758  2.056016  0.087  -0.608521  0.038569  2.339376  0.06  -0.648249  0.028506  2.323545  0.044  -0.319297  -0.57577  0.048653  2.349524  0.075
O  O96  1  0.99438101  0.69415338  0.68851916  1  -0.631317  0.036096  2.106097  0.06  -0.599548  0.029737  2.398328  0.043  -0.635272  0.022547  2.379829  0.032  -0.313784  -0.569688  0.037062  2.409914  0.055
O  O97  1  0.49438718  0.30585135  0.81148172  1  -0.631261  0.036097  2.106268  0.06  -0.599502  0.029737  2.398474  0.043  -0.635254  0.022547  2.380028  0.032  -0.313767  -0.56965  0.037061  2.410069  0.055
O  O98  1  0.00561451  0.30585289  0.31148197  1  -0.63132  0.036095  2.106266  0.06  -0.599555  0.029737  2.398482  0.043  -0.635307  0.022547  2.380031  0.032  -0.313789  -0.569712  0.03706  2.410082  0.055
O  O99  1  0.50561039  0.69415111  0.18851564  1  -0.631319  0.036092  2.106256  0.06  -0.599531  0.029736  2.398443  0.043  -0.63526  0.022547  2.379959  0.032  -0.313725  -0.569674  0.037058  2.410038  0.055
