# generated using pymatgen
data_CaH12C9O10
_symmetry_space_group_name_H-M   'P 1'
_cell_length_a   7.37477549
_cell_length_b   10.12433439
_cell_length_c   16.44165564
_cell_angle_alpha   89.99975427
_cell_angle_beta   89.99979216
_cell_angle_gamma   102.28908415
_symmetry_Int_Tables_number   1
_chemical_formula_structural   CaH12C9O10
_chemical_formula_sum   'Ca4 H48 C36 O40'
_cell_volume   1199.48186440
_cell_formula_units_Z   4
loop_
 _symmetry_equiv_pos_site_id
 _symmetry_equiv_pos_as_xyz
  1  'x, y, z'
loop_
 _atom_site_type_symbol
 _atom_site_label
 _atom_site_symmetry_multiplicity
 _atom_site_fract_x
 _atom_site_fract_y
 _atom_site_fract_z
 _atom_site_occupancy
 _atom_site_hle17_bader_spin_density
 _atom_site_hle17_ddec_charge
 _atom_site_hle17_ddec_spin_density
 _atom_site_hle17_ddec_sum_bond_order
 _atom_site_hle17_magmom
 _atom_site_hse06_10hf_bader_spin_density
 _atom_site_hse06_10hf_ddec_charge
 _atom_site_hse06_10hf_ddec_spin_density
 _atom_site_hse06_10hf_ddec_sum_bond_order
 _atom_site_hse06_10hf_magmom
 _atom_site_hse06_bader_spin_density
 _atom_site_hse06_ddec_charge
 _atom_site_hse06_ddec_spin_density
 _atom_site_hse06_ddec_sum_bond_order
 _atom_site_hse06_magmom
 _atom_site_pbe_bader_spin_density
 _atom_site_pbe_cm5_charge
 _atom_site_pbe_ddec_charge
 _atom_site_pbe_ddec_spin_density
 _atom_site_pbe_ddec_sum_bond_order
 _atom_site_pbe_magmom
Ca  Ca0  1  0.62373288  0.75239543  0.59411201  1  0  1.603146  0  1.0391  0  0  1.482297  0  1.381937  0  0  1.522297  0  1.336155  0  0  0.87679  1.452031  0  1.414903  0
Ca  Ca1  1  0.87626129  0.24760586  0.09411172  1  0  1.603209  0  1.039105  0  0  1.482382  0  1.381906  0  0  1.522382  0  1.336119  0  0  0.87681  1.452117  0  1.414876  0
Ca  Ca2  1  0.37626457  0.24760859  0.40588853  1  0  1.603169  0  1.03915  0  0  1.482359  0  1.381928  0  0  1.522359  0  1.336145  0  0  0.876807  1.452095  0  1.414896  0
Ca  Ca3  1  0.12373981  0.75239209  0.90589064  1  0  1.603165  0  1.039136  0  0  1.482327  0  1.38197  0  0  1.522325  0  1.336187  0  0  0.87682  1.452061  0  1.414936  0
H  H4  1  0.81327971  0.98220998  0.24132043  1  0  0.103501  0  0.96224  0  0  0.110927  0  1.030076  0  0  0.115139  0  1.025656  0  0  0.117061  0.107642  0  1.033843  0
H  H5  1  0.68673311  0.01779410  0.74132133  1  0  0.103513  0  0.962232  0  0  0.110971  0  1.030034  0  0  0.115177  0  1.025633  0  0  0.117061  0.107681  0  1.033797  0
H  H6  1  0.18672829  0.01779303  0.75867950  1  0  0.103536  0  0.962198  0  0  0.111017  0  1.029985  0  0  0.115219  0  1.025596  0  0  0.117093  0.107729  0  1.033748  0
H  H7  1  0.31327236  0.98220487  0.25867920  1  0  0.103513  0  0.962214  0  0  0.110962  0  1.030027  0  0  0.115169  0  1.025623  0  0  0.117091  0.107674  0  1.033792  0
H  H8  1  0.55496513  0.63119998  0.10410744  1  0  0.101064  0  0.959038  0  0  0.108352  0  1.027533  0  0  0.112624  0  1.023159  0  0  0.111307  0.105188  0  1.030848  0
H  H9  1  0.94504019  0.36880729  0.60410941  1  0  0.101052  0  0.959071  0  0  0.108367  0  1.027547  0  0  0.11264  0  1.023171  0  0  0.111261  0.1052  0  1.030861  0
H  H10  1  0.44503503  0.36880404  0.89588945  1  0  0.101047  0  0.95906  0  0  0.108391  0  1.027499  0  0  0.112668  0  1.023117  0  0  0.11129  0.105222  0  1.030812  0
H  H11  1  0.05495785  0.63119874  0.39589234  1  0  0.101001  0  0.959173  0  0  0.108325  0  1.027633  0  0  0.112597  0  1.023259  0  0  0.111267  0.10516  0  1.030947  0
H  H12  1  0.54795913  0.61661682  0.36526912  1  0  0.113653  0  0.952252  0  0  0.11977  0  1.019803  0  0  0.124549  0  1.015036  0  0  0.118302  0.116249  0  1.023288  0
H  H13  1  0.95202618  0.38338921  0.86527225  1  0  0.113617  0  0.952299  0  0  0.119835  0  1.019722  0  0  0.124613  0  1.014956  0  0  0.118349  0.116315  0  1.023206  0
H  H14  1  0.45202582  0.38338618  0.63472838  1  0  0.113643  0  0.952317  0  0  0.119864  0  1.019737  0  0  0.124642  0  1.014971  0  0  0.118362  0.116345  0  1.023222  0
H  H15  1  0.04795877  0.61661379  0.13473011  1  0  0.113609  0  0.952249  0  0  0.119758  0  1.019776  0  0  0.124539  0  1.015002  0  0  0.118298  0.116235  0  1.023259  0
H  H16  1  0.67939293  0.92000577  0.97613896  1  0  0.407691  0  0.875632  0  0  0.372152  0  0.957625  0  0  0.386397  0  0.942305  0  0  0.310101  0.362137  0  0.968316  0
H  H17  1  0.82061341  0.07999628  0.47614164  1  0  0.407691  0  0.875551  0  0  0.372168  0  0.957529  0  0  0.386402  0  0.942231  0  0  0.310083  0.362157  0  0.968223  0
H  H18  1  0.32061070  0.07999622  0.02385975  1  0  0.407666  0  0.87558  0  0  0.372136  0  0.957569  0  0  0.386381  0  0.942251  0  0  0.310076  0.362125  0  0.968261  0
H  H19  1  0.17939011  0.92000066  0.52385951  1  0  0.407676  0  0.875551  0  0  0.372133  0  0.95757  0  0  0.386383  0  0.942242  0  0  0.310095  0.362124  0  0.968256  0
H  H20  1  0.93559575  0.60460574  0.59245699  1  0  0.433288  0  0.867993  0  0  0.397848  0  0.938592  0  0  0.408623  0  0.92291  0  0  0.300279  0.390139  0  0.949858  0
H  H21  1  0.56440221  0.39539456  0.09245684  1  0  0.433279  0  0.868006  0  0  0.397836  0  0.938614  0  0  0.408611  0  0.92293  0  0  0.30028  0.390127  0  0.949881  0
H  H22  1  0.06440595  0.39539424  0.40754476  1  0  0.433339  0  0.867928  0  0  0.397899  0  0.938529  0  0  0.408674  0  0.922847  0  0  0.300311  0.390193  0  0.949791  0
H  H23  1  0.43559842  0.60460643  0.90754248  1  0  0.433264  0  0.868022  0  0  0.397817  0  0.938636  0  0  0.408592  0  0.922953  0  0  0.300261  0.390108  0  0.949902  0
H  H24  1  0.92801361  0.68496425  0.51117554  1  0  0.426715  0  0.849326  0  0  0.397125  0  0.922136  0  0  0.406456  0  0.908198  0  0  0.312631  0.39046  0  0.932112  0
H  H25  1  0.57199030  0.31503573  0.01117681  1  0  0.426734  0  0.849321  0  0  0.397139  0  0.922124  0  0  0.406469  0  0.908187  0  0  0.312632  0.390474  0  0.932098  0
H  H26  1  0.07199368  0.31503168  0.48882499  1  0  0.426712  0  0.849314  0  0  0.397125  0  0.922132  0  0  0.406454  0  0.908197  0  0  0.312644  0.39046  0  0.932107  0
H  H27  1  0.42801410  0.68496424  0.98882373  1  0  0.42673  0  0.849307  0  0  0.397134  0  0.922125  0  0  0.406465  0  0.908186  0  0  0.312637  0.390468  0  0.932101  0
H  H28  1  0.31001685  0.52024925  0.50327197  1  0  0.44038  0  0.848136  0  0  0.415578  0  0.900436  0  0  0.425196  0  0.886309  0  0  0.305372  0.408687  0  0.910569  0
H  H29  1  0.18998176  0.47974882  0.00327078  1  0  0.440539  0  0.847916  0  0  0.415664  0  0.900318  0  0  0.425313  0  0.886152  0  0  0.305387  0.408774  0  0.910449  0
H  H30  1  0.68997883  0.47974870  0.49672978  1  0  0.440541  0  0.847911  0  0  0.415675  0  0.900299  0  0  0.425322  0  0.886136  0  0  0.305394  0.408785  0  0.91043  0
H  H31  1  0.81001092  0.52024812  0.99672793  1  0  0.440521  0  0.847965  0  0  0.415635  0  0.90039  0  0  0.425285  0  0.88622  0  0  0.305388  0.408743  0  0.910523  0
H  H32  1  0.26451091  0.57256980  0.58785710  1  0  0.416889  0  0.891566  0  0  0.385188  0  0.957196  0  0  0.395532  0  0.942017  0  0  0.297783  0.377909  0  0.967857  0
H  H33  1  0.23548588  0.42743360  0.08785779  1  0  0.416802  0  0.891668  0  0  0.385145  0  0.957213  0  0  0.395487  0  0.942037  0  0  0.297762  0.377872  0  0.967864  0
H  H34  1  0.73548942  0.42743017  0.41214344  1  0  0.416786  0  0.891692  0  0  0.385075  0  0.957348  0  0  0.39542  0  0.942168  0  0  0.297707  0.377797  0  0.968008  0
H  H35  1  0.76450797  0.57256738  0.91214153  1  0  0.416826  0  0.891651  0  0  0.385171  0  0.957187  0  0  0.395514  0  0.94201  0  0  0.297782  0.377897  0  0.96784  0
H  H36  1  0.32763234  0.88545098  0.64963022  1  0  0.425616  0  0.876705  0  0  0.392368  0  0.944206  0  0  0.402769  0  0.929042  0  0  0.30447  0.385004  0  0.954963  0
H  H37  1  0.17237437  0.11455089  0.14963184  1  0  0.425618  0  0.876708  0  0  0.392369  0  0.94421  0  0  0.402771  0  0.929045  0  0  0.304507  0.385003  0  0.954969  0
H  H38  1  0.67237147  0.11454698  0.35037032  1  0  0.425634  0  0.876685  0  0  0.392391  0  0.944175  0  0  0.402789  0  0.929016  0  0  0.304497  0.385027  0  0.954932  0
H  H39  1  0.82763032  0.88545010  0.85036931  1  0  0.425497  0  0.876852  0  0  0.39224  0  0.944375  0  0  0.402642  0  0.92921  0  0  0.304425  0.384871  0  0.955138  0
H  H40  1  0.25613752  0.72934135  0.67235873  1  0  0.420602  0  0.890489  0  0  0.385724  0  0.959405  0  0  0.398043  0  0.941601  0  0  0.30003  0.376937  0  0.972123  0
H  H41  1  0.24386460  0.27065931  0.17235860  1  0  0.420741  0  0.890277  0  0  0.385806  0  0.959306  0  0  0.39813  0  0.941492  0  0  0.300063  0.37702  0  0.972024  0
H  H42  1  0.74386765  0.27065660  0.32764363  1  0  0.420599  0  0.890484  0  0  0.385711  0  0.959423  0  0  0.39803  0  0.941617  0  0  0.300001  0.376924  0  0.97214  0
H  H43  1  0.75613438  0.72934067  0.82764011  1  0  0.420702  0  0.890333  0  0  0.385767  0  0.959363  0  0  0.398091  0  0.941548  0  0  0.300051  0.376979  0  0.972082  0
H  H44  1  0.89684894  0.83525748  0.72700035  1  0  0.431452  0  0.871887  0  0  0.402562  0  0.932565  0  0  0.413555  0  0.91631  0  0  0.295703  0.394676  0  0.94425  0
H  H45  1  0.60315112  0.16473964  0.22700074  1  0  0.431398  0  0.871954  0  0  0.402491  0  0.932654  0  0  0.413493  0  0.916391  0  0  0.295666  0.394605  0  0.944336  0
H  H46  1  0.10315216  0.16474047  0.27300140  1  0  0.431492  0  0.871837  0  0  0.402583  0  0.932541  0  0  0.413583  0  0.91628  0  0  0.295697  0.394698  0  0.944224  0
H  H47  1  0.39685134  0.83525832  0.77300040  1  0  0.431401  0  0.871955  0  0  0.402497  0  0.932651  0  0  0.413497  0  0.91639  0  0  0.295678  0.394611  0  0.944334  0
H  H48  1  0.00824862  0.91355979  0.65047769  1  0  0.425208  0  0.880674  0  0  0.39245  0  0.946713  0  0  0.402842  0  0.931611  0  0  0.293656  0.385128  0  0.957365  0
H  H49  1  0.49175284  0.08643802  0.15047884  1  0  0.425241  0  0.880621  0  0  0.392458  0  0.946699  0  0  0.402848  0  0.931597  0  0  0.293664  0.385134  0  0.957352  0
H  H50  1  0.99175461  0.08643614  0.34952285  1  0  0.42521  0  0.880668  0  0  0.392467  0  0.94668  0  0  0.402857  0  0.93158  0  0  0.293662  0.385143  0  0.957333  0
H  H51  1  0.50824855  0.91356094  0.84952109  1  0  0.425219  0  0.880647  0  0  0.392437  0  0.946723  0  0  0.402828  0  0.931622  0  0  0.293654  0.385112  0  0.957378  0
C  C52  1  0.72539780  0.87305574  0.39481432  1  0  0.699896  0  3.850562  0  0  0.639116  0  4.155379  0  0  0.674075  0  4.14668  0  0  0.235062  0.615485  0  4.160466  0
C  C53  1  0.77460278  0.12694297  0.89481235  1  0  0.700015  0  3.850093  0  0  0.639097  0  4.155125  0  0  0.674087  0  4.146388  0  0  0.235071  0.61546  0  4.16022  0
C  C54  1  0.27459759  0.12694120  0.60518561  1  0  0.699732  0  3.850516  0  0  0.638924  0  4.155371  0  0  0.673899  0  4.146652  0  0  0.235047  0.615293  0  4.16046  0
C  C55  1  0.22539785  0.87305801  0.10518636  1  0  0.699956  0  3.850321  0  0  0.639137  0  4.155193  0  0  0.674104  0  4.146485  0  0  0.235081  0.615501  0  4.160286  0
C  C56  1  0.68442157  0.80751210  0.31283851  1  0  -0.092473  0  3.747487  0  0  -0.065688  0  3.988329  0  0  -0.077363  0  4.012924  0  0  -0.017297  -0.058221  0  3.971706  0
C  C57  1  0.81558191  0.19249439  0.81283873  1  0  -0.09236  0  3.747398  0  0  -0.065541  0  3.988316  0  0  -0.077225  0  4.012904  0  0  -0.017305  -0.05809  0  3.971718  0
C  C58  1  0.31557936  0.19248990  0.68716020  1  0  -0.092338  0  3.74749  0  0  -0.065533  0  3.988373  0  0  -0.077212  0  4.012963  0  0  -0.017258  -0.058068  0  3.971749  0
C  C59  1  0.18441766  0.80750760  0.18716059  1  0  -0.092566  0  3.747444  0  0  -0.065762  0  3.988323  0  0  -0.077441  0  4.012917  0  0  -0.01731  -0.058299  0  3.971707  0
C  C60  1  0.73764085  0.87758434  0.24051414  1  0  -0.035261  0  3.671791  0  0  -0.076703  0  3.924641  0  0  -0.071405  0  3.942625  0  0  -0.062242  -0.080204  0  3.91332  0
C  C61  1  0.76235871  0.12242075  0.74051525  1  0  -0.035304  0  3.671796  0  0  -0.076785  0  3.924645  0  0  -0.071488  0  3.942623  0  0  -0.062217  -0.080275  0  3.913323  0
C  C62  1  0.26235524  0.12241968  0.75948335  1  0  -0.035311  0  3.671891  0  0  -0.07685  0  3.9248  0  0  -0.071557  0  3.942779  0  0  -0.06231  -0.080341  0  3.913468  0
C  C63  1  0.23763485  0.87757922  0.25948468  1  0  -0.035208  0  3.671783  0  0  -0.076693  0  3.924661  0  0  -0.071395  0  3.942641  0  0  -0.062246  -0.080189  0  3.91334  0
C  C64  1  0.69034181  0.81496237  0.16509546  1  0  -0.091351  0  3.761969  0  0  -0.066332  0  4.001712  0  0  -0.078534  0  4.026464  0  0  -0.0157  -0.058516  0  3.985453  0
C  C65  1  0.80966849  0.18504034  0.66509632  1  0  -0.091422  0  3.762031  0  0  -0.066363  0  4.001755  0  0  -0.078564  0  4.026503  0  0  -0.015691  -0.058548  0  3.985492  0
C  C66  1  0.30966183  0.18503963  0.83490264  1  0  -0.091435  0  3.762081  0  0  -0.066381  0  4.001804  0  0  -0.078581  0  4.026555  0  0  -0.015698  -0.058565  0  3.985541  0
C  C67  1  0.19033757  0.81496065  0.33490421  1  0  -0.091317  0  3.762053  0  0  -0.06626  0  4.001763  0  0  -0.078465  0  4.026514  0  0  -0.015664  -0.058443  0  3.985502  0
C  C68  1  0.59182089  0.68085891  0.16227971  1  0  -0.035158  0  3.666829  0  0  -0.075782  0  3.918484  0  0  -0.0706  0  3.936124  0  0  -0.064769  -0.07896  0  3.90669  0
C  C69  1  0.90818372  0.31914281  0.66228248  1  0  -0.035111  0  3.666726  0  0  -0.075786  0  3.918407  0  0  -0.070604  0  3.936045  0  0  -0.06478  -0.07896  0  3.906608  0
C  C70  1  0.40818110  0.31914207  0.83771596  1  0  -0.035112  0  3.666731  0  0  -0.075789  0  3.918413  0  0  -0.070608  0  3.936051  0  0  -0.06477  -0.078957  0  3.90661  0
C  C71  1  0.09181904  0.68085616  0.33771927  1  0  -0.035158  0  3.666708  0  0  -0.075823  0  3.918372  0  0  -0.070644  0  3.936016  0  0  -0.064767  -0.079  0  3.906575  0
C  C72  1  0.54248070  0.60876664  0.23441248  1  0  -0.086734  0  3.752836  0  0  -0.061772  0  3.996085  0  0  -0.072936  0  4.020133  0  0  -0.016947  -0.054708  0  3.980051  0
C  C73  1  0.95751321  0.39123748  0.73441315  1  0  -0.086878  0  3.752713  0  0  -0.061871  0  3.995963  0  0  -0.073036  0  4.020013  0  0  -0.016942  -0.054806  0  3.979927  0
C  C74  1  0.45751180  0.39123434  0.76558501  1  0  -0.086763  0  3.752696  0  0  -0.061799  0  3.99596  0  0  -0.072964  0  4.020009  0  0  -0.016947  -0.054735  0  3.979926  0
C  C75  1  0.04247551  0.60876451  0.26558616  1  0  -0.086695  0  3.752711  0  0  -0.061688  0  3.996011  0  0  -0.072855  0  4.020058  0  0  -0.016943  -0.054621  0  3.97998  0
C  C76  1  0.58799651  0.67260691  0.30922660  1  0  -0.031893  0  3.662299  0  0  -0.071606  0  3.910603  0  0  -0.066572  0  3.927626  0  0  -0.058536  -0.074162  0  3.898659  0
C  C77  1  0.91200642  0.32739759  0.80923056  1  0  -0.031856  0  3.662183  0  0  -0.071644  0  3.91046  0  0  -0.066611  0  3.927487  0  0  -0.058561  -0.074199  0  3.898525  0
C  C78  1  0.41200654  0.32739306  0.69076907  1  0  -0.031927  0  3.662256  0  0  -0.071712  0  3.910528  0  0  -0.066681  0  3.92756  0  0  -0.058595  -0.074278  0  3.898607  0
C  C79  1  0.08798878  0.67260339  0.19077180  1  0  -0.031801  0  3.662275  0  0  -0.071543  0  3.91055  0  0  -0.066509  0  3.927579  0  0  -0.058513  -0.074094  0  3.898604  0
C  C80  1  0.74278590  0.89668847  0.09010469  1  0  0.682914  0  3.791829  0  0  0.633552  0  4.083265  0  0  0.668241  0  4.073311  0  0  0.250785  0.609857  0  4.089744  0
C  C81  1  0.75721993  0.10331083  0.59010707  1  0  0.683066  0  3.791882  0  0  0.633696  0  4.083324  0  0  0.668385  0  4.073363  0  0  0.250832  0.610001  0  4.089804  0
C  C82  1  0.25721521  0.10330948  0.90989220  1  0  0.682982  0  3.791941  0  0  0.633657  0  4.08333  0  0  0.66834  0  4.07338  0  0  0.250792  0.609962  0  4.089811  0
C  C83  1  0.24278283  0.89668813  0.40989225  1  0  0.682885  0  3.792048  0  0  0.63354  0  4.083465  0  0  0.668229  0  4.073509  0  0  0.250744  0.609844  0  4.089945  0
C  C84  1  0.43823603  0.46422883  0.23266658  1  0  0.693006  0  3.863624  0  0  0.635715  0  4.161587  0  0  0.670189  0  4.153769  0  0  0.234147  0.612011  0  4.166666  0
C  C85  1  0.06176347  0.53577839  0.73267059  1  0  0.693013  0  3.863754  0  0  0.635691  0  4.161757  0  0  0.670165  0  4.15394  0  0  0.234144  0.611987  0  4.166835  0
C  C86  1  0.56176325  0.53577216  0.76732787  1  0  0.692949  0  3.863829  0  0  0.635697  0  4.161723  0  0  0.670171  0  4.153905  0  0  0.234147  0.611991  0  4.166804  0
C  C87  1  0.93823474  0.46422360  0.26733542  1  0  0.692902  0  3.863664  0  0  0.63547  0  4.161849  0  0  0.669952  0  4.154025  0  0  0.234009  0.611753  0  4.166941  0
O  O88  1  0.69188107  0.80047235  0.45697424  1  0  -0.677863  0  1.997259  0  0  -0.622988  0  2.250842  0  0  -0.649416  0  2.240456  0  0  -0.356988  -0.604434  0  2.257479  0
O  O89  1  0.80811810  0.19952784  0.95697932  1  0  -0.677994  0  1.996803  0  0  -0.623094  0  2.250486  0  0  -0.649534  0  2.240085  0  0  -0.357044  -0.60454  0  2.257132  0
O  O90  1  0.30812033  0.19952661  0.54302326  1  0  -0.677834  0  1.997093  0  0  -0.622975  0  2.250715  0  0  -0.649407  0  2.24032  0  0  -0.35702  -0.604421  0  2.257356  0
O  O91  1  0.19188223  0.80047213  0.04302426  1  0  -0.677889  0  1.996998  0  0  -0.623013  0  2.25062  0  0  -0.649443  0  2.240229  0  0  -0.356999  -0.604457  0  2.257261  0
O  O92  1  0.79341178  0.00211852  0.39659929  1  0  -0.672296  0  2.086279  0  0  -0.593675  0  2.302735  0  0  -0.621276  0  2.290843  0  0  -0.302541  -0.574504  0  2.310538  0
O  O93  1  0.70659208  0.99788219  0.89659758  1  0  -0.67231  0  2.086282  0  0  -0.593611  0  2.302808  0  0  -0.621228  0  2.290897  0  0  -0.302528  -0.57442  0  2.310599  0
O  O94  1  0.20659038  0.99787842  0.60340186  1  0  -0.672213  0  2.086377  0  0  -0.593554  0  2.302847  0  0  -0.62117  0  2.290942  0  0  -0.302538  -0.574395  0  2.310663  0
O  O95  1  0.29341156  0.00211980  0.10340174  1  0  -0.672302  0  2.086297  0  0  -0.593641  0  2.30277  0  0  -0.621252  0  2.290869  0  0  -0.302553  -0.574465  0  2.310574  0
O  O96  1  0.86644807  0.00068459  0.09006866  1  0  -0.619689  0  2.006543  0  0  -0.572402  0  2.245805  0  0  -0.59548  0  2.236106  0  0  -0.309754  -0.556247  0  2.252151  0
O  O97  1  0.63355816  0.99932078  0.59006950  1  0  -0.619707  0  2.00655  0  0  -0.572415  0  2.245838  0  0  -0.595491  0  2.236138  0  0  -0.309743  -0.55626  0  2.252181  0
O  O98  1  0.13355828  0.99931740  0.90993309  1  0  -0.61967  0  2.006608  0  0  -0.572385  0  2.245853  0  0  -0.595458  0  2.236158  0  0  -0.309725  -0.556231  0  2.252198  0
O  O99  1  0.36644848  0.00068223  0.40992982  1  0  -0.619638  0  2.006603  0  0  -0.572356  0  2.245871  0  0  -0.595434  0  2.236174  0  0  -0.309707  -0.556201  0  2.252215  0
O  O100  1  0.39943811  0.40900492  0.16209411  1  0  -0.684513  0  2.067861  0  0  -0.606266  0  2.28112  0  0  -0.633511  0  2.268749  0  0  -0.308032  -0.587015  0  2.289656  0
O  O101  1  0.10056105  0.59100392  0.66209548  1  0  -0.684468  0  2.067913  0  0  -0.606208  0  2.281162  0  0  -0.633452  0  2.268801  0  0  -0.30796  -0.586956  0  2.289697  0
O  O102  1  0.60055615  0.59100213  0.83790216  1  0  -0.684467  0  2.067896  0  0  -0.606225  0  2.281119  0  0  -0.633474  0  2.268752  0  0  -0.307974  -0.586974  0  2.289652  0
O  O103  1  0.89944182  0.40900010  0.33790871  1  0  -0.684409  0  2.067796  0  0  -0.606111  0  2.281108  0  0  -0.633355  0  2.268742  0  0  -0.307942  -0.586858  0  2.289648  0
O  O104  1  0.39206307  0.40390416  0.29854815  1  0  -0.668191  0  1.96607  0  0  -0.6098  0  2.210484  0  0  -0.636582  0  2.201655  0  0  -0.355072  -0.59088  0  2.216333  0
O  O105  1  0.10793068  0.59609440  0.79855070  1  0  -0.668137  0  1.966088  0  0  -0.609796  0  2.210608  0  0  -0.636575  0  2.201778  0  0  -0.355116  -0.590881  0  2.216457  0
O  O106  1  0.60793385  0.59608873  0.70144996  1  0  -0.668136  0  1.966173  0  0  -0.609796  0  2.210627  0  0  -0.636575  0  2.201797  0  0  -0.355108  -0.590879  0  2.216477  0
O  O107  1  0.89206022  0.40389647  0.20145470  1  0  -0.66816  0  1.966092  0  0  -0.609708  0  2.210569  0  0  -0.636493  0  2.201738  0  0  -0.355012  -0.590784  0  2.21642  0
O  O108  1  0.64360383  0.85168928  0.02439430  1  0  -0.559153  0  2.090052  0  0  -0.501911  0  2.311974  0  0  -0.524487  0  2.294619  0  0  -0.312672  -0.486173  0  2.323685  0
O  O109  1  0.85640278  0.14831564  0.52439517  1  0  -0.559213  0  2.08996  0  0  -0.502004  0  2.311899  0  0  -0.524573  0  2.294558  0  0  -0.312691  -0.486266  0  2.323607  0
O  O110  1  0.35639875  0.14831373  0.97560381  1  0  -0.559169  0  2.089918  0  0  -0.501986  0  2.311865  0  0  -0.52456  0  2.294511  0  0  -0.312683  -0.486249  0  2.323574  0
O  O111  1  0.14360463  0.85168534  0.47560475  1  0  -0.559159  0  2.089926  0  0  -0.501963  0  2.3119  0  0  -0.52454  0  2.294537  0  0  -0.312687  -0.486226  0  2.323608  0
O  O112  1  0.85059410  0.61987294  0.54768905  1  0  -0.869885  0  1.850359  0  0  -0.812016  0  2.038358  0  0  -0.832012  0  2.006671  0  0  -0.59461  -0.797702  0  2.060734  0
O  O113  1  0.64940779  0.38012572  0.04769001  1  0  -0.869896  0  1.850361  0  0  -0.81202  0  2.038355  0  0  -0.832019  0  2.006665  0  0  -0.594609  -0.797709  0  2.060737  0
O  O114  1  0.14940942  0.38012401  0.45231209  1  0  -0.869916  0  1.850332  0  0  -0.812079  0  2.038355  0  0  -0.83207  0  2.00666  0  0  -0.594666  -0.797765  0  2.060724  0
O  O115  1  0.35059496  0.61987324  0.95231053  1  0  -0.869882  0  1.850362  0  0  -0.812004  0  2.038364  0  0  -0.832002  0  2.006677  0  0  -0.594608  -0.797686  0  2.060732  0
O  O116  1  0.36235387  0.58611485  0.54573350  1  0  -0.895969  0  1.77812  0  0  -0.846096  0  1.954754  0  0  -0.865427  0  1.923255  0  0  -0.629429  -0.832034  0  1.976831  0
O  O117  1  0.13764141  0.41388690  0.04573378  1  0  -0.896057  0  1.778041  0  0  -0.846139  0  1.954764  0  0  -0.865499  0  1.923197  0  0  -0.629413  -0.832085  0  1.976849  0
O  O118  1  0.63764269  0.41388614  0.45426704  1  0  -0.896032  0  1.778023  0  0  -0.846092  0  1.954736  0  0  -0.865457  0  1.923171  0  0  -0.629373  -0.832037  0  1.976822  0
O  O119  1  0.86234943  0.58611307  0.95426614  1  0  -0.896046  0  1.778084  0  0  -0.846127  0  1.954826  0  0  -0.865489  0  1.923257  0  0  -0.629442  -0.832067  0  1.976904  0
O  O120  1  0.36949837  0.80604806  0.67211221  1  0  -0.882621  0  1.889123  0  0  -0.818974  0  2.078358  0  0  -0.841484  0  2.045226  0  0  -0.607996  -0.802696  0  2.101619  0
O  O121  1  0.13050346  0.19395159  0.17211247  1  0  -0.882735  0  1.88895  0  0  -0.819083  0  2.078222  0  0  -0.84159  0  2.045075  0  0  -0.608044  -0.802803  0  2.101487  0
O  O122  1  0.63050516  0.19394888  0.32788894  1  0  -0.882656  0  1.889116  0  0  -0.819022  0  2.078365  0  0  -0.841532  0  2.045237  0  0  -0.607985  -0.802744  0  2.101627  0
O  O123  1  0.86949658  0.80604737  0.82788806  1  0  -0.882589  0  1.889072  0  0  -0.818933  0  2.078322  0  0  -0.841439  0  2.045183  0  0  -0.607967  -0.802652  0  2.101592  0
O  O124  1  0.89026821  0.85432332  0.66772467  1  0  -0.922046  0  1.81941  0  0  -0.868772  0  2.01311  0  0  -0.889489  0  1.981274  0  0  -0.650909  -0.853143  0  2.035878  0
O  O125  1  0.60973305  0.14567633  0.16772449  1  0  -0.922012  0  1.819415  0  0  -0.868695  0  2.013156  0  0  -0.889425  0  1.981297  0  0  -0.650893  -0.853064  0  2.035927  0
O  O126  1  0.10973260  0.14567362  0.33227769  1  0  -0.922087  0  1.819376  0  0  -0.868821  0  2.013116  0  0  -0.889546  0  1.981262  0  0  -0.650927  -0.853191  0  2.035889  0
O  O127  1  0.39026835  0.85432263  0.83227604  1  0  -0.922009  0  1.819464  0  0  -0.868698  0  2.013205  0  0  -0.889423  0  1.981353  0  0  -0.650893  -0.853071  0  2.03598  0
