# generated using pymatgen
data_ZnH15C23(NO3)2
_symmetry_space_group_name_H-M   'P 1'
_cell_length_a   15.10349324
_cell_length_b   15.85767973
_cell_length_c   24.17043067
_cell_angle_alpha   89.99995724
_cell_angle_beta   90.00007329
_cell_angle_gamma   111.81904100
_symmetry_Int_Tables_number   1
_chemical_formula_structural   ZnH15C23(NO3)2
_chemical_formula_sum   'Zn8 H120 C184 N16 O48'
_cell_volume   5374.26355387
_cell_formula_units_Z   8
loop_
 _symmetry_equiv_pos_site_id
 _symmetry_equiv_pos_as_xyz
  1  'x, y, z'
loop_
 _atom_site_type_symbol
 _atom_site_label
 _atom_site_symmetry_multiplicity
 _atom_site_fract_x
 _atom_site_fract_y
 _atom_site_fract_z
 _atom_site_occupancy
 _atom_site_pbe_bader_charge
 _atom_site_pbe_bader_spin_density
 _atom_site_pbe_cm5_charge
 _atom_site_pbe_ddec_charge
 _atom_site_pbe_ddec_spin_density
 _atom_site_pbe_ddec_sum_bond_order
 _atom_site_pbe_magmom
Zn  Zn0  1  0.69212279  0.64248336  0.27568904  1  1.292883  0  0.693796  0.845228  0  2.376456  0
Zn  Zn1  1  0.30787655  0.85751594  0.77568779  1  1.292674  0  0.693824  0.845251  0  2.376472  0
Zn  Zn2  1  0.30787656  0.35751846  0.72431191  1  1.292704  0  0.693779  0.845165  0  2.37646  0
Zn  Zn3  1  0.69212384  0.14248178  0.22431234  1  1.29268  0  0.693767  0.84517  0  2.376472  0
Zn  Zn4  1  0.83652862  0.86479965  0.27541764  1  1.28757  0  0.681454  0.824612  0  2.369637  0
Zn  Zn5  1  0.16347085  0.63520169  0.77541596  1  1.287573  0  0.681447  0.824568  0  2.369623  0
Zn  Zn6  1  0.16347138  0.13520216  0.72458249  1  1.287584  0  0.681434  0.824575  0  2.369671  0
Zn  Zn7  1  0.83652822  0.36479604  0.22458292  1  1.287584  0  0.68147  0.824656  0  2.36957  0
H  H8  1  0.46689188  0.17546746  0.29872051  1  0.543286  0  0.303369  0.285324  0  1.013259  0
H  H9  1  0.53310746  0.32453138  0.79871946  1  0.543283  0  0.30338  0.285372  0  1.01324  0
H  H10  1  0.53310918  0.82453366  0.70127878  1  0.543282  0  0.303346  0.285297  0  1.013333  0
H  H11  1  0.46689267  0.67546906  0.20128026  1  0.543328  0  0.303376  0.28535  0  1.013251  0
H  H12  1  0.13266860  0.77555026  0.27360607  1  0.471973  0  0.317452  0.271085  0  0.955919  0
H  H13  1  0.86733152  0.72444767  0.77360575  1  0.471998  0  0.31749  0.271084  0  0.955951  0
H  H14  1  0.86733234  0.22445222  0.72639364  1  0.471934  0  0.317434  0.271048  0  0.955911  0
H  H15  1  0.13267006  0.27555141  0.22639355  1  0.471963  0  0.317463  0.271088  0  0.955915  0
H  H16  1  0.63977520  0.95693058  0.35436193  1  0.120705  0  0.104525  0.106786  0  1.023859  0
H  H17  1  0.36022428  0.54306868  0.85436129  1  0.120648  0  0.104519  0.106799  0  1.023855  0
H  H18  1  0.36022308  0.04306852  0.64563902  1  0.120676  0  0.104502  0.106771  0  1.023858  0
H  H19  1  0.63977425  0.45692769  0.14564008  1  0.120746  0  0.104495  0.10677  0  1.023777  0
H  H20  1  0.46900003  0.67141180  0.35614386  1  0.087187  0  0.105736  0.107659  0  1.00977  0
H  H21  1  0.53099759  0.82858610  0.85614321  1  0.086991  0  0.10573  0.107673  0  1.009805  0
H  H22  1  0.53100062  0.32858660  0.64385626  1  0.087007  0  0.105777  0.107721  0  1.009703  0
H  H23  1  0.46900041  0.17140891  0.14385443  1  0.087192  0  0.10574  0.107663  0  1.009643  0
H  H24  1  0.33683535  0.70376517  0.40404158  1  0.114348  0  0.108313  0.124865  0  1.020663  0
H  H25  1  0.66316395  0.79623339  0.90404147  1  0.114398  0  0.108328  0.124877  0  1.020706  0
H  H26  1  0.66316503  0.29623256  0.59595689  1  0.114348  0  0.108318  0.124854  0  1.020608  0
H  H27  1  0.33683538  0.20376502  0.09595742  1  0.114348  0  0.108312  0.124866  0  1.020674  0
H  H28  1  0.50892717  0.98903909  0.40270648  1  0.101937  0  0.102567  0.115751  0  1.04488  0
H  H29  1  0.49107213  0.51095947  0.90270554  1  0.101908  0  0.102587  0.115837  0  1.044804  0
H  H30  1  0.49107030  0.01095797  0.59729406  1  0.101904  0  0.102588  0.115809  0  1.044836  0
H  H31  1  0.50892720  0.48903894  0.09729624  1  0.101973  0  0.102597  0.115816  0  1.044813  0
H  H32  1  0.48342218  0.83516589  0.49651783  1  0.091116  0  0.106096  0.123302  0  1.010818  0
H  H33  1  0.51657585  0.66483739  0.99651849  1  0.091873  0  0.106129  0.12339  0  1.010845  0
H  H34  1  0.51657769  0.16483728  0.50348230  1  0.091918  0  0.106066  0.123267  0  1.010823  0
H  H35  1  0.48342441  0.33516170  0.00348247  1  0.092228  0  0.106118  0.123338  0  1.010886  0
H  H36  1  0.22287382  0.88766876  0.50046096  1  0.073149  0  0.110976  0.127237  0  0.982329  0
H  H37  1  0.77712288  0.61233204  0.00046147  1  0.073205  0  0.110967  0.127206  0  0.98241  0
H  H38  1  0.77712577  0.11233033  0.49953958  1  0.073138  0  0.110971  0.127241  0  0.982289  0
H  H39  1  0.22287791  0.38766841  0.99954031  1  0.073202  0  0.110976  0.127246  0  0.982361  0
H  H40  1  0.22232232  0.87873531  0.60350753  1  0.110548  0  0.107318  0.106784  0  1.008605  0
H  H41  1  0.77767590  0.62126543  0.10350804  1  0.110597  0  0.107333  0.106801  0  1.008582  0
H  H42  1  0.77767635  0.12126310  0.39649260  1  0.110555  0  0.107323  0.106787  0  1.00864  0
H  H43  1  0.22232450  0.37873570  0.89649333  1  0.11061  0  0.107343  0.10682  0  1.008599  0
H  H44  1  0.48219905  0.82759746  0.59919990  1  0.069045  0  0.104169  0.10331  0  1.000808  0
H  H45  1  0.51779904  0.67240465  0.09920059  1  0.068936  0  0.104145  0.103235  0  1.000818  0
H  H46  1  0.51780161  0.17240435  0.40079981  1  0.069005  0  0.104166  0.103294  0  1.000807  0
H  H47  1  0.48220070  0.32759648  0.90079995  1  0.068957  0  0.104153  0.103263  0  1.000835  0
H  H48  1  0.89506384  0.54701358  0.33750352  1  0.117053  0  0.106502  0.111929  0  1.01341  0
H  H49  1  0.10493680  0.95298705  0.83750288  1  0.117041  0  0.106505  0.111939  0  1.013372  0
H  H50  1  0.10493589  0.45298755  0.66249743  1  0.117052  0  0.106526  0.111961  0  1.013364  0
H  H51  1  0.89506241  0.04701273  0.16249435  1  0.117053  0  0.106499  0.111901  0  1.013417  0
H  H52  1  0.05159588  0.83173173  0.36446746  1  0.086952  0  0.108459  0.116525  0  0.991718  0
H  H53  1  0.94840508  0.66826956  0.86446847  1  0.086951  0  0.108446  0.116511  0  0.991762  0
H  H54  1  0.94840611  0.16827007  0.63553101  1  0.086969  0  0.108466  0.116524  0  0.991736  0
H  H55  1  0.05159479  0.33173021  0.13553248  1  0.08696  0  0.108456  0.116523  0  0.99174  0
H  H56  1  0.02135487  0.51003315  0.38787837  1  0.095416  0  0.111094  0.130853  0  1.017076  0
H  H57  1  0.97864494  0.98996677  0.88787717  1  0.095407  0  0.11108  0.130849  0  1.017105  0
H  H58  1  0.97864394  0.48996730  0.61212259  1  0.095427  0  0.111072  0.130846  0  1.017098  0
H  H59  1  0.02135586  0.01003367  0.11212047  1  0.095405  0  0.111085  0.130861  0  1.017068  0
H  H60  1  0.17796769  0.79464928  0.41573885  1  0.124362  0  0.106176  0.119852  0  1.038018  0
H  H61  1  0.82203349  0.70535063  0.91573891  1  0.124358  0  0.106166  0.119834  0  1.038029  0
H  H62  1  0.82203403  0.20535184  0.58426128  1  0.124366  0  0.106192  0.119878  0  1.038096  0
H  H63  1  0.17796757  0.29465050  0.08426163  1  0.124342  0  0.106154  0.119857  0  1.038059  0
H  H64  1  0.29360230  0.61459116  0.50508571  1  0.070159  0  0.107856  0.122508  0  0.98633  0
H  H65  1  0.70639905  0.88540961  0.00508562  1  0.070153  0  0.107859  0.122524  0  0.986334  0
H  H66  1  0.70639612  0.38540997  0.49491483  1  0.070109  0  0.107831  0.122468  0  0.986334  0
H  H67  1  0.29360319  0.11458947  0.99491451  1  0.070105  0  0.107852  0.12251  0  0.986339  0
H  H68  1  0.02623182  0.65368875  0.49467949  1  0.074274  0  0.106276  0.124847  0  1.004441  0
H  H69  1  0.97376818  0.84631112  0.99467960  1  0.074292  0  0.106234  0.124803  0  1.004429  0
H  H70  1  0.97376699  0.34631170  0.50532063  1  0.074317  0  0.106298  0.124897  0  1.004345  0
H  H71  1  0.02623274  0.15368796  0.00532052  1  0.074299  0  0.106269  0.124838  0  1.004401  0
H  H72  1  0.28673538  0.62222349  0.60841775  1  0.071937  0  0.103079  0.10499  0  1.006055  0
H  H73  1  0.71326616  0.87777724  0.10841767  1  0.071943  0  0.103098  0.105015  0  1.006054  0
H  H74  1  0.71326516  0.37777968  0.39158279  1  0.071912  0  0.103081  0.104969  0  1.006023  0
H  H75  1  0.28673476  0.12222184  0.89158205  1  0.071917  0  0.103086  0.104993  0  1.006104  0
H  H76  1  0.02017548  0.66085336  0.59725937  1  0.13543  0  0.106605  0.119481  0  1.022334  0
H  H77  1  0.97982510  0.83914669  0.09725993  1  0.135412  0  0.106592  0.119484  0  1.022339  0
H  H78  1  0.97982266  0.33914709  0.40273993  1  0.13536  0  0.106602  0.119494  0  1.022244  0
H  H79  1  0.02017582  0.16085239  0.90274061  1  0.135438  0  0.106609  0.119477  0  1.022346  0
H  H80  1  0.70041721  0.45485715  0.29093086  1  0.160289  0  0.119881  0.100105  0  1.016858  0
H  H81  1  0.29958265  0.04514306  0.79093099  1  0.160289  0  0.119879  0.100103  0  1.016858  0
H  H82  1  0.29958451  0.54514397  0.70906844  1  0.160316  0  0.119895  0.100128  0  1.016833  0
H  H83  1  0.70041722  0.95485671  0.20906914  1  0.160284  0  0.119908  0.100108  0  1.016916  0
H  H84  1  0.48707466  0.56079606  0.29597203  1  0.109613  0  0.117437  0.089323  0  1.018123  0
H  H85  1  0.51292563  0.93920391  0.79597172  1  0.109599  0  0.117445  0.089329  0  1.018037  0
H  H86  1  0.51292718  0.43920370  0.70402893  1  0.109667  0  0.117427  0.089319  0  1.018035  0
H  H87  1  0.48707516  0.06079654  0.20402799  1  0.109602  0  0.117433  0.089305  0  1.018088  0
H  H88  1  0.58437601  0.29743670  0.28686514  1  0.16449  0  0.112804  0.131741  0  1.034479  0
H  H89  1  0.41562424  0.20256283  0.78686446  1  0.164504  0  0.112805  0.131751  0  1.034441  0
H  H90  1  0.41562598  0.70256511  0.71313540  1  0.164494  0  0.112798  0.13174  0  1.034427  0
H  H91  1  0.58437470  0.79743626  0.21313484  1  0.164532  0  0.112792  0.131713  0  1.034405  0
H  H92  1  0.35936217  0.40439330  0.29250745  1  0.11758  0  0.110109  0.119876  0  1.040422  0
H  H93  1  0.64063902  0.09560690  0.79250783  1  0.117595  0  0.110119  0.119871  0  1.040412  0
H  H94  1  0.64063862  0.59560714  0.70749268  1  0.11757  0  0.110121  0.11989  0  1.040443  0
H  H95  1  0.35936204  0.90439422  0.20749271  1  0.117603  0  0.110106  0.119832  0  1.040486  0
H  H96  1  0.37043225  0.02570520  0.34576353  1  0.076889  0  0.10519  0.116841  0  1.000858  0
H  H97  1  0.62956890  0.47429295  0.84576289  1  0.076903  0  0.105165  0.116801  0  1.000849  0
H  H98  1  0.62957106  0.97429660  0.65423494  1  0.076904  0  0.105151  0.116812  0  1.000853  0
H  H99  1  0.37043190  0.52570750  0.15423641  1  0.076799  0  0.105168  0.116796  0  1.000859  0
H  H100  1  0.28456036  0.12122154  0.19595770  1  0.095018  0  0.106174  0.118223  0  1.010634  0
H  H101  1  0.71543813  0.37877736  0.69595676  1  0.095206  0  0.106203  0.118197  0  1.010634  0
H  H102  1  0.71543992  0.87878094  0.80404201  1  0.095071  0  0.106156  0.118193  0  1.010628  0
H  H103  1  0.28456080  0.62122174  0.30404295  1  0.094989  0  0.106199  0.118234  0  1.010648  0
H  H104  1  0.17045021  0.96486668  0.17565040  1  0.139161  0  0.109893  0.131188  0  1.013039  0
H  H105  1  0.82955052  0.53513334  0.67564973  1  0.139122  0  0.109907  0.131185  0  1.013071  0
H  H106  1  0.82955138  0.03513580  0.82434931  1  0.139153  0  0.109922  0.131188  0  1.013025  0
H  H107  1  0.17045000  0.46486643  0.32434957  1  0.13919  0  0.109919  0.131217  0  1.013037  0
H  H108  1  0.25762265  0.86963873  0.32524564  1  0.073551  0  0.103887  0.114238  0  1.01461  0
H  H109  1  0.74237822  0.63035918  0.82524526  1  0.073612  0  0.103873  0.114232  0  1.014627  0
H  H110  1  0.74237934  0.13036307  0.67475365  1  0.073906  0  0.103875  0.114236  0  1.014621  0
H  H111  1  0.25762296  0.36964059  0.17475404  1  0.07357  0  0.103878  0.11423  0  1.014669  0
H  H112  1  0.15230367  0.63819839  0.22620109  1  0.157207  0  0.108068  0.126357  0  1.043629  0
H  H113  1  0.84769610  0.86180229  0.72620026  1  0.156758  0  0.108056  0.126346  0  1.043622  0
H  H114  1  0.84769553  0.36180138  0.77379987  1  0.156755  0  0.10805  0.126325  0  1.043592  0
H  H115  1  0.15230244  0.13819749  0.27379945  1  0.156799  0  0.108028  0.126292  0  1.043558  0
H  H116  1  0.90708304  0.69738748  0.17525317  1  0.137314  0  0.114691  0.134421  0  1.01705  0
H  H117  1  0.09291941  0.80261186  0.67525880  1  0.137258  0  0.114727  0.134491  0  1.017019  0
H  H118  1  0.09291748  0.30261229  0.82474613  1  0.137324  0  0.114701  0.134447  0  1.017015  0
H  H119  1  0.90708033  0.19738927  0.32474174  1  0.137244  0  0.114749  0.134521  0  1.01697  0
H  H120  1  0.04343136  0.47407163  0.23457578  1  0.114869  0  0.119567  0.094634  0  1.006434  0
H  H121  1  0.95656906  0.02592861  0.73457438  1  0.114881  0  0.119579  0.09465  0  1.006443  0
H  H122  1  0.95656877  0.52592882  0.76542476  1  0.114887  0  0.119572  0.094635  0  1.006453  0
H  H123  1  0.04342816  0.97407117  0.26542409  1  0.11491  0  0.11959  0.094674  0  1.006443  0
H  H124  1  0.80819087  0.53183682  0.18680241  1  0.142974  0  0.118666  0.092465  0  1.01736  0
H  H125  1  0.19181081  0.96816387  0.68680597  1  0.142957  0  0.118705  0.092516  0  1.017302  0
H  H126  1  0.19181019  0.46816431  0.81319689  1  0.142964  0  0.11869  0.092496  0  1.017333  0
H  H127  1  0.80818655  0.03183794  0.31319457  1  0.142913  0  0.118698  0.092512  0  1.017305  0
C  C128  1  0.64348078  0.79284122  0.32775591  1  1.576641  0  0.223478  0.603551  0  4.176463  0
C  C129  1  0.35651613  0.70715670  0.82775518  1  1.576656  0  0.223534  0.603658  0  4.176309  0
C  C130  1  0.35651842  0.20715855  0.67224463  1  1.576647  0  0.223537  0.603746  0  4.176301  0
C  C131  1  0.64347922  0.29283832  0.17224453  1  1.576631  0  0.223566  0.60382  0  4.176205  0
C  C132  1  0.56291826  0.81206661  0.35336568  1  -0.073319  0  -0.024648  -0.061442  0  3.985625  0
C  C133  1  0.43708055  0.68793265  0.85336461  1  -0.073259  0  -0.024621  -0.06137  0  3.985438  0
C  C134  1  0.43708187  0.18793384  0.64663528  1  -0.073348  0  -0.024621  -0.061452  0  3.985493  0
C  C135  1  0.56291771  0.31206304  0.14663510  1  -0.073368  0  -0.02461  -0.061406  0  3.985582  0
C  C136  1  0.57344817  0.90180956  0.36515279  1  0.022697  0  -0.07853  -0.061112  0  3.958616  0
C  C137  1  0.42654974  0.59818902  0.86515134  1  0.023109  0  -0.078498  -0.061086  0  3.958695  0
C  C138  1  0.42655077  0.09818953  0.63484775  1  0.0231  0  -0.078532  -0.061105  0  3.958766  0
C  C139  1  0.57344879  0.40180735  0.13484837  1  0.022831  0  -0.078504  -0.061148  0  3.95854  0
C  C140  1  0.47688862  0.74077702  0.36614491  1  -0.026582  0  -0.079255  -0.063305  0  3.966878  0
C  C141  1  0.52311127  0.75922155  0.86614388  1  -0.02638  0  -0.079215  -0.063317  0  3.966889  0
C  C142  1  0.52311243  0.25922070  0.63385521  1  -0.0263  0  -0.079268  -0.063352  0  3.966879  0
C  C143  1  0.47688911  0.24077618  0.13385459  1  -0.02666  0  -0.079241  -0.063259  0  3.966823  0
C  C144  1  0.40344930  0.75819635  0.39249939  1  0.007183  0  -0.096036  -0.196658  0  3.978835  0
C  C145  1  0.59654773  0.74180154  0.89249884  1  0.007541  0  -0.096072  -0.196713  0  3.978961  0
C  C146  1  0.59654724  0.24180003  0.60749990  1  0.007558  0  -0.096038  -0.19662  0  3.978959  0
C  C147  1  0.40345107  0.25819551  0.10749963  1  0.008028  0  -0.096064  -0.196742  0  3.978877  0
C  C148  1  0.50067986  0.92001436  0.39156312  1  -0.042077  0  -0.095786  -0.19022  0  3.979086  0
C  C149  1  0.49931849  0.57998353  0.89156175  1  -0.042496  0  -0.095954  -0.190553  0  3.979144  0
C  C150  1  0.49931749  0.07998406  0.60843824  1  -0.042319  0  -0.095909  -0.190423  0  3.979191  0
C  C151  1  0.50067937  0.42001284  0.10843838  1  -0.04212  0  -0.095889  -0.190383  0  3.979076  0
C  C152  1  0.41759571  0.84783012  0.40594349  1  0.35214  0  0.084362  0.257863  0  4.036891  0
C  C153  1  0.58240320  0.65216912  0.90594297  1  0.351754  0  0.084408  0.258018  0  4.036797  0
C  C154  1  0.58240269  0.15216762  0.59405664  1  0.351618  0  0.08442  0.257952  0  4.036825  0
C  C155  1  0.41759587  0.34782861  0.09405757  1  0.351274  0  0.084403  0.258013  0  4.036906  0
C  C156  1  0.35281655  0.86194169  0.49254308  1  0.427302  0  0.091659  0.273188  0  4.034083  0
C  C157  1  0.64718095  0.63806023  0.99254344  1  0.427304  0  0.091699  0.273243  0  4.034069  0
C  C158  1  0.64718465  0.13806147  0.50745746  1  0.42728  0  0.091703  0.273203  0  4.034135  0
C  C159  1  0.35281653  0.36193683  0.00745751  1  0.427281  0  0.091736  0.273327  0  4.034106  0
C  C160  1  0.42646899  0.84512154  0.51985624  1  -0.009334  0  -0.109236  -0.225129  0  4.011924  0
C  C161  1  0.57352948  0.65488196  0.01985656  1  -0.010202  0  -0.109347  -0.225354  0  4.012005  0
C  C162  1  0.57353314  0.15488231  0.48014389  1  -0.010155  0  -0.109288  -0.225148  0  4.011928  0
C  C163  1  0.42646932  0.34511509  0.98014481  1  -0.01059  0  -0.10936  -0.225267  0  4.012016  0
C  C164  1  0.27950356  0.87480397  0.52253217  1  -0.010361  0  -0.099419  -0.202562  0  3.990585  0
C  C165  1  0.72049319  0.62519682  0.02253345  1  -0.010294  0  -0.099451  -0.202636  0  3.990715  0
C  C166  1  0.72049644  0.12519784  0.47746796  1  -0.010347  0  -0.099404  -0.202534  0  3.990535  0
C  C167  1  0.27950720  0.37480091  0.97746750  1  -0.010295  0  -0.099475  -0.20268  0  3.990625  0
C  C168  1  0.27958334  0.86988251  0.57983690  1  -0.01011  0  -0.074554  -0.054535  0  3.975172  0
C  C169  1  0.72041471  0.63011960  0.07983694  1  -0.009977  0  -0.074475  -0.054375  0  3.975027  0
C  C170  1  0.72041772  0.13011861  0.42016364  1  -0.01014  0  -0.074553  -0.054538  0  3.975167  0
C  C171  1  0.27958422  0.36987949  0.92016319  1  -0.009938  0  -0.074513  -0.054483  0  3.975044  0
C  C172  1  0.42557035  0.84084378  0.57732522  1  -0.041805  0  -0.082687  -0.066271  0  4.0073  0
C  C173  1  0.57442889  0.65915969  0.07732554  1  -0.041718  0  -0.082601  -0.066076  0  4.00721  0
C  C174  1  0.57443177  0.15916006  0.42267532  1  -0.041768  0  -0.08265  -0.066237  0  4.007347  0
C  C175  1  0.42557071  0.34083940  0.92267500  1  -0.041716  0  -0.082621  -0.066183  0  4.007281  0
C  C176  1  0.35267724  0.85312870  0.60803213  1  -0.007463  0  -0.029892  -0.072369  0  4.01206  0
C  C177  1  0.64732087  0.64687340  0.10803293  1  -0.00768  0  -0.029978  -0.072493  0  4.012226  0
C  C178  1  0.64732184  0.14687243  0.39196800  1  -0.007395  0  -0.029885  -0.072368  0  4.012046  0
C  C179  1  0.35267966  0.35312637  0.89196803  1  -0.007632  0  -0.029974  -0.072443  0  4.012152  0
C  C180  1  0.35478813  0.85052211  0.66943898  1  1.509371  0  0.202986  0.572266  0  4.211275  0
C  C181  1  0.64520850  0.64947929  0.16943936  1  1.509394  0  0.202945  0.572329  0  4.211452  0
C  C182  1  0.64520949  0.14947699  0.33056115  1  1.509368  0  0.202982  0.572314  0  4.211322  0
C  C183  1  0.35478833  0.35052117  0.83056076  1  1.509367  0  0.202998  0.572355  0  4.211153  0
C  C184  1  0.88653961  0.71282770  0.32283969  1  1.582005  0  0.225336  0.606973  0  4.171009  0
C  C185  1  0.11346033  0.78716953  0.82283831  1  1.582212  0  0.225249  0.607001  0  4.171163  0
C  C186  1  0.11346132  0.28717478  0.67716002  1  1.58193  0  0.225331  0.607125  0  4.170866  0
C  C187  1  0.88653873  0.21282480  0.17716140  1  1.581926  0  0.225318  0.607056  0  4.171104  0
C  C188  1  0.96502460  0.69131072  0.34908833  1  -0.016479  0  -0.025941  -0.066448  0  3.994499  0
C  C189  1  0.03497672  0.80868990  0.84908729  1  -0.016498  0  -0.025946  -0.066495  0  3.99458  0
C  C190  1  0.03497607  0.30869109  0.65091138  1  -0.016484  0  -0.025947  -0.066477  0  3.994553  0
C  C191  1  0.96502354  0.19130918  0.15091118  1  -0.016447  0  -0.025935  -0.066438  0  3.994486  0
C  C192  1  0.95743159  0.60087852  0.35438283  1  -0.07953  0  -0.077282  -0.0602  0  3.958007  0
C  C193  1  0.04256749  0.89912142  0.85438259  1  -0.079532  0  -0.0773  -0.060234  0  3.958108  0
C  C194  1  0.04256655  0.39912193  0.64561688  1  -0.079546  0  -0.077276  -0.060192  0  3.958078  0
C  C195  1  0.95743145  0.10087767  0.14561589  1  -0.079528  0  -0.077272  -0.060151  0  3.957914  0
C  C196  1  0.04572761  0.76163796  0.36988567  1  0.01681  0  -0.084405  -0.07937  0  3.992792  0
C  C197  1  0.95427348  0.73836197  0.86988664  1  0.016863  0  -0.084385  -0.079353  0  3.9928  0
C  C198  1  0.95427411  0.23836316  0.63011404  1  0.016814  0  -0.084398  -0.079358  0  3.992758  0
C  C199  1  0.04572797  0.26163848  0.13011431  1  0.016509  0  -0.0844  -0.079357  0  3.992783  0
C  C200  1  0.02738706  0.58007065  0.38229343  1  -0.013242  0  -0.09122  -0.186651  0  3.958976  0
C  C201  1  0.97261327  0.91993064  0.88229185  1  -0.013248  0  -0.091128  -0.18651  0  3.958879  0
C  C202  1  0.97261175  0.41992981  0.61770835  1  -0.013311  0  -0.09118  -0.186647  0  3.959051  0
C  C203  1  0.02738819  0.08006981  0.11770704  1  -0.013249  0  -0.091213  -0.18666  0  3.958762  0
C  C204  1  0.11567084  0.74148666  0.39816654  1  -0.101428  0  -0.100938  -0.210602  0  4.004315  0
C  C205  1  0.88432872  0.75851258  0.89816703  1  -0.101438  0  -0.100929  -0.210544  0  4.004317  0
C  C206  1  0.88432849  0.25851175  0.60183317  1  -0.10142  0  -0.10094  -0.210607  0  4.004227  0
C  C207  1  0.11567207  0.24148787  0.10183351  1  -0.101143  0  -0.100905  -0.210581  0  4.004283  0
C  C208  1  0.10403779  0.65055628  0.40542460  1  0.439263  0  0.08587  0.261959  0  4.040937  0
C  C209  1  0.89596073  0.84944364  0.90542506  1  0.439307  0  0.085815  0.26183  0  4.040933  0
C  C210  1  0.89596195  0.34944485  0.59457511  1  0.439289  0  0.085827  0.261926  0  4.040937  0
C  C211  1  0.10404033  0.15055749  0.09457548  1  0.439261  0  0.085816  0.261884  0  4.040887  0
C  C212  1  0.16095685  0.63407926  0.49403620  1  0.389755  0  0.0888  0.270067  0  4.033906  0
C  C213  1  0.83904421  0.86591994  0.99403702  1  0.389747  0  0.088784  0.270028  0  4.033947  0
C  C214  1  0.83904328  0.36592119  0.50596392  1  0.389747  0  0.088779  0.270042  0  4.033926  0
C  C215  1  0.16095830  0.13407983  0.00596393  1  0.389787  0  0.088749  0.26998  0  4.033845  0
C  C216  1  0.23415021  0.62451786  0.52582508  1  0.000615  0  -0.103103  -0.204978  0  4.003512  0
C  C217  1  0.76585012  0.87548359  0.02582545  1  0.000656  0  -0.103094  -0.205022  0  4.003495  0
C  C218  1  0.76584980  0.37548395  0.47417464  1  0.00064  0  -0.103077  -0.204951  0  4.003499  0
C  C219  1  0.23415080  0.12451549  0.97417468  1  0.000645  0  -0.103051  -0.2049  0  4.003336  0
C  C220  1  0.08344675  0.64687910  0.51939567  1  -0.019256  0  -0.107792  -0.219114  0  4.000435  0
C  C221  1  0.91655303  0.85312100  0.01939658  1  -0.019284  0  -0.107762  -0.219038  0  4.000452  0
C  C222  1  0.91655166  0.35312204  0.48060363  1  -0.019253  0  -0.107791  -0.219146  0  4.000426  0
C  C223  1  0.08344657  0.14687809  0.98060437  1  -0.019245  0  -0.107788  -0.219094  0  4.000309  0
C  C224  1  0.22993868  0.62868907  0.58308347  1  -0.040006  0  -0.080589  -0.061052  0  3.988273  0
C  C225  1  0.77006241  0.87131235  0.08308467  1  -0.040032  0  -0.080673  -0.061143  0  3.988287  0
C  C226  1  0.77006146  0.37131478  0.41691707  1  -0.04006  0  -0.080624  -0.061049  0  3.98822  0
C  C227  1  0.22993731  0.12868538  0.91691546  1  -0.040036  0  -0.080698  -0.06124  0  3.988353  0
C  C228  1  0.08005001  0.65078526  0.57687416  1  -0.04076  0  -0.081423  -0.069689  0  3.975807  0
C  C229  1  0.91995107  0.84921617  0.07687425  1  -0.0408  0  -0.081433  -0.069812  0  3.975842  0
C  C230  1  0.91994907  0.34921588  0.42312597  1  -0.047072  0  -0.081401  -0.069681  0  3.975692  0
C  C231  1  0.08005011  0.15078360  0.92312546  1  -0.040751  0  -0.081381  -0.069705  0  3.975686  0
C  C232  1  0.15303643  0.64180055  0.60928114  1  -0.043684  0  -0.031099  -0.069449  0  4.013999  0
C  C233  1  0.84696537  0.85820086  0.10928159  1  -0.043719  0  -0.031067  -0.069279  0  4.013884  0
C  C234  1  0.84696225  0.35820127  0.39071898  1  -0.037238  0  -0.031137  -0.069493  0  4.013888  0
C  C235  1  0.15303528  0.14179754  0.89071854  1  -0.043663  0  -0.031046  -0.069205  0  4.013804  0
C  C236  1  0.14709139  0.64404499  0.67055394  1  1.533654  0  0.189879  0.5494  0  4.229591  0
C  C237  1  0.85290947  0.85595707  0.17055398  1  1.533713  0  0.189907  0.549369  0  4.229457  0
C  C238  1  0.85290516  0.35595479  0.32944536  1  1.533801  0  0.189885  0.549434  0  4.229333  0
C  C239  1  0.14708961  0.14404406  0.82944490  1  1.533673  0  0.189896  0.549344  0  4.229599  0
C  C240  1  0.62428625  0.44160154  0.29110997  1  0.465481  0  0.05124  0.102512  0  3.90528  0
C  C241  1  0.37571388  0.05839935  0.79110975  1  0.465462  0  0.051214  0.102477  0  3.905289  0
C  C242  1  0.37571574  0.55840027  0.70889098  1  0.465508  0  0.051182  0.102499  0  3.9053  0
C  C243  1  0.62428664  0.94160041  0.20889038  1  0.465459  0  0.051187  0.102512  0  3.905211  0
C  C244  1  0.50448567  0.50008799  0.29441271  1  0.476306  0  0.048533  0.098279  0  3.928234  0
C  C245  1  0.49551501  0.99991129  0.79441194  1  0.476283  0  0.048559  0.098352  0  3.927998  0
C  C246  1  0.49551512  0.49991246  0.70558907  1  0.476249  0  0.048557  0.098372  0  3.928118  0
C  C247  1  0.50448578  0.00008915  0.20558860  1  0.476273  0  0.048539  0.098342  0  3.928057  0
C  C248  1  0.55809554  0.35278326  0.28896065  1  -0.06787  0  -0.077926  -0.149537  0  3.912257  0
C  C249  1  0.44190444  0.14721559  0.78896002  1  -0.067885  0  -0.077945  -0.149524  0  3.912252  0
C  C250  1  0.44190750  0.64721786  0.71103948  1  -0.06832  0  -0.077916  -0.14955  0  3.912291  0
C  C251  1  0.55809449  0.85278350  0.21103970  1  -0.068355  0  -0.077951  -0.149517  0  3.91217  0
C  C252  1  0.43440864  0.41383150  0.29244832  1  0.003228  0  -0.073922  -0.133727  0  3.928602  0
C  C253  1  0.56559135  0.08616735  0.79244781  1  0.003201  0  -0.073924  -0.133727  0  3.928499  0
C  C254  1  0.56559321  0.58616827  0.70755305  1  0.003314  0  -0.07395  -0.133794  0  3.92859  0
C  C255  1  0.43440878  0.91383310  0.20755273  1  0.003319  0  -0.073899  -0.133674  0  3.928531  0
C  C256  1  0.46082071  0.33830600  0.28771943  1  -0.06523  0  0.009869  0.024977  0  3.937524  0
C  C257  1  0.53917888  0.16169353  0.78771928  1  -0.065202  0  0.009859  0.024931  0  3.937552  0
C  C258  1  0.53918035  0.66169512  0.71228070  1  -0.064947  0  0.009849  0.02496  0  3.937556  0
C  C259  1  0.46082099  0.83830624  0.21228043  1  -0.064912  0  0.009875  0.024955  0  3.937559  0
C  C260  1  0.38149657  0.24836291  0.27707004  1  1.419563  0  0.239304  0.468906  0  4.128236  0
C  C261  1  0.61850313  0.25163527  0.77706909  1  1.419519  0  0.239221  0.46878  0  4.128355  0
C  C262  1  0.61850357  0.75163754  0.72293050  1  1.419162  0  0.239283  0.468825  0  4.128219  0
C  C263  1  0.38149740  0.74836449  0.22293104  1  1.419556  0  0.239287  0.468816  0  4.128273  0
C  C264  1  0.33461855  0.08403850  0.27229770  1  0.342973  0  0.085119  0.219248  0  4.039436  0
C  C265  1  0.66538167  0.41596103  0.77229629  1  0.34306  0  0.085149  0.219217  0  4.039551  0
C  C266  1  0.66538304  0.91596398  0.72770118  1  0.343038  0  0.085135  0.219264  0  4.039257  0
C  C267  1  0.33461952  0.58403873  0.22770301  1  0.342984  0  0.085194  0.219273  0  4.039328  0
C  C268  1  0.32614591  0.01266404  0.30873356  1  -0.033532  0  -0.093255  -0.16  0  3.987513  0
C  C269  1  0.67385357  0.48733344  0.80873253  1  -0.033571  0  -0.093252  -0.159888  0  3.987621  0
C  C270  1  0.67385674  0.98733776  0.69126574  1  -0.033517  0  -0.093219  -0.159973  0  3.987429  0
C  C271  1  0.32614735  0.51266564  0.19126677  1  -0.033441  0  -0.093293  -0.159989  0  3.987667  0
C  C272  1  0.27812975  0.06608216  0.22441273  1  -0.025973  0  -0.091723  -0.159879  0  3.990913  0
C  C273  1  0.72186985  0.43391604  0.72441177  1  -0.026184  0  -0.091696  -0.159743  0  3.990933  0
C  C274  1  0.72187091  0.93391965  0.77558657  1  -0.025909  0  -0.09165  -0.159729  0  3.990668  0
C  C275  1  0.27813041  0.56608305  0.27558836  1  -0.025898  0  -0.09172  -0.159809  0  3.990842  0
C  C276  1  0.21360049  0.97883427  0.21299853  1  -0.009725  0  -0.092708  -0.16833  0  3.960345  0
C  C277  1  0.78639939  0.52116506  0.71299783  1  -0.009647  0  -0.092773  -0.168459  0  3.960483  0
C  C278  1  0.78640111  0.02116822  0.78700118  1  -0.009744  0  -0.09272  -0.168322  0  3.960244  0
C  C279  1  0.21360153  0.47883403  0.28700189  1  -0.009839  0  -0.092759  -0.168429  0  3.960437  0
C  C280  1  0.26204692  0.92531823  0.29755808  1  -0.009748  0  -0.095038  -0.176434  0  3.996856  0
C  C281  1  0.73795324  0.57467969  0.79755731  1  -0.009737  0  -0.095052  -0.176589  0  3.99702  0
C  C282  1  0.73795480  0.07468289  0.70244122  1  -0.010173  0  -0.095072  -0.176511  0  3.996906  0
C  C283  1  0.26204861  0.42532007  0.20244157  1  -0.009722  0  -0.095021  -0.176461  0  3.996888  0
C  C284  1  0.20495091  0.90757053  0.24979806  1  0.289351  0  0.096419  0.233308  0  4.041908  0
C  C285  1  0.79504890  0.59242674  0.74979691  1  0.289165  0  0.096503  0.233516  0  4.041926  0
C  C286  1  0.79505042  0.09243128  0.75020166  1  0.289339  0  0.09642  0.233233  0  4.042003  0
C  C287  1  0.20495149  0.40757099  0.25020281  1  0.289436  0  0.096431  0.233368  0  4.041818  0
C  C288  1  0.09821131  0.77884375  0.19269770  1  1.44913  0  0.251172  0.494114  0  4.091438  0
C  C289  1  0.90179038  0.72115694  0.69269864  1  1.449122  0  0.251159  0.494098  0  4.091539  0
C  C290  1  0.90178908  0.22115738  0.80730160  1  1.449071  0  0.251171  0.494058  0  4.091515  0
C  C291  1  0.09821015  0.27884283  0.30730107  1  1.449132  0  0.251199  0.494147  0  4.091417  0
C  C292  1  0.03726685  0.67974442  0.19939100  1  -0.03984  0  0.016388  0.031258  0  3.942441  0
C  C293  1  0.96273380  0.82025695  0.69939318  1  -0.03972  0  0.01631  0.031233  0  3.942403  0
C  C294  1  0.96273288  0.32025671  0.80060871  1  -0.039819  0  0.016311  0.031216  0  3.942446  0
C  C295  1  0.03726567  0.17974351  0.30060612  1  -0.039726  0  0.01628  0.031295  0  3.942316  0
C  C296  1  0.07643191  0.61669238  0.21658808  1  -0.029515  0  -0.081577  -0.163245  0  3.927366  0
C  C297  1  0.92357049  0.88330830  0.71658771  1  -0.029042  0  -0.081591  -0.163284  0  3.927439  0
C  C298  1  0.92357074  0.38330942  0.78341246  1  -0.029055  0  -0.081541  -0.163175  0  3.927386  0
C  C299  1  0.07642646  0.11669080  0.28341076  1  -0.029048  0  -0.081532  -0.163227  0  3.927334  0
C  C300  1  0.93987662  0.64953777  0.18736593  1  -0.0181  0  -0.072984  -0.138294  0  3.910315  0
C  C301  1  0.06012558  0.85046088  0.68736986  1  -0.018113  0  -0.072951  -0.138356  0  3.910339  0
C  C302  1  0.06012351  0.35046267  0.81263295  1  -0.018133  0  -0.072928  -0.138286  0  3.910343  0
C  C303  1  0.93987362  0.14953890  0.31263027  1  -0.018127  0  -0.072957  -0.138454  0  3.910396  0
C  C304  1  0.01676759  0.52584003  0.22104683  1  0.47016  0  0.053307  0.106681  0  3.918734  0
C  C305  1  0.98323349  0.97416065  0.72104606  1  0.47058  0  0.053323  0.106703  0  3.918741  0
C  C306  1  0.98323333  0.47415906  0.77895371  1  0.47015  0  0.053314  0.106664  0  3.918778  0
C  C307  1  0.01676453  0.02584117  0.27895200  1  0.47018  0  0.053282  0.106639  0  3.918659  0
C  C308  1  0.88490598  0.55795808  0.19393594  1  0.428448  0  0.050044  0.100734  0  3.913002  0
C  C309  1  0.11509505  0.94204261  0.69393946  1  0.429032  0  0.050018  0.100712  0  3.913206  0
C  C310  1  0.11509427  0.44204101  0.80606336  1  0.428995  0  0.050004  0.100704  0  3.91312  0
C  C311  1  0.88490324  0.05795988  0.30606026  1  0.428984  0  0.050024  0.10074  0  3.913169  0
N  N312  1  0.59815563  0.51407591  0.29242974  1  -1.244691  0  -0.330307  -0.236575  0  3.562901  0
N  N313  1  0.40184373  0.98592338  0.79242932  1  -1.244629  0  -0.330293  -0.236586  0  3.562774  0
N  N314  1  0.40184516  0.48592453  0.70757204  1  -1.244632  0  -0.33024  -0.236575  0  3.562908  0
N  N315  1  0.59815640  0.01407707  0.20757122  1  -1.244636  0  -0.330286  -0.236598  0  3.562779  0
N  N316  1  0.40144417  0.17213594  0.28397479  1  -1.312073  0  -0.399116  -0.391554  0  3.575854  0
N  N317  1  0.59855421  0.32786224  0.78397378  1  -1.312036  0  -0.399151  -0.391636  0  3.575901  0
N  N318  1  0.59855649  0.82786587  0.71602369  1  -1.311738  0  -0.399089  -0.391509  0  3.575904  0
N  N319  1  0.40144631  0.67213753  0.21602593  1  -1.312052  0  -0.399139  -0.391564  0  3.57584  0
N  N320  1  0.14127499  0.81836698  0.24098646  1  -1.234128  0  -0.392643  -0.364236  0  3.586618  0
N  N321  1  0.85872626  0.68163233  0.74098656  1  -1.234123  0  -0.392661  -0.364238  0  3.586674  0
N  N322  1  0.85872514  0.18163347  0.75901367  1  -1.234104  0  -0.392624  -0.364111  0  3.586602  0
N  N323  1  0.14127691  0.31836743  0.25901274  1  -1.234188  0  -0.392663  -0.364278  0  3.586686  0
N  N324  1  0.92254447  0.49696944  0.21022695  1  -1.256604  0  -0.329708  -0.235607  0  3.560556  0
N  N325  1  0.07745669  0.00302944  0.71022817  1  -1.257677  0  -0.329717  -0.235608  0  3.560734  0
N  N326  1  0.07745672  0.50303033  0.78977235  1  -1.257188  0  -0.329719  -0.235621  0  3.560605  0
N  N327  1  0.92253987  0.99697034  0.28977113  1  -1.257212  0  -0.329723  -0.235595  0  3.560497  0
O  O328  1  0.72036953  0.86009294  0.31838249  1  -1.18706  0  -0.312024  -0.541435  0  2.365039  0
O  O329  1  0.27963068  0.63990838  0.81838256  1  -1.187105  0  -0.311977  -0.541394  0  2.3651  0
O  O330  1  0.27963074  0.13990955  0.68161888  1  -1.187067  0  -0.311986  -0.541436  0  2.365053  0
O  O331  1  0.72036931  0.36009003  0.18161798  1  -1.186983  0  -0.312012  -0.541522  0  2.364927  0
O  O332  1  0.62831891  0.70967427  0.31745905  1  -1.178611  0  -0.317666  -0.555324  0  2.41986  0
O  O333  1  0.37167944  0.79032569  0.81745870  1  -1.178587  0  -0.317712  -0.555389  0  2.419703  0
O  O334  1  0.37168082  0.29032686  0.68254232  1  -1.17862  0  -0.317688  -0.555383  0  2.419757  0
O  O335  1  0.62831843  0.20967068  0.18254142  1  -1.178703  0  -0.3177  -0.555401  0  2.419727  0
O  O336  1  0.34735834  0.86621270  0.43563263  1  -1.132997  0  -0.156608  -0.228683  0  2.542228  0
O  O337  1  0.65263757  0.63378381  0.93563300  1  -1.132915  0  -0.156603  -0.228676  0  2.542225  0
O  O338  1  0.65263926  0.13378299  0.56436750  1  -1.132987  0  -0.156654  -0.228735  0  2.542194  0
O  O339  1  0.34735844  0.36621121  0.06436795  1  -1.132957  0  -0.156593  -0.22876  0  2.542353  0
O  O340  1  0.42483494  0.84364601  0.69476954  1  -1.202732  0  -0.319508  -0.572255  0  2.244985  0
O  O341  1  0.57516425  0.65635673  0.19476904  1  -1.202895  0  -0.319457  -0.572289  0  2.245212  0
O  O342  1  0.57516399  0.15635309  0.30523058  1  -1.20277  0  -0.319468  -0.572255  0  2.245144  0
O  O343  1  0.42483365  0.34364644  0.80522943  1  -1.202726  0  -0.319494  -0.572303  0  2.244985  0
O  O344  1  0.28259886  0.85746403  0.69535781  1  -1.162566  0  -0.325134  -0.555657  0  2.326968  0
O  O345  1  0.71739741  0.64253464  0.19535908  1  -1.162623  0  -0.325101  -0.555673  0  2.326895  0
O  O346  1  0.71739954  0.14253371  0.30464191  1  -1.162523  0  -0.325131  -0.555662  0  2.326963  0
O  O347  1  0.28259796  0.35746379  0.80464229  1  -1.162563  0  -0.325117  -0.555652  0  2.326842  0
O  O348  1  0.89920976  0.79640163  0.31783563  1  -1.179891  0  -0.31539  -0.542068  0  2.390516  0
O  O349  1  0.10078753  0.70359902  0.81783263  1  -1.179939  0  -0.315336  -0.542016  0  2.390567  0
O  O350  1  0.10078813  0.20360155  0.68216698  1  -1.179803  0  -0.315355  -0.542114  0  2.390561  0
O  O351  1  0.89921021  0.29639872  0.18216709  1  -1.179803  0  -0.315401  -0.542143  0  2.390573  0
O  O352  1  0.81251715  0.64542630  0.30828181  1  -1.185231  0  -0.315933  -0.542867  0  2.378673  0
O  O353  1  0.18748303  0.85457162  0.80828087  1  -1.18539  0  -0.315889  -0.542907  0  2.378792  0
O  O354  1  0.18748366  0.35457755  0.69171625  1  -1.18525  0  -0.31596  -0.542924  0  2.378569  0
O  O355  1  0.81251947  0.14542474  0.19171967  1  -1.185251  0  -0.315903  -0.542894  0  2.378829  0
O  O356  1  0.17005552  0.62941677  0.43718368  1  -1.085795  0  -0.157982  -0.227723  0  2.529814  0
O  O357  1  0.82994384  0.87058177  0.93718532  1  -1.085753  0  -0.157961  -0.227678  0  2.529912  0
O  O358  1  0.82994408  0.37058232  0.56281603  1  -1.085792  0  -0.157974  -0.227715  0  2.529906  0
O  O359  1  0.17005788  0.12941935  0.06281605  1  -1.0858  0  -0.157951  -0.227694  0  2.5299  0
O  O360  1  0.07342089  0.64574116  0.69444509  1  -1.173714  0  -0.321109  -0.548079  0  2.159886  0
O  O361  1  0.92658161  0.85426157  0.19444601  1  -1.173723  0  -0.321141  -0.5481  0  2.159696  0
O  O362  1  0.92657500  0.35425522  0.30555421  1  -1.173763  0  -0.321113  -0.548137  0  2.159814  0
O  O363  1  0.07342078  0.14574296  0.80555494  1  -1.173774  0  -0.321123  -0.548079  0  2.159916  0
O  O364  1  0.21961305  0.64232314  0.69902719  1  -1.160828  0  -0.334107  -0.569881  0  2.297852  0
O  O365  1  0.78038853  0.85767891  0.19902759  1  -1.160797  0  -0.334084  -0.569838  0  2.297806  0
O  O366  1  0.78038590  0.35767936  0.30097211  1  -1.160902  0  -0.33409  -0.569823  0  2.297646  0
O  O367  1  0.21961094  0.14232154  0.80097130  1  -1.160775  0  -0.334127  -0.569891  0  2.297922  0
O  O368  1  0.10620125  0.81734784  0.14757065  1  -1.115962  0  -0.286617  -0.465485  0  2.081919  0
O  O369  1  0.89380129  0.68265355  0.64757078  1  -1.11592  0  -0.28662  -0.465469  0  2.081933  0
O  O370  1  0.89379756  0.18265261  0.85242906  1  -1.115889  0  -0.286595  -0.465455  0  2.08193  0
O  O371  1  0.10620016  0.31734689  0.35242852  1  -1.115926  0  -0.28657  -0.465423  0  2.0819  0
O  O372  1  0.30239578  0.24713659  0.26187003  1  -1.142394  0  -0.295195  -0.489653  0  2.156757  0
O  O373  1  0.69760283  0.25286227  0.76186914  1  -1.142404  0  -0.29513  -0.489528  0  2.156783  0
O  O374  1  0.69760488  0.75286521  0.73813216  1  -1.142423  0  -0.295196  -0.489622  0  2.156718  0
O  O375  1  0.30239611  0.74713682  0.23813264  1  -1.142434  0  -0.295192  -0.489603  0  2.156732  0
