# generated using pymatgen
data_MnH12C19N12
_symmetry_space_group_name_H-M   'P 1'
_cell_length_a   7.47911312
_cell_length_b   12.17145848
_cell_length_c   12.61663894
_cell_angle_alpha   65.27828612
_cell_angle_beta   82.82405649
_cell_angle_gamma   88.20802041
_symmetry_Int_Tables_number   1
_chemical_formula_structural   MnH12C19N12
_chemical_formula_sum   'Mn2 H24 C38 N24'
_cell_volume   1034.80084990
_cell_formula_units_Z   2
loop_
 _symmetry_equiv_pos_site_id
 _symmetry_equiv_pos_as_xyz
  1  'x, y, z'
loop_
 _atom_site_type_symbol
 _atom_site_label
 _atom_site_symmetry_multiplicity
 _atom_site_fract_x
 _atom_site_fract_y
 _atom_site_fract_z
 _atom_site_occupancy
 _atom_site_pbe_cm5_charge
 _atom_site_pbe_ddec_charge
 _atom_site_pbe_ddec_spin_density
 _atom_site_pbe_ddec_sum_bond_order
 _atom_site_pbe_magmom
Mn  Mn0  1  0.99999725  0.00000248  0.99999996  1  0.72349  0.950247  4.466678  2.722856  4.236
Mn  Mn1  1  0.00000248  0.49999933  0.00000223  1  0.725161  0.936097  4.471263  2.735505  4.242
H  H2  1  0.03910099  0.27541718  0.90137626  1  0.11943  0.093197  0.000509  1.029764  0.001
H  H3  1  0.96089450  0.72458304  0.09862424  1  0.119429  0.093159  0.000508  1.029781  0.001
H  H4  1  0.03380642  0.45908319  0.71249250  1  0.111827  0.122839  1.9e-05  1.021272  0.0
H  H5  1  0.96618638  0.54091794  0.28751019  1  0.111808  0.122828  1.9e-05  1.021283  0.0
H  H6  1  0.01679071  0.22039082  0.53883185  1  0.107231  0.117709  0.000367  1.025972  0.0
H  H7  1  0.98320888  0.77961123  0.46116842  1  0.107216  0.117687  0.000367  1.026014  0.0
H  H8  1  0.02338889  0.04560668  0.73612219  1  0.11508  0.084046  0.000399  1.034053  0.0
H  H9  1  0.97661204  0.95439446  0.26387677  1  0.11507  0.084053  0.000399  1.034045  0.0
H  H10  1  0.29807836  0.90768099  0.68241444  1  0.109429  0.116412  0.000176  1.044581  0.0
H  H11  1  0.70192794  0.09231835  0.31758170  1  0.109405  0.116421  0.000176  1.044591  0.0
H  H12  1  0.26272317  0.71459906  0.86630445  1  0.11667  0.081691  0.000292  1.027905  0.0
H  H13  1  0.73728987  0.28540300  0.13369646  1  0.116665  0.081678  0.000293  1.028001  0.0
H  H14  1  0.75674231  0.84487327  0.63080570  1  0.109427  0.114005  0.000437  1.043454  0.0
H  H15  1  0.24325835  0.15512063  0.36919936  1  0.109375  0.114008  0.000437  1.043463  0.0
H  H16  1  0.73899518  0.66029540  0.82173073  1  0.116175  0.07936  0.000885  1.016701  0.001
H  H17  1  0.26101103  0.33970575  0.17827578  1  0.116193  0.079378  0.000885  1.016773  0.001
H  H18  1  0.49369208  0.89575190  0.20430120  1  0.10847  0.076257  -0.000105  0.999001  0.0
H  H19  1  0.50630636  0.10425285  0.79568854  1  0.108488  0.07621  -0.000105  0.999044  0.0
H  H20  1  0.47974865  0.66899774  0.29263039  1  0.105596  0.115267  0.000194  1.053636  0.0
H  H21  1  0.52026051  0.33100522  0.70736012  1  0.105597  0.115176  0.000194  1.053689  0.0
H  H22  1  0.47609005  0.67423643  0.63248560  1  0.107785  0.120166  0.00013  1.009359  0.0
H  H23  1  0.52390289  0.32576470  0.36750678  1  0.107801  0.120133  0.000131  1.009302  0.0
H  H24  1  0.49655170  0.90158400  0.52973204  1  0.10677  0.069085  0.000157  1.027768  0.0
H  H25  1  0.50343454  0.09841892  0.47026087  1  0.106756  0.069082  0.000157  1.02776  0.0
C  C26  1  0.62419273  0.12190797  0.05557842  1  0.321005  0.460051  0.027249  4.240209  0.026
C  C27  1  0.37580150  0.87809497  0.94442106  1  0.320941  0.459974  0.02724  4.240453  0.026
C  C28  1  0.31810900  0.12755628  0.06586747  1  0.316827  0.458109  0.030109  4.233228  0.029
C  C29  1  0.68188784  0.87244575  0.93413695  1  0.316837  0.45813  0.030101  4.233355  0.029
C  C30  1  0.03302402  0.26718120  0.81928784  1  0.049585  0.103773  0.0051  3.929546  0.003
C  C31  1  0.96697550  0.73281722  0.18071073  1  0.04962  0.103855  0.005097  3.929418  0.003
C  C32  1  0.02815384  0.36897006  0.71476220  1  -0.077694  -0.183729  0.006563  3.910655  0.005
C  C33  1  0.97184307  0.63103198  0.28523667  1  -0.077728  -0.183769  0.006562  3.910675  0.005
C  C34  1  0.02016965  0.35341069  0.61120026  1  0.102118  0.200979  0.007743  4.03626  0.005
C  C35  1  0.97982728  0.64659225  0.38879903  1  0.102097  0.200969  0.00774  4.036293  0.005
C  C36  1  0.01949906  0.23546415  0.61784332  1  -0.07807  -0.186799  0.00419  3.917849  0.003
C  C37  1  0.98050179  0.76453518  0.38215795  1  -0.078051  -0.186779  0.004192  3.917921  0.003
C  C38  1  0.02445723  0.13868117  0.72652414  1  0.049713  0.10246  0.007799  3.939977  0.006
C  C39  1  0.97554368  0.86131997  0.27347640  1  0.049671  0.102372  0.007799  3.940093  0.006
C  C40  1  0.62813280  0.55368861  0.12883155  1  0.323847  0.461519  0.031566  4.230429  0.029
C  C41  1  0.37185131  0.44629712  0.87118747  1  0.323726  0.461279  0.031544  4.231002  0.029
C  C42  1  0.32783353  0.56405162  0.11375786  1  0.321609  0.453398  0.028427  4.245215  0.027
C  C43  1  0.67217387  0.43594229  0.88624673  1  0.321656  0.453268  0.028409  4.245193  0.027
C  C44  1  0.17566248  0.85142287  0.70764934  1  -0.073272  -0.18514  0.009148  3.910958  0.006
C  C45  1  0.82434240  0.14857376  0.29234719  1  -0.073238  -0.185182  0.009147  3.910906  0.006
C  C46  1  0.15496088  0.74620097  0.81070396  1  0.053102  0.109472  0.008995  3.930073  0.006
C  C47  1  0.84504401  0.25379836  0.18929703  1  0.053092  0.109482  0.008997  3.929996  0.006
C  C48  1  0.03288493  0.88662047  0.63886176  1  0.105148  0.201737  0.008371  4.042273  0.005
C  C49  1  0.96712126  0.11337707  0.36113987  1  0.105167  0.201745  0.008374  4.042295  0.005
C  C50  1  0.87211740  0.81654281  0.67976725  1  -0.077578  -0.18917  0.008626  3.924678  0.006
C  C51  1  0.12788736  0.18345382  0.32023881  1  -0.077619  -0.189272  0.008624  3.924997  0.006
C  C52  1  0.86249008  0.71508053  0.78534384  1  0.05077  0.105888  0.004912  3.95757  0.003
C  C53  1  0.13752012  0.28491881  0.21466311  1  0.050759  0.105911  0.004914  3.957577  0.003
C  C54  1  0.49170484  0.84417075  0.29910135  1  0.041438  0.105935  -0.000167  3.980899  0.0
C  C55  1  0.50829353  0.15583129  0.70088870  1  0.041319  0.105843  -0.000167  3.981242  0.0
C  C56  1  0.48521336  0.71827271  0.34712090  1  -0.080663  -0.18765  0.000626  3.907309  0.0
C  C57  1  0.51479305  0.28172844  0.65287053  1  -0.080626  -0.187479  0.000627  3.907263  0.0
C  C58  1  0.48167458  0.65552092  0.46935644  1  0.098881  0.196625  0.000239  4.03059  0.0
C  C59  1  0.51832123  0.34448564  0.53063196  1  0.098775  0.196572  0.000239  4.030415  0.0
C  C60  1  0.48180725  0.72166319  0.53720994  1  -0.079667  -0.188125  0.000735  3.916005  0.0
C  C61  1  0.51817899  0.27833974  0.46278298  1  -0.07964  -0.188089  0.000735  3.915909  0.0
C  C62  1  0.49232131  0.84752446  0.47939330  1  0.03633  0.084675  0.000219  4.023394  0.0
C  C63  1  0.50767030  0.15247757  0.52059881  1  0.036316  0.084609  0.000219  4.023376  0.0
N  N64  1  0.76906934  0.08312842  0.04736205  1  -0.37106  -0.53658  0.033182  3.177472  0.009
N  N65  1  0.23092903  0.91687543  0.95263203  1  -0.37099  -0.536504  0.033182  3.177681  0.009
N  N66  1  0.47253159  0.17254385  0.06640265  1  -0.307215  -0.397934  0.0182  3.522669  0.015
N  N67  1  0.52746526  0.82745728  0.93359896  1  -0.307231  -0.397967  0.018197  3.522595  0.015
N  N68  1  0.17195745  0.09340641  0.06629743  1  -0.366038  -0.537283  0.037037  3.125882  0.015
N  N69  1  0.82803413  0.90659833  0.93370230  1  -0.36603  -0.537259  0.037037  3.125997  0.015
N  N70  1  0.03269899  0.15360310  0.82578606  1  -0.317735  -0.244973  0.028437  3.514114  0.016
N  N71  1  0.96730190  0.84639804  0.17421606  1  -0.31768  -0.244914  0.028435  3.514036  0.016
N  N72  1  0.01902639  0.44904115  0.49894476  1  -0.14692  -0.131251  0.033178  3.236242  0.029
N  N73  1  0.98096778  0.55095997  0.50105625  1  -0.146919  -0.131268  0.033183  3.236187  0.029
N  N74  1  0.78279202  0.54940755  0.09837164  1  -0.370128  -0.536669  0.036537  3.168901  0.013
N  N75  1  0.21721654  0.45058184  0.90163866  1  -0.370047  -0.536515  0.036541  3.169643  0.013
N  N76  1  0.46238573  0.55704825  0.17099951  1  -0.299793  -0.384223  0.0185  3.550128  0.015
N  N77  1  0.53761344  0.44294203  0.82900949  1  -0.299798  -0.384018  0.018495  3.549669  0.015
N  N78  1  0.19627577  0.56884102  0.06934772  1  -0.368549  -0.537314  0.036412  3.180225  0.012
N  N79  1  0.80372099  0.43115740  0.93065579  1  -0.368585  -0.537262  0.036413  3.180287  0.012
N  N80  1  0.00106419  0.67910512  0.85041867  1  -0.314723  -0.236433  0.034639  3.497831  0.022
N  N81  1  0.99894476  0.32089513  0.14958325  1  -0.314647  -0.236369  0.034637  3.497475  0.022
N  N82  1  0.05780636  0.99358467  0.53538746  1  -0.148677  -0.135387  0.044418  3.24314  0.039
N  N83  1  0.94219842  0.00641014  0.46461378  1  -0.148546  -0.135217  0.044413  3.243064  0.039
N  N84  1  0.49688439  0.90942583  0.36255170  1  -0.324236  -0.277356  0.001259  3.315291  0.001
N  N85  1  0.50311259  0.09057621  0.63744162  1  -0.324113  -0.277199  0.001259  3.315526  0.001
N  N86  1  0.47089682  0.52771598  0.53099264  1  -0.126616  -0.101891  0.001678  3.224136  0.001
N  N87  1  0.52910842  0.47228969  0.46899468  1  -0.126575  -0.101851  0.001678  3.224016  0.001
