# generated using pymatgen
data_CuH8(C6N5)2
_symmetry_space_group_name_H-M   'P 1'
_cell_length_a   7.14981835
_cell_length_b   9.54572933
_cell_length_c   9.54572771
_cell_angle_alpha   72.09519927
_cell_angle_beta   86.71919768
_cell_angle_gamma   86.71906444
_symmetry_Int_Tables_number   1
_chemical_formula_structural   CuH8(C6N5)2
_chemical_formula_sum   'Cu2 H16 C24 N20'
_cell_volume   618.39016507
_cell_formula_units_Z   2
loop_
 _symmetry_equiv_pos_site_id
 _symmetry_equiv_pos_as_xyz
  1  'x, y, z'
loop_
 _atom_site_type_symbol
 _atom_site_label
 _atom_site_symmetry_multiplicity
 _atom_site_fract_x
 _atom_site_fract_y
 _atom_site_fract_z
 _atom_site_occupancy
 _atom_site_pbe_cm5_charge
 _atom_site_pbe_ddec_charge
 _atom_site_pbe_ddec_spin_density
 _atom_site_pbe_ddec_sum_bond_order
 _atom_site_pbe_magmom
Cu  Cu0  1  0.24999898  0.88712022  0.11288022  1  0.784865  0.565632  0.716497  2.354849  0.557
Cu  Cu1  1  0.74999989  0.11288161  0.88711923  1  0.784738  0.565539  0.716452  2.354507  0.557
H  H2  1  0.52991260  0.70183462  0.71573742  1  0.110515  0.108869  2.1e-05  1.03836  0.0
H  H3  1  0.97008473  0.28426344  0.29815810  1  0.110528  0.10891  2.1e-05  1.038359  0.0
H  H4  1  0.47008653  0.29816281  0.28426233  1  0.110535  0.108911  2.1e-05  1.038424  0.0
H  H5  1  0.02991265  0.71573950  0.70183584  1  0.110517  0.108878  2.1e-05  1.038449  0.0
H  H6  1  0.65549310  0.58687809  0.52446385  1  0.10293  0.104351  0.000705  1.02768  0.001
H  H7  1  0.84449718  0.47553951  0.41311301  1  0.102918  0.104276  0.000705  1.02769  0.001
H  H8  1  0.34449611  0.41312151  0.47553779  1  0.102888  0.104241  0.000705  1.02767  0.001
H  H9  1  0.15550009  0.52446453  0.58687432  1  0.102904  0.104293  0.000705  1.027656  0.001
H  H10  1  0.17349491  0.98814564  0.38810946  1  0.118959  0.090797  0.001146  1.067256  0.002
H  H11  1  0.32650792  0.61189240  0.01185479  1  0.118944  0.090794  0.001145  1.067245  0.002
H  H12  1  0.82650549  0.01185399  0.61189060  1  0.118961  0.090781  0.001146  1.067258  0.002
H  H13  1  0.67349932  0.38811055  0.98814707  1  0.118967  0.090794  0.001146  1.067251  0.002
H  H14  1  0.52168220  0.67435675  0.27343611  1  0.118711  0.087471  0.000945  1.056676  0.002
H  H15  1  0.97831399  0.72656412  0.32564050  1  0.118717  0.087466  0.000945  1.056634  0.002
H  H16  1  0.47831370  0.32564837  0.72656457  1  0.118709  0.087459  0.000946  1.056653  0.002
H  H17  1  0.02168630  0.27343662  0.67435084  1  0.118685  0.08745  0.000946  1.056649  0.002
C  C18  1  0.26536813  0.91312014  0.68406002  1  0.204309  0.219069  0.003695  4.076204  0.005
C  C19  1  0.23463420  0.31594179  0.08687790  1  0.204291  0.21901  0.003696  4.076228  0.005
C  C20  1  0.73462683  0.08687727  0.31594517  1  0.204302  0.218957  0.003698  4.076156  0.005
C  C21  1  0.76537474  0.68405566  0.91312243  1  0.2043  0.218943  0.003698  4.076111  0.005
C  C22  1  0.34192253  0.85325240  0.56810408  1  0.005589  0.000593  0.004771  3.978619  0.006
C  C23  1  0.15808048  0.43189809  0.14674719  1  0.005578  0.000633  0.004771  3.978758  0.006
C  C24  1  0.65807784  0.14674833  0.43190088  1  0.00556  0.000689  0.004771  3.978504  0.006
C  C25  1  0.84192277  0.56810045  0.85324993  1  0.005583  0.000701  0.004771  3.978464  0.006
C  C26  1  0.47964553  0.73877767  0.60452179  1  -0.06015  -0.053979  -0.004834  3.903159  -0.003
C  C27  1  0.02035259  0.39548062  0.26121774  1  -0.060187  -0.054162  -0.004834  3.903405  -0.003
C  C28  1  0.52034926  0.26122195  0.39547644  1  -0.060228  -0.05422  -0.004834  3.903247  -0.003
C  C29  1  0.97964879  0.60452563  0.73877500  1  -0.06024  -0.054213  -0.004834  3.903323  -0.003
C  C30  1  0.54755061  0.67485459  0.49866560  1  -0.085636  -0.116913  0.004121  3.997486  0.005
C  C31  1  0.95244846  0.50133489  0.32514328  1  -0.085582  -0.116699  0.004121  3.997362  0.005
C  C32  1  0.45244843  0.32514503  0.50133872  1  -0.085542  -0.116647  0.004121  3.997337  0.005
C  C33  1  0.04755198  0.49866364  0.67485292  1  -0.085525  -0.116656  0.004121  3.997477  0.005
C  C34  1  0.27908284  0.89935896  0.42388704  1  0.053877  0.06055  -0.000945  3.850892  0.0
C  C35  1  0.22091709  0.57611455  0.10063917  1  0.053907  0.060588  -0.000945  3.85087  0.0
C  C36  1  0.72091334  0.10064175  0.57611917  1  0.053922  0.060543  -0.000945  3.850966  0.0
C  C37  1  0.77908768  0.42388180  0.89935751  1  0.053942  0.060576  -0.000945  3.850866  0.0
C  C38  1  0.47485636  0.72313445  0.35915945  1  0.039603  0.070354  -0.001564  3.936437  -0.001
C  C39  1  0.02514140  0.64084241  0.27686205  1  0.039547  0.070335  -0.001564  3.936406  -0.001
C  C40  1  0.52514411  0.27686408  0.64084094  1  0.039601  0.070293  -0.001563  3.936646  -0.001
C  C41  1  0.97485459  0.35916051  0.72313406  1  0.039631  0.070321  -0.001564  3.936681  -0.001
N  N42  1  0.11337586  0.03770429  0.80848282  1  -0.099291  -0.096721  -0.000746  3.328826  0.003
N  N43  1  0.38662642  0.19151739  0.96229588  1  -0.099313  -0.096743  -0.000746  3.328847  0.003
N  N44  1  0.88662712  0.96229976  0.19151995  1  -0.099386  -0.096808  -0.000744  3.329417  0.003
N  N45  1  0.61337549  0.80848004  0.03770164  1  -0.099431  -0.096849  -0.000744  3.329375  0.003
N  N46  1  0.20853188  0.92522803  0.89927318  1  -0.138086  -0.039743  0.061846  3.649819  0.081
N  N47  1  0.29147169  0.10072753  0.07477335  1  -0.138051  -0.039739  0.061845  3.649844  0.081
N  N48  1  0.79147299  0.07476939  0.10074725  1  -0.137935  -0.039683  0.061849  3.650474  0.081
N  N49  1  0.70852980  0.89925337  0.92523136  1  -0.13792  -0.039676  0.061851  3.650357  0.081
N  N50  1  0.30430115  0.84523936  0.82606000  1  -0.211262  -0.248242  0.004484  3.240291  0.006
N  N51  1  0.19570323  0.17394128  0.15476080  1  -0.211246  -0.24821  0.004484  3.240338  0.006
N  N52  1  0.69570810  0.15475258  0.17394095  1  -0.211236  -0.248156  0.004489  3.240763  0.006
N  N53  1  0.80429438  0.82605943  0.84524849  1  -0.211233  -0.248117  0.004489  3.240745  0.006
N  N54  1  0.14754093  0.03223911  0.67131722  1  -0.217219  -0.267051  0.005064  3.2234  0.006
N  N55  1  0.35246165  0.32868375  0.96775877  1  -0.217211  -0.266999  0.005063  3.223354  0.006
N  N56  1  0.85246219  0.96776163  0.32867818  1  -0.217191  -0.266966  0.005064  3.223632  0.006
N  N57  1  0.64753983  0.67132139  0.03223850  1  -0.217176  -0.26697  0.005064  3.223603  0.006
N  N58  1  0.34372525  0.83406174  0.32300001  1  -0.335291  -0.202232  0.063049  3.599833  0.083
N  N59  1  0.15627466  0.67700242  0.16593612  1  -0.335259  -0.202262  0.063049  3.599884  0.083
N  N60  1  0.65626934  0.16594118  0.67699617  1  -0.335333  -0.202168  0.063044  3.600137  0.083
N  N61  1  0.84373228  0.32300495  0.83405812  1  -0.335373  -0.202242  0.063043  3.600096  0.083
