# generated using pymatgen
data_H14RhC17NO4
_symmetry_space_group_name_H-M   'P 1'
_cell_length_a   10.20513668
_cell_length_b   10.44005762
_cell_length_c   15.70409136
_cell_angle_alpha   79.46170175
_cell_angle_beta   81.01770114
_cell_angle_gamma   87.20867177
_symmetry_Int_Tables_number   1
_chemical_formula_structural   H14RhC17NO4
_chemical_formula_sum   'H56 Rh4 C68 N4 O16'
_cell_volume   1624.40550049
_cell_formula_units_Z   4
loop_
 _symmetry_equiv_pos_site_id
 _symmetry_equiv_pos_as_xyz
  1  'x, y, z'
loop_
 _atom_site_type_symbol
 _atom_site_label
 _atom_site_symmetry_multiplicity
 _atom_site_fract_x
 _atom_site_fract_y
 _atom_site_fract_z
 _atom_site_occupancy
 _atom_site_hle17_bader_spin_density
 _atom_site_hle17_ddec_charge
 _atom_site_hle17_ddec_spin_density
 _atom_site_hle17_ddec_sum_bond_order
 _atom_site_hle17_magmom
 _atom_site_hse06_10hf_bader_spin_density
 _atom_site_hse06_10hf_ddec_charge
 _atom_site_hse06_10hf_ddec_spin_density
 _atom_site_hse06_10hf_ddec_sum_bond_order
 _atom_site_hse06_10hf_magmom
 _atom_site_hse06_bader_spin_density
 _atom_site_hse06_ddec_charge
 _atom_site_hse06_ddec_spin_density
 _atom_site_hse06_ddec_sum_bond_order
 _atom_site_hse06_magmom
 _atom_site_pbe_bader_spin_density
 _atom_site_pbe_cm5_charge
 _atom_site_pbe_ddec_charge
 _atom_site_pbe_ddec_spin_density
 _atom_site_pbe_ddec_sum_bond_order
 _atom_site_pbe_magmom
H  H0  1  0.37951221  0.95202142  0.47217510  1  0  0.097929  0  0.963261  0  0  0.106631  0  1.028608  0  0  0.109572  0  1.027394  0  0  0.102932  0.104639  0  1.029193  0
H  H1  1  0.62048692  0.04797007  0.52781716  1  0  0.097856  0  0.963308  0  0  0.106657  0  1.028546  0  0  0.109603  0  1.027334  0  0  0.102913  0.104643  0  1.029154  0
H  H2  1  0.27828626  0.14750390  0.53321823  1  0  0.094225  0  0.961969  0  0  0.101974  0  1.027376  0  0  0.105226  0  1.025916  0  0  0.099149  0.099487  0  1.028786  0
H  H3  1  0.72171479  0.85249051  0.46677540  1  0  0.094205  0  0.962067  0  0  0.101964  0  1.027455  0  0  0.105213  0  1.026006  0  0  0.099164  0.099474  0  1.02888  0
H  H4  1  0.19665065  0.12585142  0.69145718  1  0  0.07874  0  0.984263  0  0  0.089967  0  1.046799  0  0  0.09131  0  1.047268  0  0  0.098034  0.089016  0  1.046707  0
H  H5  1  0.80335721  0.87414979  0.30853686  1  0  0.078629  0  0.984336  0  0  0.08987  0  1.046868  0  0  0.091215  0  1.047335  0  0  0.097992  0.088913  0  1.046777  0
H  H6  1  0.22651395  0.91736733  0.79248436  1  0  0.103232  0  0.981459  0  0  0.109054  0  1.048553  0  0  0.112518  0  1.04737  0  0  0.099509  0.106475  0  1.049508  0
H  H7  1  0.77349189  0.08263582  0.20751156  1  0  0.103243  0  0.981377  0  0  0.10899  0  1.048573  0  0  0.112449  0  1.047387  0  0  0.099492  0.106397  0  1.049527  0
H  H8  1  0.32930315  0.72454643  0.73186371  1  0  0.09279  0  0.962337  0  0  0.101331  0  1.026768  0  0  0.10446  0  1.02478  0  0  0.100938  0.098972  0  1.028348  0
H  H9  1  0.67069587  0.27545087  0.26813615  1  0  0.092754  0  0.962417  0  0  0.101322  0  1.026806  0  0  0.10445  0  1.02482  0  0  0.100933  0.098955  0  1.028388  0
H  H10  1  0.23456478  0.51630239  0.27934715  1  0  0.099614  0  0.944741  0  0  0.110185  0  1.002514  0  0  0.1137  0  1.000142  0  0  0.1037  0.107649  0  1.004367  0
H  H11  1  0.76542522  0.48369878  0.72065890  1  0  0.099474  0  0.944762  0  0  0.110053  0  1.002539  0  0  0.113562  0  1.000168  0  0  0.103673  0.107519  0  1.004393  0
H  H12  1  0.04335328  0.44929774  0.21662555  1  0  0.08521  0  0.951241  0  0  0.098133  0  1.006388  0  0  0.10047  0  1.006412  0  0  0.099552  0.096501  0  1.006358  0
H  H13  1  0.95663891  0.55069368  0.78338335  1  0  0.085252  0  0.951132  0  0  0.098145  0  1.006341  0  0  0.100483  0  1.00636  0  0  0.099522  0.096522  0  1.006308  0
H  H14  1  0.86160080  0.32201199  0.31511913  1  0  0.083132  0  0.990681  0  0  0.09301  0  1.053798  0  0  0.0953  0  1.053109  0  0  0.097403  0.09142  0  1.05425  0
H  H15  1  0.13839032  0.67798332  0.68489069  1  0  0.083243  0  0.990628  0  0  0.093051  0  1.053815  0  0  0.095339  0  1.053129  0  0  0.097445  0.091461  0  1.054266  0
H  H16  1  0.86860130  0.26288188  0.47473578  1  0  0.089917  0  0.945938  0  0  0.101914  0  1.001592  0  0  0.104515  0  1.001262  0  0  0.100646  0.099944  0  1.002243  0
H  H17  1  0.13138865  0.73712219  0.52527502  1  0  0.08997  0  0.945918  0  0  0.101991  0  1.00155  0  0  0.104598  0  1.001217  0  0  0.100683  0.100026  0  1.002198  0
H  H18  1  0.06124008  0.32909760  0.53654591  1  0  0.09994  0  0.939588  0  0  0.112104  0  0.995802  0  0  0.11544  0  0.993897  0  0  0.105403  0.109936  0  0.996728  0
H  H19  1  0.93875077  0.67091136  0.46346167  1  0  0.09995  0  0.939373  0  0  0.112056  0  0.995655  0  0  0.115375  0  0.993768  0  0  0.105371  0.1099  0  0.996574  0
H  H20  1  0.03206218  0.97352617  0.30550202  1  0  0.098499  0  0.960227  0  0  0.107752  0  1.022588  0  0  0.110883  0  1.020718  0  0  0.103509  0.105924  0  1.02302  0
H  H21  1  0.96794671  0.02647308  0.69449406  1  0  0.098551  0  0.960055  0  0  0.107716  0  1.022517  0  0  0.110846  0  1.020649  0  0  0.103521  0.105917  0  1.022946  0
H  H22  1  0.13552949  0.03227606  0.42670376  1  0  0.086717  0  0.951972  0  0  0.098749  0  1.008781  0  0  0.101412  0  1.008544  0  0  0.101066  0.09672  0  1.009238  0
H  H23  1  0.86447655  0.96771734  0.57329458  1  0  0.086722  0  0.951972  0  0  0.098736  0  1.008805  0  0  0.101388  0  1.008582  0  0  0.101074  0.096761  0  1.009258  0
H  H24  1  0.33786997  0.16800912  0.39163549  1  0  0.08776  0  0.955537  0  0  0.098366  0  1.017893  0  0  0.1007  0  1.016862  0  0  0.102043  0.096648  0  1.018566  0
H  H25  1  0.66212994  0.83199305  0.60836370  1  0  0.087772  0  0.955472  0  0  0.09839  0  1.017826  0  0  0.100727  0  1.016795  0  0  0.102049  0.096679  0  1.018488  0
H  H26  1  0.43574296  0.24448487  0.23762078  1  0  0.085973  0  0.966728  0  0  0.09619  0  1.030054  0  0  0.098431  0  1.029898  0  0  0.098996  0.094686  0  1.029913  0
H  H27  1  0.56425278  0.75552704  0.76237894  1  0  0.085979  0  0.966715  0  0  0.096222  0  1.030005  0  0  0.098467  0  1.029841  0  0  0.098996  0.094744  0  1.029861  0
H  H28  1  0.33163839  0.18574168  0.11628812  1  0  0.096398  0  0.95676  0  0  0.106956  0  1.018033  0  0  0.109744  0  1.016696  0  0  0.103455  0.105055  0  1.018808  0
H  H29  1  0.66835922  0.81427609  0.88370880  1  0  0.096343  0  0.956919  0  0  0.106915  0  1.018167  0  0  0.109695  0  1.016841  0  0  0.103525  0.105088  0  1.01891  0
H  H30  1  0.06489540  0.53749929  0.05246836  1  0  0.094765  0  0.961643  0  0  0.103449  0  1.026378  0  0  0.10666  0  1.024378  0  0  0.102074  0.101399  0  1.027471  0
H  H31  1  0.93510633  0.46251071  0.94752398  1  0  0.094771  0  0.9616  0  0  0.10346  0  1.026337  0  0  0.106668  0  1.024343  0  0  0.102074  0.101376  0  1.027439  0
H  H32  1  0.18773877  0.33164595  0.02615179  1  0  0.106044  0  0.960276  0  0  0.112029  0  1.025017  0  0  0.115775  0  1.023293  0  0  0.102095  0.109191  0  1.026561  0
H  H33  1  0.81226194  0.66836504  0.97383799  1  0  0.106104  0  0.960364  0  0  0.112115  0  1.025058  0  0  0.115865  0  1.023342  0  0  0.102155  0.109262  0  1.026597  0
H  H34  1  0.41027323  0.34325370  0.93488110  1  0  0.083809  0  0.951965  0  0  0.09791  0  1.007691  0  0  0.09972  0  1.007752  0  0  0.099889  0.096364  0  1.00814  0
H  H35  1  0.58973045  0.65675824  0.06511080  1  0  0.083668  0  0.952052  0  0  0.097793  0  1.007757  0  0  0.099612  0  1.007809  0  0  0.099891  0.096225  0  1.008209  0
H  H36  1  0.50874649  0.55807415  0.86751616  1  0  0.090258  0  0.944909  0  0  0.103326  0  0.998933  0  0  0.106223  0  0.998202  0  0  0.102569  0.101324  0  0.999349  0
H  H37  1  0.49125619  0.44193779  0.13247777  1  0  0.09014  0  0.944919  0  0  0.10326  0  0.998898  0  0  0.106159  0  0.998161  0  0  0.102575  0.101259  0  0.999364  0
H  H38  1  0.38282885  0.76314648  0.89156317  1  0  0.093405  0  0.965305  0  0  0.103004  0  1.030898  0  0  0.105843  0  1.029381  0  0  0.102911  0.100783  0  1.032235  0
H  H39  1  0.61716901  0.23685863  0.10843333  1  0  0.09334  0  0.965189  0  0  0.102936  0  1.030793  0  0  0.105779  0  1.029276  0  0  0.102885  0.100727  0  1.032125  0
H  H40  1  0.20395003  0.43047754  0.68143379  1  0  0.097324  0  0.963241  0  0  0.100869  0  1.033715  0  0  0.104704  0  1.030806  0  0  0.117389  0.097672  0  1.036772  0
H  H41  1  0.79605210  0.56951291  0.31857230  1  0  0.097296  0  0.963239  0  0  0.100823  0  1.033752  0  0  0.104658  0  1.030841  0  0  0.117356  0.097629  0  1.036804  0
H  H42  1  0.06969292  0.30284227  0.81598911  1  0  0.101312  0  0.942784  0  0  0.106344  0  1.009062  0  0  0.110713  0  1.005119  0  0  0.120336  0.102714  0  1.012925  0
H  H43  1  0.93030912  0.69715304  0.18401959  1  0  0.101386  0  0.942865  0  0  0.106384  0  1.009166  0  0  0.110752  0  1.005226  0  0  0.120342  0.102765  0  1.013023  0
H  H44  1  0.36480420  0.03839100  0.95620877  1  0  0.138641  0  0.962671  0  0  0.15408  0  1.026357  0  0  0.157769  0  1.023665  0  0  0.0988  0.151164  0  1.028329  0
H  H45  1  0.63520692  0.96159652  0.04379549  1  0  0.138583  0  0.962624  0  0  0.154028  0  1.026308  0  0  0.157719  0  1.023624  0  0  0.098817  0.151117  0  1.028285  0
H  H46  1  0.52202057  0.10558612  0.90545118  1  0  0.115822  0  0.93332  0  0  0.139819  0  0.988181  0  0  0.141567  0  0.987694  0  0  0.096839  0.138227  0  0.988844  0
H  H47  1  0.47798656  0.89440239  0.09455082  1  0  0.1159  0  0.933253  0  0  0.139859  0  0.988151  0  0  0.141617  0  0.987653  0  0  0.096886  0.138275  0  0.988818  0
H  H48  1  0.45880399  0.97747563  0.86607866  1  0  0.117393  0  0.951373  0  0  0.138757  0  1.015557  0  0  0.140366  0  1.015556  0  0  0.096027  0.137262  0  1.015789  0
H  H49  1  0.54120211  0.02251483  0.13392257  1  0  0.117399  0  0.951405  0  0  0.138756  0  1.015589  0  0  0.140365  0  1.015592  0  0  0.096026  0.137272  0  1.0158  0
H  H50  1  0.61472181  0.23910965  0.66123830  1  0  0.144714  0  0.962725  0  0  0.16005  0  1.025203  0  0  0.164398  0  1.021637  0  0  0.100881  0.156449  0  1.028185  0
H  H51  1  0.38526629  0.76088768  0.33875757  1  0  0.144645  0  0.962772  0  0  0.159993  0  1.025237  0  0  0.16434  0  1.021673  0  0  0.100857  0.156398  0  1.028219  0
H  H52  1  0.59081270  0.08631357  0.73381136  1  0  0.116023  0  0.971208  0  0  0.137212  0  1.032875  0  0  0.137531  0  1.036169  0  0  0.093674  0.136831  0  1.030492  0
H  H53  1  0.40919131  0.91368180  0.26618313  1  0  0.115981  0  0.971194  0  0  0.1372  0  1.032845  0  0  0.137519  0  1.036137  0  0  0.093697  0.136826  0  1.030461  0
H  H54  1  0.64027779  0.22261256  0.77214204  1  0  0.118096  0  0.922196  0  0  0.140979  0  0.978048  0  0  0.142653  0  0.977501  0  0  0.097617  0.139193  0  0.979272  0
H  H55  1  0.35972907  0.77738866  0.22785019  1  0  0.1181  0  0.922283  0  0  0.140967  0  0.978152  0  0  0.142645  0  0.977601  0  0  0.097642  0.139181  0  0.979375  0
Rh  Rh56  1  0.46184471  0.43392050  0.57075474  1  0  0.631992  0  3.130082  0  0  0.563192  0  3.718022  0  0  0.60286  0  3.668386  0  0  0.640706  0.542159  0  3.749128  0
Rh  Rh57  1  0.53815533  0.56607486  0.42924333  1  0  0.632162  0  3.129937  0  0  0.563293  0  3.717963  0  0  0.602972  0  3.668308  0  0  0.640708  0.54224  0  3.749098  0
Rh  Rh58  1  0.08434280  0.06389572  0.94892923  1  0  0.627065  0  3.102922  0  0  0.555913  0  3.689558  0  0  0.596871  0  3.641259  0  0  0.633194  0.532872  0  3.721497  0
Rh  Rh59  1  0.91565707  0.93610838  0.05107292  1  0  0.6271  0  3.102809  0  0  0.555942  0  3.689418  0  0  0.596894  0  3.641128  0  0  0.633222  0.532868  0  3.721407  0
C  C60  1  0.40942130  0.70945817  0.56211417  1  0  0.600765  0  3.840825  0  0  0.551724  0  4.139371  0  0  0.590952  0  4.131055  0  0  0.210165  0.524996  0  4.144599  0
C  C61  1  0.59057582  0.29053426  0.43788647  1  0  0.600874  0  3.840565  0  0  0.551825  0  4.139139  0  0  0.591053  0  4.130814  0  0  0.210244  0.525096  0  4.144368  0
C  C62  1  0.35821825  0.82704728  0.59831147  1  0  -0.076099  0  3.788857  0  0  -0.049547  0  4.015864  0  0  -0.059376  0  4.039129  0  0  -0.020426  -0.04328  0  4.00004  0
C  C63  1  0.64177785  0.17294711  0.40168776  1  0  -0.076246  0  3.788906  0  0  -0.049751  0  4.016038  0  0  -0.059582  0  4.0393  0  0  -0.020488  -0.043489  0  4.000217  0
C  C64  1  0.34536155  0.94622056  0.54198258  1  0  -0.075674  0  3.739458  0  0  -0.100508  0  3.986002  0  0  -0.099178  0  4.005833  0  0  -0.084932  -0.101298  0  3.97242  0
C  C65  1  0.65463455  0.05377385  0.45801155  1  0  -0.07537  0  3.73954  0  0  -0.10025  0  3.986023  0  0  -0.098926  0  4.00586  0  0  -0.08485  -0.101051  0  3.972466  0
C  C66  1  0.28834837  0.05382872  0.57586631  1  0  -0.069734  0  3.748482  0  0  -0.080897  0  3.998899  0  0  -0.084183  0  4.019301  0  0  -0.089097  -0.078861  0  3.985476  0
C  C67  1  0.71164868  0.94616764  0.42412877  1  0  -0.069872  0  3.748606  0  0  -0.081054  0  3.999048  0  0  -0.084345  0  4.019464  0  0  -0.089162  -0.079036  0  3.985632  0
C  C68  1  0.24426787  0.04253046  0.66560887  1  0  -0.04799  0  3.745749  0  0  -0.065129  0  3.994588  0  0  -0.065074  0  4.016865  0  0  -0.088479  -0.064795  0  3.978742  0
C  C69  1  0.75573399  0.95747271  0.33438427  1  0  -0.04787  0  3.745942  0  0  -0.06502  0  3.994753  0  0  -0.064962  0  4.017028  0  0  -0.088474  -0.064682  0  3.9789  0
C  C70  1  0.26025187  0.92507971  0.72244467  1  0  -0.080545  0  3.750118  0  0  -0.094134  0  4.0042  0  0  -0.09897  0  4.026953  0  0  -0.096016  -0.090425  0  3.987121  0
C  C71  1  0.73974905  0.07492150  0.27755262  1  0  -0.080548  0  3.750303  0  0  -0.094089  0  4.004412  0  0  -0.098912  0  4.027151  0  0  -0.096021  -0.090384  0  3.987331  0
C  C72  1  0.31744780  0.81755493  0.68883808  1  0  -0.082264  0  3.760987  0  0  -0.103174  0  4.005295  0  0  -0.102064  0  4.025376  0  0  -0.087841  -0.10334  0  3.990565  0
C  C73  1  0.68254922  0.18244237  0.31116135  1  0  -0.082213  0  3.761001  0  0  -0.103121  0  4.00529  0  0  -0.102008  0  4.025366  0  0  -0.087827  -0.103288  0  3.990553  0
C  C74  1  0.27685087  0.46028593  0.44628628  1  0  0.607255  0  3.839901  0  0  0.5578  0  4.13825  0  0  0.597355  0  4.12978  0  0  0.211525  0.531083  0  4.143234  0
C  C75  1  0.72314511  0.53971429  0.55371609  1  0  0.607602  0  3.840052  0  0  0.558121  0  4.138405  0  0  0.597678  0  4.129923  0  0  0.211562  0.5314  0  4.143396  0
C  C76  1  0.15869800  0.42632677  0.41131999  1  0  -0.077865  0  3.793961  0  0  -0.052848  0  4.026304  0  0  -0.063292  0  4.050446  0  0  -0.021252  -0.045991  0  4.009723  0
C  C77  1  0.84128903  0.57367439  0.58868891  1  0  -0.0782  0  3.793999  0  0  -0.053204  0  4.026406  0  0  -0.063648  0  4.050538  0  0  -0.021292  -0.046335  0  4.009821  0
C  C78  1  0.15329694  0.46155220  0.32129969  1  0  -0.066366  0  3.744125  0  0  -0.0908  0  3.987531  0  0  -0.089467  0  4.008594  0  0  -0.082884  -0.091916  0  3.973207  0
C  C79  1  0.84669713  0.53844410  0.67870652  1  0  -0.065954  0  3.744146  0  0  -0.090387  0  3.987522  0  0  -0.089044  0  4.008578  0  0  -0.082815  -0.091505  0  3.9732  0
C  C80  1  0.04667549  0.42380812  0.28681248  1  0  -0.085415  0  3.785134  0  0  -0.093837  0  4.032422  0  0  -0.099472  0  4.056749  0  0  -0.093251  -0.089536  0  4.01538  0
C  C81  1  0.95330956  0.57619305  0.71319598  1  0  -0.085611  0  3.785132  0  0  -0.09401  0  4.032397  0  0  -0.099648  0  4.056729  0  0  -0.093307  -0.089706  0  4.015357  0
C  C82  1  0.94478437  0.35197274  0.34200293  1  0  -0.043909  0  3.742274  0  0  -0.061384  0  3.992613  0  0  -0.060415  0  4.013267  0  0  -0.084973  -0.062199  0  3.978703  0
C  C83  1  0.05520574  0.64802354  0.65800815  1  0  -0.04393  0  3.742319  0  0  -0.061337  0  3.992665  0  0  -0.060371  0  4.013323  0  0  -0.08489  -0.062159  0  3.978768  0
C  C84  1  0.94890325  0.31828544  0.43190545  1  0  -0.069475  0  3.751387  0  0  -0.081945  0  4.005629  0  0  -0.085955  0  4.02722  0  0  -0.090032  -0.079696  0  3.991624  0
C  C85  1  0.05109172  0.68171570  0.56810519  1  0  -0.069532  0  3.751409  0  0  -0.082034  0  4.005631  0  0  -0.086048  0  4.027223  0  0  -0.09008  -0.079786  0  3.991628  0
C  C86  1  0.05586640  0.35482877  0.46670790  1  0  -0.068163  0  3.737153  0  0  -0.094662  0  3.98754  0  0  -0.093267  0  4.007811  0  0  -0.082848  -0.094921  0  3.973043  0
C  C87  1  0.94412242  0.64518212  0.53330347  1  0  -0.068143  0  3.736642  0  0  -0.094572  0  3.987036  0  0  -0.09316  0  4.007311  0  0  -0.082836  -0.094835  0  3.972532  0
C  C88  1  0.11462249  0.04212205  0.13102601  1  0  0.607876  0  3.827904  0  0  0.560953  0  4.12077  0  0  0.600893  0  4.111741  0  0  0.214234  0.533867  0  4.126447  0
C  C89  1  0.88537742  0.95788011  0.86897445  1  0  0.607941  0  3.827754  0  0  0.561058  0  4.120567  0  0  0.601  0  4.111536  0  0  0.214283  0.533968  0  4.126226  0
C  C90  1  0.17643479  0.07504281  0.20375291  1  0  -0.071196  0  3.778474  0  0  -0.045608  0  4.006627  0  0  -0.055978  0  4.030263  0  0  -0.020222  -0.039128  0  3.990909  0
C  C91  1  0.82356609  0.92496033  0.79624670  1  0  -0.071177  0  3.778464  0  0  -0.045627  0  4.006638  0  0  -0.055997  0  4.03027  0  0  -0.020212  -0.039129  0  3.990878  0
C  C92  1  0.12105078  0.03185213  0.29126008  1  0  -0.05878  0  3.715317  0  0  -0.081059  0  3.954185  0  0  -0.079178  0  3.973925  0  0  -0.078045  -0.081868  0  3.939746  0
C  C93  1  0.87895211  0.96815004  0.70873881  1  0  -0.058788  0  3.715298  0  0  -0.080985  0  3.954178  0  0  -0.079101  0  3.973911  0  0  -0.078002  -0.081782  0  3.939729  0
C  C94  1  0.17894263  0.06531724  0.35868662  1  0  -0.074645  0  3.76541  0  0  -0.084752  0  4.012906  0  0  -0.089122  0  4.034925  0  0  -0.087782  -0.081899  0  3.997978  0
C  C95  1  0.82106434  0.93467908  0.64131256  1  0  -0.074768  0  3.765644  0  0  -0.084862  0  4.013117  0  0  -0.089223  0  4.035139  0  0  -0.087783  -0.081997  0  3.998196  0
C  C96  1  0.29216434  0.14156877  0.33921886  1  0  -0.04265  0  3.740698  0  0  -0.061555  0  3.994414  0  0  -0.060411  0  4.014867  0  0  -0.080126  -0.062009  0  3.980178  0
C  C97  1  0.70784147  0.85843535  0.66077823  1  0  -0.042559  0  3.74044  0  0  -0.061471  0  3.994152  0  0  -0.06033  0  4.014607  0  0  -0.080055  -0.061902  0  3.979895  0
C  C98  1  0.34751676  0.18495410  0.25212848  1  0  -0.086701  0  3.788326  0  0  -0.099277  0  4.043922  0  0  -0.10371  0  4.06637  0  0  -0.093075  -0.096434  0  4.028161  0
C  C99  1  0.65248102  0.81505488  0.74787202  1  0  -0.086824  0  3.788352  0  0  -0.099434  0  4.043968  0  0  -0.103869  0  4.066416  0  0  -0.093117  -0.096572  0  4.028203  0
C  C100  1  0.28998753  0.15214789  0.18449536  1  0  -0.080214  0  3.756401  0  0  -0.106752  0  4.006744  0  0  -0.105656  0  4.027755  0  0  -0.087548  -0.107114  0  3.992301  0
C  C101  1  0.71001124  0.84786110  0.81550377  1  0  -0.08009  0  3.756678  0  0  -0.106618  0  4.00702  0  0  -0.105517  0  4.028036  0  0  -0.087496  -0.107014  0  3.992556  0
C  C102  1  0.14022286  0.78421496  0.98607948  1  0  0.611375  0  3.82518  0  0  0.56266  0  4.119206  0  0  0.602584  0  4.109788  0  0  0.215156  0.535423  0  4.125062  0
C  C103  1  0.85977693  0.21579308  0.01391456  1  0  0.611322  0  3.825048  0  0  0.562568  0  4.119132  0  0  0.602489  0  4.10972  0  0  0.215036  0.535333  0  4.124989  0
C  C104  1  0.21672510  0.66227950  0.97373430  1  0  -0.074767  0  3.786467  0  0  -0.048261  0  4.011784  0  0  -0.058189  0  4.035375  0  0  -0.023541  -0.041541  0  3.995756  0
C  C105  1  0.78327084  0.33772269  0.02626210  1  0  -0.074823  0  3.786203  0  0  -0.048269  0  4.011504  0  0  -0.058194  0  4.035091  0  0  -0.023625  -0.04158  0  3.995492  0
C  C106  1  0.16241623  0.54064487  0.01246544  1  0  -0.072357  0  3.737176  0  0  -0.095346  0  3.979363  0  0  -0.094279  0  3.999668  0  0  -0.08532  -0.096516  0  3.965802  0
C  C107  1  0.83758264  0.45935928  0.98752789  1  0  -0.072283  0  3.736823  0  0  -0.095297  0  3.97907  0  0  -0.09423  0  3.999372  0  0  -0.085316  -0.096481  0  3.965517  0
C  C108  1  0.23136464  0.42611705  0.99797125  1  0  -0.075355  0  3.747375  0  0  -0.087046  0  4.001619  0  0  -0.091079  0  4.02312  0  0  -0.089988  -0.084641  0  3.987338  0
C  C109  1  0.76863515  0.57389101  0.00201769  1  0  -0.075557  0  3.747581  0  0  -0.087282  0  4.001898  0  0  -0.091324  0  4.023407  0  0  -0.090097  -0.084887  0  3.987602  0
C  C110  1  0.35590921  0.43275883  0.94577681  1  0  -0.047551  0  3.749186  0  0  -0.066897  0  4.002657  0  0  -0.067259  0  4.025431  0  0  -0.084871  -0.066357  0  3.987111  0
C  C111  1  0.64409349  0.56725216  0.05421149  1  0  -0.047317  0  3.749032  0  0  -0.066668  0  4.002538  0  0  -0.067042  0  4.025307  0  0  -0.084934  -0.066119  0  3.986992  0
C  C112  1  0.41118699  0.55355738  0.90771414  1  0  -0.080322  0  3.78417  0  0  -0.091773  0  4.036188  0  0  -0.095824  0  4.058461  0  0  -0.092449  -0.088971  0  4.020707  0
C  C113  1  0.58881977  0.44644967  0.09228059  1  0  -0.08026  0  3.784101  0  0  -0.09175  0  4.036116  0  0  -0.095801  0  4.058397  0  0  -0.092391  -0.088935  0  4.020667  0
C  C114  1  0.34176695  0.66812046  0.92127169  1  0  -0.074095  0  3.741795  0  0  -0.098604  0  3.987346  0  0  -0.097426  0  4.007978  0  0  -0.084723  -0.098712  0  3.972993  0
C  C115  1  0.65823293  0.33188269  0.07872674  1  0  -0.073936  0  3.741757  0  0  -0.098448  0  3.987293  0  0  -0.097277  0  4.007933  0  0  -0.084624  -0.098537  0  3.972921  0
C  C116  1  0.24865406  0.35245829  0.72432615  1  0  0.065507  0  3.6916  0  0  0.030572  0  3.962903  0  0  0.03661  0  3.971313  0  0  0.039404  0.024975  0  3.960725  0
C  C117  1  0.75134509  0.64753215  0.27568215  1  0  0.065759  0  3.691553  0  0  0.030854  0  3.962728  0  0  0.036887  0  3.971139  0  0  0.039514  0.025268  0  3.960544  0
C  C118  1  0.17531618  0.28335832  0.79835732  1  0  0.057223  0  3.706099  0  0  0.0205  0  3.982023  0  0  0.025194  0  3.991551  0  0  0.038497  0.016272  0  3.978718  0
C  C119  1  0.82468694  0.71663210  0.20165313  1  0  0.056861  0  3.70611  0  0  0.020133  0  3.982128  0  0  0.024825  0  3.991659  0  0  0.038395  0.01591  0  3.97882  0
C  C120  1  0.36217494  0.16304048  0.83189242  1  0  0.205509  0  3.663737  0  0  0.205758  0  3.920953  0  0  0.212273  0  3.936883  0  0  0.126635  0.200363  0  3.911942  0
C  C121  1  0.63783419  0.83694704  0.16811268  1  0  0.205518  0  3.663831  0  0  0.205783  0  3.921157  0  0  0.212301  0  3.937087  0  0  0.126565  0.200368  0  3.912137  0
C  C122  1  0.43573146  0.22867119  0.75343421  1  0  0.215509  0  3.647428  0  0  0.220519  0  3.896297  0  0  0.227151  0  3.912167  0  0  0.129888  0.215  0  3.887276  0
C  C123  1  0.56427265  0.77131927  0.24656850  1  0  0.215581  0  3.64739  0  0  0.22037  0  3.896559  0  0  0.227  0  3.912423  0  0  0.129925  0.21492  0  3.887442  0
C  C124  1  0.42983954  0.06580168  0.89388940  1  0  -0.358037  0  3.706057  0  0  -0.442484  0  3.948053  0  0  -0.445745  0  3.95367  0  0  -0.236514  -0.439437  0  3.9449  0
C  C125  1  0.57016962  0.93418486  0.10611708  1  0  -0.358141  0  3.70617  0  0  -0.4425  0  3.948104  0  0  -0.445782  0  3.953723  0  0  -0.236569  -0.439447  0  3.944944  0
C  C126  1  0.57810511  0.19243505  0.72822689  1  0  -0.363512  0  3.702308  0  0  -0.444905  0  3.937156  0  0  -0.448742  0  3.943621  0  0  -0.240144  -0.441607  0  3.933673  0
C  C127  1  0.42189992  0.80755932  0.27177207  1  0  -0.363356  0  3.702326  0  0  -0.444719  0  3.937252  0  0  -0.448559  0  3.943718  0  0  -0.240102  -0.44144  0  3.933754  0
N  N128  1  0.37763591  0.32268448  0.69986595  1  0  -0.238841  0  3.225365  0  0  -0.192866  0  3.499529  0  0  -0.199545  0  3.50662  0  0  -0.314909  -0.190638  0  3.497063  0
N  N129  1  0.62236410  0.67731281  0.30013572  1  0  -0.239062  0  3.22561  0  0  -0.192958  0  3.499806  0  0  -0.199621  0  3.506877  0  0  -0.314988  -0.190747  0  3.497324  0
N  N130  1  0.23073453  0.18652056  0.85152619  1  0  -0.25419  0  3.236652  0  0  -0.207339  0  3.516827  0  0  -0.215211  0  3.525911  0  0  -0.318815  -0.204215  0  3.512915  0
N  N131  1  0.76927348  0.81347379  0.14847693  1  0  -0.254013  0  3.236473  0  0  -0.207134  0  3.5166  0  0  -0.215006  0  3.52568  0  0  -0.318693  -0.204005  0  3.512707  0
O  O132  1  0.46337227  0.72554732  0.48160488  1  0  -0.514779  0  2.179113  0  0  -0.466135  0  2.450565  0  0  -0.497819  0  2.445013  0  0  -0.295812  -0.444738  0  2.453583  0
O  O133  1  0.53663180  0.27444509  0.51839697  1  0  -0.514853  0  2.179143  0  0  -0.466228  0  2.450629  0  0  -0.497911  0  2.445076  0  0  -0.295849  -0.444819  0  2.453641  0
O  O134  1  0.39332450  0.59975584  0.61461055  1  0  -0.513767  0  2.191628  0  0  -0.464816  0  2.463257  0  0  -0.496984  0  2.457989  0  0  -0.297794  -0.442985  0  2.46659  0
O  O135  1  0.60666767  0.40023661  0.38538676  1  0  -0.513804  0  2.191521  0  0  -0.464843  0  2.463169  0  0  -0.497014  0  2.457899  0  0  -0.297813  -0.443006  0  2.466505  0
O  O136  1  0.36102315  0.53475884  0.39303643  1  0  -0.514392  0  2.198287  0  0  -0.464339  0  2.465714  0  0  -0.496205  0  2.459346  0  0  -0.29675  -0.442096  0  2.468591  0
O  O137  1  0.63897676  0.46524331  0.60696659  1  0  -0.514486  0  2.198531  0  0  -0.464442  0  2.465988  0  0  -0.496297  0  2.45959  0  0  -0.296755  -0.442221  0  2.468873  0
O  O138  1  0.28798720  0.41048541  0.52592173  1  0  -0.521814  0  2.181725  0  0  -0.473784  0  2.456392  0  0  -0.50622  0  2.451178  0  0  -0.295884  -0.451787  0  2.459547  0
O  O139  1  0.71201288  0.58950798  0.47408040  1  0  -0.522033  0  2.181731  0  0  -0.473967  0  2.456416  0  0  -0.506407  0  2.45119  0  0  -0.29595  -0.45198  0  2.459584  0
O  O140  1  0.01249747  0.96979398  0.15023650  1  0  -0.513174  0  2.163968  0  0  -0.464993  0  2.431269  0  0  -0.496704  0  2.425228  0  0  -0.29462  -0.443185  0  2.434639  0
O  O141  1  0.98750541  0.03020820  0.84975983  1  0  -0.513272  0  2.163873  0  0  -0.465089  0  2.431139  0  0  -0.4968  0  2.425097  0  0  -0.294676  -0.443317  0  2.434513  0
O  O142  1  0.16890620  0.09099946  0.05300495  1  0  -0.519881  0  2.205101  0  0  -0.470703  0  2.477814  0  0  -0.502932  0  2.471502  0  0  -0.298843  -0.448711  0  2.481338  0
O  O143  1  0.83109357  0.90900952  0.94699663  1  0  -0.519846  0  2.204996  0  0  -0.470702  0  2.477739  0  0  -0.502928  0  2.471418  0  0  -0.298868  -0.448739  0  2.481281  0
O  O144  1  0.03019264  0.77293816  0.03876708  1  0  -0.514265  0  2.194208  0  0  -0.464912  0  2.465692  0  0  -0.496908  0  2.45951  0  0  -0.294497  -0.442869  0  2.469129  0
O  O145  1  0.96980811  0.22707084  0.96122866  1  0  -0.51424  0  2.194103  0  0  -0.464886  0  2.465625  0  0  -0.496882  0  2.45944  0  0  -0.294322  -0.442757  0  2.469023  0
O  O146  1  0.18875810  0.89179413  0.94229016  1  0  -0.518964  0  2.209281  0  0  -0.466608  0  2.480967  0  0  -0.49846  0  2.475147  0  0  -0.292639  -0.444971  0  2.484536  0
O  O147  1  0.81124665  0.10821388  0.05770975  1  0  -0.519009  0  2.209341  0  0  -0.466647  0  2.481059  0  0  -0.498493  0  2.475232  0  0  -0.292637  -0.444987  0  2.484629  0
