# generated using pymatgen
data_TbH15C13(N3O4)2
_symmetry_space_group_name_H-M   'P 1'
_cell_length_a   13.12467179
_cell_length_b   13.12467573
_cell_length_c   14.53781761
_cell_angle_alpha   72.55199409
_cell_angle_beta   72.55202322
_cell_angle_gamma   78.63420237
_symmetry_Int_Tables_number   1
_chemical_formula_structural   TbH15C13(N3O4)2
_chemical_formula_sum   'Tb4 H60 C52 N24 O32'
_cell_volume   2263.24400784
_cell_formula_units_Z   4
loop_
 _symmetry_equiv_pos_site_id
 _symmetry_equiv_pos_as_xyz
  1  'x, y, z'
loop_
 _atom_site_type_symbol
 _atom_site_label
 _atom_site_symmetry_multiplicity
 _atom_site_fract_x
 _atom_site_fract_y
 _atom_site_fract_z
 _atom_site_occupancy
 _atom_site_pbe_bader_charge
 _atom_site_pbe_bader_spin_density
 _atom_site_pbe_cm5_charge
 _atom_site_pbe_ddec_charge
 _atom_site_pbe_ddec_spin_density
 _atom_site_pbe_ddec_sum_bond_order
 _atom_site_pbe_magmom
Tb  Tb0  1  0.97430691  0.38995829  0.94532536  1  2.166973  0  1.50928  2.0455  0  2.161084  0
Tb  Tb1  1  0.61004175  0.02569416  0.55467385  1  2.167037  0  1.509269  2.045503  0  2.161065  0
Tb  Tb2  1  0.02569502  0.61004224  0.05467454  1  2.16695  0  1.509292  2.04554  0  2.161026  0
Tb  Tb3  1  0.38995776  0.97430506  0.44532571  1  2.166964  0  1.509288  2.045508  0  2.161015  0
H  H4  1  0.40650750  0.72961895  0.89152926  1  -0.004206  0  0.097764  0.13454  0  0.997934  0
H  H5  1  0.27038085  0.59349248  0.60847076  1  -0.004199  0  0.097771  0.134539  0  0.997928  0
H  H6  1  0.59349284  0.27038337  0.10847059  1  -0.004202  0  0.097762  0.134547  0  0.997903  0
H  H7  1  0.72961706  0.40650694  0.39152987  1  -0.004208  0  0.097773  0.134574  0  0.997894  0
H  H8  1  0.50337833  0.74471721  0.77307465  1  0.100382  0  0.104249  0.149918  0  0.986047  0
H  H9  1  0.25528335  0.49662258  0.72692493  1  0.100336  0  0.104245  0.149898  0  0.986082  0
H  H10  1  0.49662199  0.25528431  0.22692474  1  0.100345  0  0.10426  0.149912  0  0.986046  0
H  H11  1  0.74471616  0.50337744  0.27307509  1  0.100346  0  0.104254  0.149911  0  0.986076  0
H  H12  1  0.38438928  0.68463156  0.79633277  1  0.041994  0  0.096297  0.131423  0  1.004621  0
H  H13  1  0.31536882  0.61561041  0.70366718  1  0.042184  0  0.096294  0.131434  0  1.004602  0
H  H14  1  0.61561025  0.31536927  0.20366840  1  0.04197  0  0.096269  0.131382  0  1.004675  0
H  H15  1  0.68463070  0.38438881  0.29633238  1  0.042155  0  0.096303  0.131439  0  1.004613  0
H  H16  1  0.68322910  0.09200777  0.90690744  1  0.023548  0  0.095438  0.133398  0  1.017991  0
H  H17  1  0.90799067  0.31677127  0.59309377  1  0.023534  0  0.095444  0.133404  0  1.017978  0
H  H18  1  0.31677124  0.90799058  0.09309762  1  0.023483  0  0.095468  0.133451  0  1.017919  0
H  H19  1  0.09200723  0.68322893  0.40690458  1  0.023497  0  0.095446  0.133429  0  1.017938  0
H  H20  1  0.66862628  0.20686116  0.95233939  1  0.07798  0  0.103834  0.148393  0  0.989325  0
H  H21  1  0.79313535  0.33137324  0.54766462  1  0.077945  0  0.103829  0.148383  0  0.989308  0
H  H22  1  0.33137326  0.79313728  0.04766518  1  0.077953  0  0.103826  0.148397  0  0.989319  0
H  H23  1  0.20686095  0.66862637  0.45233709  1  0.077985  0  0.103843  0.148408  0  0.989315  0
H  H24  1  0.70868922  0.07752844  0.02458323  1  0.044105  0  0.092782  0.130019  0  1.008502  0
H  H25  1  0.92246831  0.29131278  0.47541702  1  0.044196  0  0.092782  0.130003  0  1.008492  0
H  H26  1  0.29131513  0.92246942  0.97541949  1  0.044213  0  0.092791  0.130043  0  1.008466  0
H  H27  1  0.07752797  0.70868602  0.52458217  1  0.044166  0  0.092784  0.130022  0  1.008492  0
H  H28  1  0.39461298  0.92032814  0.78763192  1  0.124147  0  0.124059  0.09251  0  0.972454  0
H  H29  1  0.07967186  0.60538742  0.71236787  1  0.124142  0  0.124055  0.092492  0  0.972486  0
H  H30  1  0.60538895  0.07967318  0.21236570  1  0.124122  0  0.124053  0.092516  0  0.972473  0
H  H31  1  0.92032686  0.39461191  0.28763462  1  0.124116  0  0.124044  0.09252  0  0.972468  0
H  H32  1  0.83745920  0.19048316  0.81609561  1  0.100565  0  0.125451  0.087728  0  0.957928  0
H  H33  1  0.80951606  0.16253842  0.68390616  1  0.100337  0  0.12541  0.087729  0  0.957914  0
H  H34  1  0.16253871  0.80951705  0.18390479  1  0.10054  0  0.125439  0.087773  0  0.957926  0
H  H35  1  0.19048265  0.83746011  0.31609518  1  0.100352  0  0.125421  0.087743  0  0.957906  0
H  H36  1  0.03558197  0.31074700  0.64517771  1  0.094849  0  0.114294  0.107823  0  1.019096  0
H  H37  1  0.68925339  0.96441894  0.85482122  1  0.094827  0  0.114294  0.107824  0  1.01911  0
H  H38  1  0.96441836  0.68925452  0.35482168  1  0.094839  0  0.114288  0.107836  0  1.019091  0
H  H39  1  0.31074693  0.03558018  0.14517883  1  0.094825  0  0.114285  0.107837  0  1.01909  0
H  H40  1  0.14723757  0.38522526  0.59611712  1  0.072143  0  0.12268  0.120701  0  0.955944  0
H  H41  1  0.61477427  0.85276324  0.90388277  1  0.072143  0  0.122698  0.120723  0  0.955859  0
H  H42  1  0.85276276  0.61477626  0.40388226  1  0.072132  0  0.122693  0.120729  0  0.955941  0
H  H43  1  0.38522444  0.14723608  0.09611836  1  0.072121  0  0.122685  0.120711  0  0.955922  0
H  H44  1  0.33145904  0.21375590  0.70047359  1  0.106441  0  0.126495  0.131842  0  0.948917  0
H  H45  1  0.78624275  0.66854090  0.79952756  1  0.106445  0  0.12646  0.131804  0  0.948953  0
H  H46  1  0.66854128  0.78624402  0.29952554  1  0.106406  0  0.126493  0.131818  0  0.948933  0
H  H47  1  0.21375677  0.33145833  0.20047406  1  0.106413  0  0.126509  0.131849  0  0.948906  0
H  H48  1  0.30976184  0.31538770  0.59440827  1  0.083735  0  0.125308  0.122908  0  0.9527  0
H  H49  1  0.68461282  0.69023799  0.90559374  1  0.083736  0  0.125314  0.122907  0  0.952699  0
H  H50  1  0.69023848  0.68461222  0.40559087  1  0.083897  0  0.125318  0.122924  0  0.9527  0
H  H51  1  0.31538752  0.30976115  0.09440905  1  0.083887  0  0.125311  0.122913  0  0.95272  0
H  H52  1  0.05374001  0.89118866  0.92355262  1  0.569748  0  0.316847  0.315016  0  0.987493  0
H  H53  1  0.10881104  0.94625868  0.57644696  1  0.569733  0  0.316858  0.315005  0  0.987462  0
H  H54  1  0.94626031  0.10881205  0.07644561  1  0.56972  0  0.316842  0.314972  0  0.987501  0
H  H55  1  0.89118848  0.05374055  0.42355397  1  0.569714  0  0.316848  0.314975  0  0.987495  0
H  H56  1  0.20983739  0.79314111  0.84869746  1  0.544098  0  0.312049  0.2934  0  0.991122  0
H  H57  1  0.20685890  0.79016247  0.65130246  1  0.544107  0  0.312056  0.293414  0  0.991076  0
H  H58  1  0.79016293  0.20686041  0.15130192  1  0.544083  0  0.312031  0.293356  0  0.991136  0
H  H59  1  0.79314062  0.20983756  0.34869824  1  0.544096  0  0.312043  0.293395  0  0.991125  0
H  H60  1  0.88003601  0.97960869  0.94895384  1  0.475468  0  0.339874  0.302551  0  0.890103  0
H  H61  1  0.02039071  0.11996468  0.55104546  1  0.47543  0  0.339874  0.302553  0  0.890088  0
H  H62  1  0.11996431  0.02039203  0.05104507  1  0.475448  0  0.339874  0.302539  0  0.89017  0
H  H63  1  0.97960720  0.88003634  0.44895472  1  0.475444  0  0.339897  0.302582  0  0.890077  0
C  C64  1  0.37925076  0.88757924  0.65903989  1  1.610826  0  0.229291  0.62501  0  4.10463  0
C  C65  1  0.11242154  0.62074928  0.84095980  1  1.610843  0  0.229284  0.624985  0  4.10468  0
C  C66  1  0.62074956  0.11242148  0.34095903  1  1.610781  0  0.229302  0.625006  0  4.104614  0
C  C67  1  0.88757880  0.37925145  0.15904118  1  1.610772  0  0.229299  0.625025  0  4.104629  0
C  C68  1  0.41723803  0.74745525  0.81066648  1  -0.048707  0  -0.230075  -0.395684  0  3.880501  0
C  C69  1  0.25254426  0.58276092  0.68933391  1  -0.048683  0  -0.230078  -0.395668  0  3.880564  0
C  C70  1  0.58276230  0.25254548  0.18933381  1  -0.048666  0  -0.230049  -0.395628  0  3.880545  0
C  C71  1  0.74745445  0.41723840  0.31066653  1  -0.048657  0  -0.230095  -0.395722  0  3.880506  0
C  C72  1  0.71632317  0.12899192  0.94831545  1  -0.063708  0  -0.234148  -0.405297  0  3.902532  0
C  C73  1  0.87100599  0.28367669  0.55168673  1  -0.063728  0  -0.234157  -0.405279  0  3.90255  0
C  C74  1  0.28367715  0.87100562  0.05168778  1  -0.063714  0  -0.234188  -0.405379  0  3.902516  0
C  C75  1  0.12899191  0.71632273  0.44831389  1  -0.063704  0  -0.234179  -0.405336  0  3.902555  0
C  C76  1  0.87248801  0.22674132  0.93305633  1  1.567214  0  0.194964  0.54532  0  4.190861  0
C  C77  1  0.77325962  0.12751275  0.56694273  1  1.567174  0  0.195059  0.545482  0  4.190579  0
C  C78  1  0.12751151  0.77326110  0.06694234  1  1.567199  0  0.195091  0.545436  0  4.190721  0
C  C79  1  0.22673910  0.87248657  0.43305771  1  1.567174  0  0.195027  0.545416  0  4.19069  0
C  C80  1  0.07321412  0.36489147  0.75437733  1  1.576036  0  0.18029  0.583497  0  4.24412  0
C  C81  1  0.63510780  0.92678651  0.74562129  1  1.57586  0  0.180277  0.583484  0  4.24384  0
C  C82  1  0.92678781  0.63510905  0.24562188  1  1.575861  0  0.180263  0.583432  0  4.244043  0
C  C83  1  0.36489172  0.07321271  0.25437895  1  1.575855  0  0.18025  0.583446  0  4.243963  0
C  C84  1  0.36530527  0.15949022  0.56926692  1  1.605456  0  0.232616  0.679375  0  4.137492  0
C  C85  1  0.84051176  0.63469525  0.93073319  1  1.605076  0  0.232671  0.679396  0  4.137364  0
C  C86  1  0.63469586  0.84051041  0.43073250  1  1.605416  0  0.232623  0.679449  0  4.137278  0
C  C87  1  0.15949098  0.36530439  0.06926743  1  1.605399  0  0.232612  0.679384  0  4.137418  0
C  C88  1  0.36003334  0.85893615  0.77272429  1  0.309642  0  0.020777  0.064962  0  3.864345  0
C  C89  1  0.14106397  0.63996535  0.72727526  1  0.309626  0  0.0208  0.064976  0  3.864375  0
C  C90  1  0.63996617  0.14106387  0.22727504  1  0.309699  0  0.020782  0.064904  0  3.864332  0
C  C91  1  0.85893635  0.36003298  0.27272500  1  0.309712  0  0.020798  0.064944  0  3.864382  0
C  C92  1  0.83271258  0.14823058  0.89483346  1  0.339111  0  0.020993  0.085167  0  3.879414  0
C  C93  1  0.85176953  0.16728601  0.60516643  1  0.339119  0  0.021043  0.085133  0  3.879506  0
C  C94  1  0.16728695  0.85177025  0.10516771  1  0.339254  0  0.020964  0.085028  0  3.879576  0
C  C95  1  0.14822918  0.83271251  0.39483422  1  0.339257  0  0.020994  0.08502  0  3.879644  0
C  C96  1  0.10851776  0.32350005  0.65998665  1  0.288035  0  -0.052813  -0.19471  0  3.903864  0
C  C97  1  0.67650095  0.89148258  0.84001297  1  0.288077  0  -0.052818  -0.194708  0  3.903837  0
C  C98  1  0.89148257  0.67650068  0.34001433  1  0.288052  0  -0.052843  -0.194759  0  3.903926  0
C  C99  1  0.32349938  0.10851815  0.15998663  1  0.288088  0  -0.052829  -0.194754  0  3.903959  0
C  C100  1  0.29742088  0.23201469  0.63609297  1  0.313875  0  -0.047522  -0.200132  0  3.879837  0
C  C101  1  0.76798543  0.70257913  0.86390637  1  0.313796  0  -0.047491  -0.20003  0  3.879831  0
C  C102  1  0.70257943  0.76798601  0.36390390  1  0.313656  0  -0.047531  -0.20007  0  3.879752  0
C  C103  1  0.23201491  0.29742081  0.13609551  1  0.313639  0  -0.04757  -0.200109  0  3.879811  0
C  C104  1  0.18142375  0.95651886  0.80783905  1  1.629531  0  0.363323  0.544629  0  4.108944  0
C  C105  1  0.04348046  0.81857512  0.69215992  1  1.629551  0  0.363305  0.544537  0  4.10895  0
C  C106  1  0.81857657  0.04348106  0.19215941  1  1.629611  0  0.363343  0.544599  0  4.108933  0
C  C107  1  0.95651745  0.18142430  0.30784140  1  1.629559  0  0.363327  0.544614  0  4.108987  0
C  C108  1  0.00644227  0.04763704  0.84222492  1  1.631408  0  0.363743  0.553825  0  4.122096  0
C  C109  1  0.95236281  0.99355779  0.65777377  1  1.631649  0  0.363763  0.553799  0  4.122059  0
C  C110  1  0.99355805  0.95236288  0.15777422  1  1.631648  0  0.363756  0.553787  0  4.122092  0
C  C111  1  0.04763510  0.00644163  0.34222686  1  1.631466  0  0.363746  0.553729  0  4.122057  0
C  C112  1  0.14611505  0.13332388  0.73228305  1  1.590352  0  0.360654  0.503069  0  4.070239  0
C  C113  1  0.86667583  0.85388446  0.76771584  1  1.590326  0  0.360632  0.503116  0  4.070218  0
C  C114  1  0.85388526  0.86667603  0.26771472  1  1.590884  0  0.36061  0.503083  0  4.070275  0
C  C115  1  0.13332449  0.14611467  0.23228489  1  1.590351  0  0.360641  0.503166  0  4.070174  0
N  N116  1  0.07429350  0.95416822  0.85875983  1  -1.310879  0  -0.383232  -0.453  0  3.484643  0
N  N117  1  0.04583131  0.92570637  0.64123878  1  -1.3107  0  -0.38328  -0.452921  0  3.484601  0
N  N118  1  0.92570682  0.04583249  0.14123841  1  -1.310871  0  -0.38326  -0.452911  0  3.484634  0
N  N119  1  0.95416822  0.07429446  0.35876239  1  -1.310737  0  -0.383232  -0.452858  0  3.48459  0
N  N120  1  0.03861180  0.13592611  0.77443568  1  -1.251913  0  -0.341199  -0.528307  0  3.279327  0
N  N121  1  0.86407374  0.96138736  0.72556324  1  -1.251944  0  -0.341202  -0.528288  0  3.2793  0
N  N122  1  0.96138772  0.86407470  0.22556275  1  -1.251948  0  -0.341184  -0.528286  0  3.279363  0
N  N123  1  0.13592577  0.03861187  0.27443700  1  -1.251912  0  -0.341212  -0.528283  0  3.279203  0
N  N124  1  0.21987030  0.04619166  0.74826453  1  -1.19937  0  -0.331564  -0.505658  0  3.252678  0
N  N125  1  0.95380749  0.78012928  0.75173385  1  -1.199355  0  -0.331513  -0.505634  0  3.252652  0
N  N126  1  0.78013001  0.95380826  0.25173323  1  -1.199401  0  -0.331528  -0.505648  0  3.252656  0
N  N127  1  0.04619202  0.21986915  0.24826730  1  -1.199351  0  -0.33153  -0.505665  0  3.25261  0
N  N128  1  0.24586742  0.86344705  0.82331465  1  -1.296244  0  -0.411123  -0.388518  0  3.499365  0
N  N129  1  0.13655351  0.75413161  0.67668466  1  -1.296095  0  -0.411132  -0.388503  0  3.499394  0
N  N130  1  0.75413291  0.13655447  0.17668474  1  -1.296228  0  -0.411138  -0.388441  0  3.499322  0
N  N131  1  0.86344680  0.24586671  0.32331492  1  -1.296131  0  -0.411134  -0.388525  0  3.499456  0
N  N132  1  0.90386015  0.04801097  0.89760296  1  -1.227335  0  -0.40959  -0.378108  0  3.510088  0
N  N133  1  0.95198914  0.09614091  0.60239630  1  -1.227329  0  -0.409583  -0.378107  0  3.510157  0
N  N134  1  0.09614179  0.95199036  0.10239672  1  -1.227521  0  -0.409583  -0.378057  0  3.510237  0
N  N135  1  0.04801037  0.90385831  0.39760326  1  -1.227531  0  -0.4096  -0.378084  0  3.51024  0
N  N136  1  0.18235419  0.22500668  0.66906001  1  -1.197765  0  -0.257033  -0.054392  0  3.629089  0
N  N137  1  0.77499232  0.81764669  0.83093868  1  -1.197771  0  -0.257041  -0.05453  0  3.629292  0
N  N138  1  0.81764693  0.77499313  0.33093757  1  -1.198311  0  -0.256992  -0.05448  0  3.62928  0
N  N139  1  0.22500801  0.18235244  0.16906205  1  -1.197764  0  -0.257019  -0.05455  0  3.62932  0
O  O140  1  0.31501097  0.86645010  0.61890610  1  -1.193752  0  -0.349146  -0.614819  0  2.273525  0
O  O141  1  0.13355032  0.68499002  0.88109342  1  -1.193749  0  -0.349148  -0.61481  0  2.273597  0
O  O142  1  0.68498855  0.13354992  0.38109392  1  -1.193734  0  -0.349124  -0.614793  0  2.273568  0
O  O143  1  0.86645002  0.31501231  0.11890643  1  -1.193695  0  -0.349095  -0.614787  0  2.27355  0
O  O144  1  0.46190285  0.93327896  0.60525047  1  -1.217048  0  -0.422397  -0.72515  0  2.495145  0
O  O145  1  0.06672221  0.53809569  0.89474953  1  -1.21706  0  -0.422386  -0.725136  0  2.495135  0
O  O146  1  0.53809667  0.06672105  0.39474818  1  -1.217004  0  -0.422409  -0.72515  0  2.495044  0
O  O147  1  0.93327893  0.46190415  0.10525284  1  -1.217027  0  -0.422423  -0.725178  0  2.495046  0
O  O148  1  0.82521357  0.32109271  0.92202617  1  -1.162211  0  -0.358912  -0.580821  0  2.180829  0
O  O149  1  0.67890773  0.17478638  0.57797321  1  -1.162201  0  -0.358986  -0.580911  0  2.180631  0
O  O150  1  0.17478675  0.67890960  0.07797230  1  -1.162162  0  -0.359041  -0.580915  0  2.180711  0
O  O151  1  0.32109178  0.82521125  0.42202816  1  -1.162199  0  -0.358949  -0.580844  0  2.180637  0
O  O152  1  0.95525912  0.19749986  0.96939364  1  -1.202431  0  -0.374169  -0.639987  0  2.291774  0
O  O153  1  0.80249986  0.04474260  0.53060620  1  -1.202408  0  -0.374207  -0.64006  0  2.291792  0
O  O154  1  0.04474121  0.80250166  0.03060643  1  -1.202453  0  -0.374151  -0.639975  0  2.291764  0
O  O155  1  0.19749885  0.95525832  0.46939379  1  -1.202416  0  -0.374194  -0.640022  0  2.291762  0
O  O156  1  0.12342446  0.32496761  0.82203490  1  -1.183665  0  -0.386293  -0.624425  0  2.171819  0
O  O157  1  0.67503095  0.87657594  0.67796469  1  -1.183672  0  -0.386298  -0.624422  0  2.171776  0
O  O158  1  0.87657586  0.67503151  0.17796446  1  -1.183645  0  -0.386281  -0.624382  0  2.171785  0
O  O159  1  0.32496857  0.12342408  0.32203533  1  -1.183673  0  -0.386299  -0.62441  0  2.171785  0
O  O160  1  0.99181554  0.43566828  0.76270302  1  -1.172003  0  -0.38211  -0.62846  0  2.13353  0
O  O161  1  0.56432942  0.00818631  0.73729660  1  -1.171906  0  -0.382101  -0.628443  0  2.13332  0
O  O162  1  0.00818881  0.56433276  0.23729607  1  -1.171839  0  -0.382088  -0.628432  0  2.133452  0
O  O163  1  0.43566768  0.99181241  0.26270444  1  -1.171837  0  -0.382076  -0.628416  0  2.133389  0
O  O164  1  0.46519235  0.15491656  0.56057366  1  -1.175042  0  -0.415434  -0.66421  0  2.282823  0
O  O165  1  0.84508575  0.53480798  0.93942574  1  -1.174877  0  -0.415424  -0.664163  0  2.282752  0
O  O166  1  0.53480717  0.84508505  0.43942524  1  -1.174894  0  -0.415433  -0.66421  0  2.282768  0
O  O167  1  0.15491619  0.46519175  0.06057438  1  -1.174857  0  -0.415416  -0.664187  0  2.282826  0
O  O168  1  0.32133328  0.11302446  0.52909339  1  -1.181614  0  -0.386597  -0.650849  0  2.254964  0
O  O169  1  0.88697672  0.67866749  0.97090686  1  -1.18131  0  -0.38666  -0.650926  0  2.254937  0
O  O170  1  0.67866785  0.88697536  0.47090624  1  -1.181629  0  -0.386582  -0.650906  0  2.254927  0
O  O171  1  0.11302602  0.32133214  0.02909238  1  -1.18161  0  -0.386583  -0.650851  0  2.254929  0
