# generated using pymatgen
data_CdH6C5N8
_symmetry_space_group_name_H-M   'P 1'
_cell_length_a   6.56544606
_cell_length_b   7.89701612
_cell_length_c   8.95310018
_cell_angle_alpha   72.61703720
_cell_angle_beta   88.13711127
_cell_angle_gamma   87.52760781
_symmetry_Int_Tables_number   1
_chemical_formula_structural   CdH6C5N8
_chemical_formula_sum   'Cd2 H12 C10 N16'
_cell_volume   442.48900808
_cell_formula_units_Z   2
loop_
 _symmetry_equiv_pos_site_id
 _symmetry_equiv_pos_as_xyz
  1  'x, y, z'
loop_
 _atom_site_type_symbol
 _atom_site_label
 _atom_site_symmetry_multiplicity
 _atom_site_fract_x
 _atom_site_fract_y
 _atom_site_fract_z
 _atom_site_occupancy
 _atom_site_pbe_bader_spin_density
 _atom_site_pbe_cm5_charge
 _atom_site_pbe_ddec_charge
 _atom_site_pbe_ddec_spin_density
 _atom_site_pbe_ddec_sum_bond_order
 _atom_site_pbe_magmom
Cd  Cd0  1  0.40287790  0.63458581  0.80210927  1  0  0.798655  0.827752  0  2.341974  0
Cd  Cd1  1  0.59711950  0.36541228  0.19789033  1  0  0.798651  0.827774  0  2.341999  0
H  H2  1  0.33657493  0.87849140  0.46304636  1  0  0.110666  0.089672  0  1.059006  0
H  H3  1  0.66342392  0.12150936  0.53695582  1  0  0.110667  0.08968  0  1.058981  0
H  H4  1  0.09391181  0.39900781  0.45074796  1  0  0.112377  0.123274  0  0.991852  0
H  H5  1  0.90609011  0.60099285  0.54924860  1  0  0.112366  0.123231  0  0.99187  0
H  H6  1  0.04495267  0.28533716  0.74195492  1  0  0.101544  0.107187  0  1.035091  0
H  H7  1  0.95505068  0.71466749  0.25804274  1  0  0.101559  0.107225  0  1.034992  0
H  H8  1  0.15434539  0.97086574  0.88102314  1  0  0.1099  0.080139  0  1.014527  0
H  H9  1  0.84565185  0.02913903  0.11897798  1  0  0.109893  0.080152  0  1.01457  0
H  H10  1  0.16038374  0.30379593  0.21631906  1  0  0.289048  0.280664  0  1.018146  0
H  H11  1  0.83961369  0.69620081  0.78367978  1  0  0.289063  0.280697  0  1.018123  0
H  H12  1  0.28741417  0.10981293  0.22269950  1  0  0.293328  0.294195  0  0.995226  0
H  H13  1  0.71258638  0.89018116  0.77730224  1  0  0.293325  0.294189  0  0.99524  0
C  C14  1  0.27625203  0.97429696  0.52075822  1  0  0.030207  -0.025903  0  3.927351  0
C  C15  1  0.72374836  0.02570376  0.47924170  1  0  0.030207  -0.025887  0  3.927318  0
C  C16  1  0.22560293  0.14952193  0.43437119  1  0  0.091452  0.2434  0  4.031699  0
C  C17  1  0.77439755  0.85047483  0.56563094  1  0  0.091468  0.243329  0  4.031717  0
C  C18  1  0.13785500  0.26254589  0.51483464  1  0  -0.07523  -0.130821  0  3.914037  0
C  C19  1  0.86214532  0.73745750  0.48516567  1  0  -0.075211  -0.130678  0  3.91392  0
C  C20  1  0.10974763  0.19909785  0.67635751  1  0  -0.08535  -0.104611  0  4.001549  0
C  C21  1  0.89025263  0.80090815  0.32363875  1  0  -0.085354  -0.104675  0  4.001481  0
C  C22  1  0.17038908  0.02461906  0.75433105  1  0  0.024947  0.053739  0  3.991538  0
C  C23  1  0.82961280  0.97538296  0.24566849  1  0  0.024911  0.053667  0  3.991692  0
N  N24  1  0.43803623  0.64389237  0.06245682  1  0  -0.331388  -0.561694  0  3.050376  0
N  N25  1  0.56196422  0.35610568  0.93754271  1  0  -0.33136  -0.561664  0  3.050393  0
N  N26  1  0.39956859  0.76868579  0.11120616  1  0  0.089828  0.439625  0  4.50263  0
N  N27  1  0.60043338  0.23131227  0.88879557  1  0  0.089888  0.439701  0  4.502616  0
N  N28  1  0.36133870  0.88966542  0.15760707  1  0  -0.188077  -0.386523  0  2.671457  0
N  N29  1  0.63866642  0.11032862  0.84239569  1  0  -0.188156  -0.386626  0  2.671415  0
N  N30  1  0.06318156  0.52760549  0.86969184  1  0  -0.252401  -0.460418  0  2.874168  0
N  N31  1  0.93682345  0.47239377  0.13030280  1  0  -0.252379  -0.460314  0  2.87456  0
N  N32  1  0.99999659  0.49999670  0.00000983  1  0  0.076866  0.414918  0  4.506538  0
N  N33  1  0.38776341  0.57586732  0.56598128  1  0  -0.263319  -0.460128  0  2.923831  0
N  N34  1  0.61223868  0.42412666  0.43401375  1  0  -0.263365  -0.460235  0  2.923342  0
N  N35  1  0.49998787  0.50000526  0.50000617  1  0  0.086583  0.431036  0  4.523855  0
N  N36  1  0.25118081  0.91457804  0.67701737  1  0  -0.337257  -0.233222  0  3.567589  0
N  N37  1  0.74881954  0.08542405  0.32298553  1  0  -0.337248  -0.233197  0  3.567643  0
N  N38  1  0.26942544  0.21101414  0.27265624  1  0  -0.600637  -0.599334  0  3.37554  0
N  N39  1  0.73057660  0.78898125  0.72734510  1  0  -0.600669  -0.599316  0  3.375493  0
