# generated using pymatgen
data_Mn3H56C66(N4O11)2
_symmetry_space_group_name_H-M   'P 1'
_cell_length_a   11.11873752
_cell_length_b   16.90077057
_cell_length_c   18.65693251
_cell_angle_alpha   116.12689564
_cell_angle_beta   90.00023590
_cell_angle_gamma   90.00013032
_symmetry_Int_Tables_number   1
_chemical_formula_structural   Mn3H56C66(N4O11)2
_chemical_formula_sum   'Mn6 H112 C132 N16 O44'
_cell_volume   3147.69008101
_cell_formula_units_Z   2
loop_
 _symmetry_equiv_pos_site_id
 _symmetry_equiv_pos_as_xyz
  1  'x, y, z'
loop_
 _atom_site_type_symbol
 _atom_site_label
 _atom_site_symmetry_multiplicity
 _atom_site_fract_x
 _atom_site_fract_y
 _atom_site_fract_z
 _atom_site_occupancy
 _atom_site_pbe_bader_charge
 _atom_site_pbe_bader_spin_density
 _atom_site_pbe_cm5_charge
 _atom_site_pbe_ddec_charge
 _atom_site_pbe_ddec_spin_density
 _atom_site_pbe_ddec_sum_bond_order
 _atom_site_pbe_magmom
Mn  Mn0  1  0.29975065  0.37556399  0.82130675  1  1.481015  4.512174  0.577714  0.981957  4.620896  2.28595  4.438
Mn  Mn1  1  0.79974353  0.12443440  0.67868852  1  1.481015  4.512168  0.577686  0.981854  4.620971  2.286169  4.438
Mn  Mn2  1  0.70023408  0.62443491  0.17868738  1  1.481218  4.512128  0.577665  0.981772  4.620863  2.286096  4.438
Mn  Mn3  1  0.20023580  0.87556520  0.32131071  1  1.481229  4.512114  0.57767  0.98178  4.620841  2.286081  4.438
Mn  Mn4  1  0.49999289  0.49999789  0.00000341  1  1.49429  4.549563  0.582787  1.041014  4.672281  2.168812  4.477
Mn  Mn5  1  0.00000802  0.00000163  0.50000280  1  1.494422  4.549527  0.582759  1.040941  4.672277  2.168909  4.477
H  H6  1  0.68338205  0.49724697  0.67720198  1  0.077649  -0.000656  0.108318  0.132839  -0.000573  0.994196  0.0
H  H7  1  0.18337708  0.00274910  0.82279744  1  0.07778  -0.000656  0.108339  0.132857  -0.000573  0.994088  0.0
H  H8  1  0.31662787  0.50274935  0.32279864  1  0.077866  -0.000656  0.108337  0.132858  -0.000573  0.994122  0.0
H  H9  1  0.81662924  0.99725247  0.17720095  1  0.077911  -0.000656  0.108331  0.132869  -0.000573  0.994163  0.0
H  H10  1  0.52483266  0.68635234  0.60822389  1  0.147694  -0.000589  0.106325  0.134373  -0.000817  1.070142  0.0
H  H11  1  0.02482566  0.81364583  0.89177571  1  0.147693  -0.000589  0.106329  0.13439  -0.000817  1.070091  0.0
H  H12  1  0.47517455  0.31364265  0.39177406  1  0.147654  -0.000589  0.106306  0.134341  -0.000817  1.070102  0.0
H  H13  1  0.97517256  0.18635970  0.10822639  1  0.147607  -0.000589  0.106304  0.134327  -0.000818  1.070106  0.0
H  H14  1  0.29838344  0.54012080  0.69568975  1  0.090935  -0.000106  0.103052  0.120045  -0.000262  1.03508  0.0
H  H15  1  0.79837656  0.95987826  0.80430927  1  0.090811  -0.000107  0.103047  0.120038  -0.000262  1.034993  0.0
H  H16  1  0.70162467  0.45987883  0.30431324  1  0.090807  -0.000106  0.103055  0.120032  -0.000262  1.035141  0.0
H  H17  1  0.20162615  0.04012194  0.19568323  1  0.090813  -0.000107  0.103061  0.120057  -0.000262  1.035101  0.0
H  H18  1  0.83161700  0.75716248  0.68935213  1  0.077422  -2e-05  0.107903  0.120995  7.9e-05  1.018023  0.0
H  H19  1  0.33162088  0.74284130  0.81064775  1  0.07734  -2e-05  0.107876  0.120953  7.9e-05  1.018055  0.0
H  H20  1  0.16838482  0.24283979  0.31065298  1  0.07759  -2e-05  0.107831  0.120857  7.9e-05  1.018117  0.0
H  H21  1  0.66838724  0.25716153  0.18934471  1  0.077669  -2e-05  0.107851  0.120877  7.9e-05  1.018113  0.0
H  H22  1  0.90934876  0.84566441  0.62172446  1  0.075333  -0.000882  0.10286  0.098829  -0.001307  1.022645  0.0
H  H23  1  0.40935910  0.65433896  0.87827384  1  0.075467  -0.000881  0.102882  0.098867  -0.001307  1.022671  0.0
H  H24  1  0.09065665  0.15434052  0.37828329  1  0.075373  -0.000882  0.102833  0.098677  -0.001308  1.022839  0.0
H  H25  1  0.59066880  0.34566119  0.12171167  1  0.07555  -0.000881  0.102899  0.098816  -0.001307  1.022726  0.0
H  H26  1  0.74719078  0.66016524  0.40059495  1  0.098654  6.4e-05  0.104104  0.108063  -0.00034  1.028722  0.0
H  H27  1  0.24719534  0.83983043  0.09940419  1  0.098676  6.4e-05  0.104139  0.108078  -0.00034  1.028738  0.0
H  H28  1  0.25282003  0.33983768  0.59940934  1  0.098464  6.4e-05  0.104109  0.108086  -0.00034  1.028906  0.0
H  H29  1  0.75282986  0.16015859  0.90058605  1  0.098361  6.4e-05  0.104085  0.108003  -0.00034  1.029026  0.0
H  H30  1  0.67684924  0.57060176  0.46756892  1  0.086689  -0.000108  0.104903  0.122808  -7.4e-05  1.010553  0.0
H  H31  1  0.17684375  0.92939237  0.03243051  1  0.0868  -0.000108  0.104937  0.122894  -7.4e-05  1.010561  0.0
H  H32  1  0.32316337  0.42940182  0.53243510  1  0.08662  -0.000108  0.104887  0.122782  -7.4e-05  1.010523  0.0
H  H33  1  0.82316346  0.07059538  0.96756566  1  0.086551  -0.000108  0.104884  0.12282  -7.4e-05  1.010613  0.0
H  H34  1  0.37030562  0.61820525  0.49573723  1  0.072961  -0.000193  0.100178  0.115261  0.000506  1.017365  0.0
H  H35  1  0.87030360  0.88179610  0.00426392  1  0.073135  -0.000194  0.100189  0.115293  0.000506  1.017418  0.0
H  H36  1  0.62969080  0.38179104  0.50425802  1  0.073061  -0.000194  0.100185  0.115263  0.000506  1.017234  0.0
H  H37  1  0.12968833  0.11820947  0.99574302  1  0.073126  -0.000194  0.100191  0.115277  0.000506  1.01727  0.0
H  H38  1  0.33495801  0.71198324  0.42723714  1  0.069603  -0.002143  0.094267  0.09059  -0.002505  1.03451  0.001
H  H39  1  0.83495074  0.78802064  0.07276544  1  0.069613  -0.002143  0.094246  0.090579  -0.002506  1.034512  0.001
H  H40  1  0.66504561  0.28801569  0.57275967  1  0.069705  -0.002142  0.094221  0.090443  -0.002507  1.034633  0.001
H  H41  1  0.16503939  0.21198362  0.92724044  1  0.069657  -0.002143  0.094254  0.09056  -0.002505  1.034614  0.001
H  H42  1  0.15833382  0.90553008  0.64216576  1  0.069988  -0.002566  0.090655  0.079856  -0.00333  1.085386  0.001
H  H43  1  0.65831704  0.59447448  0.85783882  1  0.069837  -0.002568  0.090708  0.079927  -0.003328  1.085289  0.001
H  H44  1  0.84168059  0.09447021  0.35783803  1  0.069787  -0.002567  0.090646  0.079902  -0.003328  1.085267  0.001
H  H45  1  0.34167398  0.40553234  0.14215896  1  0.069867  -0.002568  0.090645  0.079867  -0.003329  1.08533  0.001
H  H46  1  0.20361961  0.81400275  0.70900523  1  0.087964  0.000171  0.101743  0.117022  0.000881  1.022486  0.0
H  H47  1  0.70360898  0.68600063  0.79099686  1  0.08792  0.000171  0.101799  0.117083  0.000881  1.022458  0.0
H  H48  1  0.79639030  0.18599489  0.29099591  1  0.087927  0.000171  0.101789  0.117042  0.000881  1.022489  0.0
H  H49  1  0.29639283  0.31400948  0.20900168  1  0.087948  0.000171  0.101804  0.117068  0.000881  1.022465  0.0
H  H50  1  0.25814575  0.17935675  0.81745734  1  0.164097  -0.000118  0.121481  0.11448  -0.000359  1.025831  0.0
H  H51  1  0.75812855  0.32063695  0.68254402  1  0.163992  -0.000118  0.121449  0.114399  -0.000359  1.025934  0.0
H  H52  1  0.74186686  0.82063427  0.18253744  1  0.163941  -0.000118  0.12146  0.114403  -0.000359  1.025889  0.0
H  H53  1  0.24187506  0.67936466  0.31746029  1  0.163915  -0.000118  0.121437  0.114403  -0.000359  1.025898  0.0
H  H54  1  0.32456444  0.02358222  0.68921841  1  0.146199  -0.000501  0.125289  0.122788  -0.001008  1.034082  0.0
H  H55  1  0.82457296  0.47641097  0.81077327  1  0.146262  -0.0005  0.125312  0.122796  -0.001007  1.034111  0.0
H  H56  1  0.67544097  0.97641337  0.31077120  1  0.146167  -0.0005  0.125289  0.122753  -0.001007  1.034111  0.0
H  H57  1  0.17544415  0.52358536  0.18922789  1  0.14615  -0.0005  0.125279  0.122687  -0.001008  1.034155  0.0
H  H58  1  0.43107049  0.24275368  0.64910286  1  0.14302  -9e-06  0.142665  0.112109  -0.000384  1.004112  0.0
H  H59  1  0.93106142  0.25724385  0.85089454  1  0.141931  -9e-06  0.14264  0.112112  -0.000384  1.004125  0.0
H  H60  1  0.56893223  0.75724920  0.35089498  1  0.143001  -9e-06  0.142691  0.11213  -0.000384  1.004093  0.0
H  H61  1  0.06893140  0.74275051  0.14910638  1  0.142097  -1e-05  0.142694  0.112175  -0.000384  1.004064  0.0
H  H62  1  0.47152956  0.15736867  0.53002670  1  0.074745  -0.000864  0.112515  0.115845  -0.000879  0.99845  0.0
H  H63  1  0.97152341  0.34263426  0.96997185  1  0.074754  -0.000863  0.11252  0.115893  -0.000878  0.998446  0.0
H  H64  1  0.52847406  0.84263614  0.46996654  1  0.074781  -0.000863  0.112457  0.115826  -0.000878  0.998441  0.0
H  H65  1  0.02846941  0.65736475  0.03003572  1  0.074787  -0.000864  0.112486  0.115897  -0.000879  0.998402  0.0
H  H66  1  0.43098967  0.94138190  0.59364094  1  0.08466  -0.001743  0.107966  0.105716  -0.002207  1.046417  0.0
H  H67  1  0.93098749  0.55861959  0.90636043  1  0.084649  -0.001742  0.107986  0.105732  -0.002206  1.046403  0.0
H  H68  1  0.56901485  0.05862292  0.40635391  1  0.084519  -0.001739  0.107995  0.105791  -0.002206  1.0465  0.0
H  H69  1  0.06900803  0.44137547  0.09364666  1  0.084527  -0.001739  0.10795  0.105723  -0.002206  1.046516  0.0
H  H70  1  0.12861555  0.30718148  0.69417647  1  0.66524  0.001242  0.296955  0.390309  0.00075  0.948128  0.002
H  H71  1  0.62861765  0.19281835  0.80582216  1  0.66526  0.001241  0.296967  0.390356  0.000749  0.948058  0.002
H  H72  1  0.87136918  0.69281875  0.30581925  1  0.665314  0.001242  0.297013  0.390464  0.000749  0.947921  0.002
H  H73  1  0.37137608  0.80717798  0.19417846  1  0.665261  0.001242  0.29695  0.390351  0.00075  0.948081  0.002
H  H74  1  0.31274377  0.55460707  0.91567237  1  0.643402  0.001455  0.294332  0.378764  0.000875  0.97229  0.002
H  H75  1  0.81274072  0.94539271  0.58432803  1  0.643584  0.001454  0.294344  0.378754  0.000875  0.9723  0.002
H  H76  1  0.68725265  0.44539055  0.08432608  1  0.643375  0.001456  0.294303  0.37871  0.000875  0.972353  0.002
H  H77  1  0.18725120  0.05460889  0.41567466  1  0.643316  0.001456  0.294286  0.378723  0.000875  0.972324  0.002
H  H78  1  0.05797659  0.34779205  0.77502448  1  0.604047  0.001762  0.306514  0.36665  0.000928  0.965425  0.002
H  H79  1  0.55796629  0.15220891  0.72498085  1  0.603997  0.001763  0.306498  0.366589  0.000929  0.965402  0.002
H  H80  1  0.94201354  0.65222792  0.22497526  1  0.604148  0.001762  0.306552  0.366709  0.000929  0.965293  0.002
H  H81  1  0.44201484  0.84777103  0.27502457  1  0.604148  0.001761  0.30652  0.366643  0.000929  0.965344  0.002
H  H82  1  0.24592381  0.53500841  0.83402754  1  0.617405  0.001827  0.312612  0.381809  0.001111  0.922889  0.002
H  H83  1  0.74592679  0.96499447  0.66597714  1  0.617007  0.001828  0.31262  0.381817  0.001111  0.922903  0.002
H  H84  1  0.75406991  0.46499448  0.16597245  1  0.617372  0.001827  0.312617  0.381845  0.001111  0.922896  0.002
H  H85  1  0.25406963  0.03500452  0.33402828  1  0.617394  0.001827  0.312623  0.381888  0.001111  0.922852  0.002
H  H86  1  0.53427382  0.35458724  0.87423599  1  0.65278  0.001594  0.293521  0.376718  0.001152  0.970529  0.003
H  H87  1  0.03427429  0.14541033  0.62576580  1  0.652893  0.001594  0.293483  0.376681  0.001152  0.970591  0.003
H  H88  1  0.46571181  0.64540973  0.12576220  1  0.652749  0.001595  0.293505  0.376655  0.001152  0.970646  0.003
H  H89  1  0.96571314  0.85459061  0.37423717  1  0.652768  0.001594  0.293504  0.376658  0.001152  0.970641  0.003
H  H90  1  0.52911044  0.42350135  0.83071725  1  0.640291  0.001517  0.285343  0.368543  0.001317  0.994815  0.003
H  H91  1  0.02911006  0.07649820  0.66928745  1  0.640263  0.001518  0.28536  0.368604  0.001316  0.994744  0.003
H  H92  1  0.47087969  0.57649898  0.16929030  1  0.640245  0.001518  0.285406  0.368639  0.001317  0.994684  0.003
H  H93  1  0.97088096  0.92350403  0.33071228  1  0.64028  0.001518  0.285408  0.368641  0.001317  0.994687  0.003
H  H94  1  0.17078749  0.96803101  0.58559065  1  0.602912  0.000952  0.325997  0.363093  0.000582  0.921191  0.001
H  H95  1  0.67077808  0.53196571  0.91441409  1  0.602993  0.000952  0.326053  0.363213  0.000581  0.92113  0.001
H  H96  1  0.82921973  0.03196802  0.41441961  1  0.603041  0.000952  0.326036  0.363267  0.000581  0.921151  0.001
H  H97  1  0.32920395  0.46802861  0.08558306  1  0.603009  0.000952  0.326049  0.363234  0.000582  0.921209  0.001
H  H98  1  0.07072411  0.55766691  0.83599871  1  0.106273  -3.1e-05  0.108274  0.100232  -0.000352  1.062344  0.0
H  H99  1  0.57070632  0.94232154  0.66399824  1  0.105748  -3.2e-05  0.108271  0.100261  -0.000352  1.062346  0.0
H  H100  1  0.92924982  0.44234065  0.16400954  1  0.106419  -3.2e-05  0.108235  0.10019  -0.000352  1.062314  0.0
H  H101  1  0.42924514  0.05766287  0.33599126  1  0.106138  -3.2e-05  0.108254  0.10021  -0.000352  1.062341  0.0
H  H102  1  0.05487714  0.44213368  0.67604125  1  0.072781  0.000335  0.116538  0.115097  4.8e-05  1.050461  0.0
H  H103  1  0.55486899  0.05786325  0.82395337  1  0.072788  0.000335  0.116554  0.11515  4.8e-05  1.050341  0.0
H  H104  1  0.94508601  0.55787130  0.32397296  1  0.072879  0.000335  0.116507  0.115111  4.8e-05  1.050534  0.0
H  H105  1  0.44509055  0.94213030  0.17602847  1  0.072898  0.000335  0.116528  0.115084  4.8e-05  1.050445  0.0
H  H106  1  0.01600728  0.70471942  0.70685913  1  0.102383  8e-05  0.126405  0.087679  0.000159  1.023682  0.0
H  H107  1  0.51599796  0.79528339  0.79314870  1  0.101932  8e-05  0.126387  0.087595  0.000159  1.023703  0.0
H  H108  1  0.98400083  0.29528348  0.29314193  1  0.102251  8e-05  0.126412  0.087717  0.000159  1.023633  0.0
H  H109  1  0.48400926  0.20471759  0.20685857  1  0.102163  8e-05  0.12643  0.087679  0.000159  1.023702  0.0
H  H110  1  0.08393982  0.64966018  0.57897677  1  0.080424  -0.000808  0.103525  0.106287  -0.001035  1.051658  0.0
H  H111  1  0.58393606  0.85033819  0.92102304  1  0.080401  -0.000808  0.103517  0.106299  -0.001035  1.051672  0.0
H  H112  1  0.91606650  0.35033685  0.42102894  1  0.080374  -0.000808  0.103487  0.106202  -0.001035  1.051751  0.0
H  H113  1  0.41608284  0.14966995  0.07897633  1  0.080472  -0.000806  0.103494  0.106197  -0.001034  1.051752  0.0
H  H114  1  0.06013796  0.59364700  0.43417769  1  0.076353  -0.000587  0.107417  0.114612  -0.000618  0.999266  0.0
H  H115  1  0.56013375  0.90634740  0.06582102  1  0.077612  -0.000587  0.107456  0.114667  -0.000618  0.999283  0.0
H  H116  1  0.93986926  0.40634541  0.56582621  1  0.077403  -0.000587  0.107532  0.114829  -0.000618  0.999389  0.0
H  H117  1  0.43987616  0.09365679  0.93417626  1  0.077535  -0.000587  0.107524  0.114764  -0.000618  0.999472  0.0
C  C118  1  0.47769784  0.45444684  0.73235100  1  1.539263  0.006031  0.213364  0.577785  0.005465  4.181188  0.005
C  C119  1  0.97769556  0.04555482  0.76765135  1  1.539205  0.006029  0.213233  0.577604  0.005464  4.181074  0.005
C  C120  1  0.52230758  0.54555676  0.26765570  1  1.539226  0.006029  0.213267  0.577754  0.005464  4.181212  0.005
C  C121  1  0.02230806  0.95444474  0.23234357  1  1.539102  0.00603  0.213362  0.577865  0.005464  4.18127  0.005
C  C122  1  0.48939966  0.51118330  0.68951997  1  -0.053508  0.000308  -0.023327  -0.001326  -1.1e-05  4.040579  0.001
C  C123  1  0.98939652  0.98881441  0.81047684  1  -0.05353  0.000307  -0.023359  -0.001295  -1.2e-05  4.0403  0.001
C  C124  1  0.51061025  0.48881367  0.31047929  1  -0.053511  0.000307  -0.023366  -0.001443  -1.1e-05  4.040557  0.001
C  C125  1  0.01060889  0.01118648  0.18951861  1  -0.053499  0.000307  -0.023398  -0.001415  -1.1e-05  4.040519  0.001
C  C126  1  0.60322368  0.52808506  0.66733074  1  0.049946  -0.006182  -0.112597  -0.253025  -0.006306  3.985468  -0.004
C  C127  1  0.10321952  0.97191007  0.83266678  1  0.050006  -0.006182  -0.112657  -0.253156  -0.006306  3.985346  -0.004
C  C128  1  0.39678713  0.47191193  0.33267068  1  0.050125  -0.006181  -0.112709  -0.253161  -0.006305  3.985508  -0.004
C  C129  1  0.89678859  0.02808753  0.16732898  1  0.050183  -0.00618  -0.1127  -0.253199  -0.006304  3.985712  -0.004
C  C130  1  0.61365922  0.58833552  0.63506684  1  0.373391  0.000255  0.085253  0.285818  0.000312  4.073953  0.001
C  C131  1  0.11365327  0.91166030  0.86493044  1  0.373614  0.000255  0.085246  0.285901  0.000312  4.073913  0.001
C  C132  1  0.38634710  0.41166080  0.36493217  1  0.373467  0.000254  0.085253  0.285821  0.000312  4.074087  0.001
C  C133  1  0.88634945  0.08833930  0.13506879  1  0.373491  0.000255  0.085242  0.285795  0.000312  4.074067  0.001
C  C134  1  0.51395370  0.63333238  0.62588429  1  0.029543  -0.006104  -0.120693  -0.344869  -0.00636  3.97762  -0.003
C  C135  1  0.01394765  0.86666310  0.87411207  1  0.029845  -0.006104  -0.120707  -0.344947  -0.006361  3.977637  -0.003
C  C136  1  0.48605262  0.36666393  0.37411525  1  0.029958  -0.006104  -0.120681  -0.344859  -0.006361  3.977708  -0.003
C  C137  1  0.98605326  0.13333846  0.12588525  1  0.029821  -0.006104  -0.120615  -0.34472  -0.00636  3.977549  -0.003
C  C138  1  0.40112259  0.61485015  0.64825595  1  0.40639  -0.005305  0.084405  0.28596  -0.007416  4.061766  -0.005
C  C139  1  0.90111668  0.88514661  0.85174081  1  0.40591  -0.005306  0.084562  0.286242  -0.007417  4.061648  -0.005
C  C140  1  0.59888373  0.38514022  0.35173911  1  0.405329  -0.005304  0.08449  0.286155  -0.007416  4.061882  -0.005
C  C141  1  0.09888514  0.11486154  0.14825964  1  0.405582  -0.005304  0.084436  0.286065  -0.007416  4.061994  -0.005
C  C142  1  0.38725860  0.55269173  0.67826961  1  -0.005361  0.000257  -0.112736  -0.252509  4e-05  3.978801  0.001
C  C143  1  0.88725360  0.94730499  0.82172817  1  -0.005166  0.000258  -0.112737  -0.25263  4.1e-05  3.978602  0.001
C  C144  1  0.61275311  0.44730725  0.32173528  1  -0.004905  0.000257  -0.11266  -0.25247  4.1e-05  3.978641  0.001
C  C145  1  0.11275451  0.05269521  0.17826325  1  -0.005003  0.000257  -0.112689  -0.252584  4.1e-05  3.97857  0.001
C  C146  1  0.75317499  0.65848041  0.58181328  1  0.430673  -0.001974  0.093992  0.276065  -0.002024  4.010576  -0.001
C  C147  1  0.25317816  0.84151916  0.91818528  1  0.430618  -0.001975  0.094097  0.2762  -0.002025  4.010493  -0.001
C  C148  1  0.24682952  0.34152383  0.41819099  1  0.430482  -0.001976  0.094059  0.276105  -0.002026  4.01054  -0.001
C  C149  1  0.74683085  0.15847776  0.08180807  1  0.43038  -0.001975  0.094092  0.276084  -0.002025  4.010587  -0.001
C  C150  1  0.81578941  0.73654149  0.62601580  1  0.069713  0.000506  -0.093188  -0.185172  0.00041  3.982034  0.001
C  C151  1  0.31579919  0.76346094  0.87398565  1  0.069463  0.000506  -0.093229  -0.18521  0.000411  3.982209  0.001
C  C152  1  0.18420791  0.26346015  0.37399120  1  0.06936  0.000506  -0.093175  -0.185098  0.000411  3.982031  0.001
C  C153  1  0.68421252  0.23654123  0.12600655  1  0.066494  0.000506  -0.093188  -0.185082  0.000411  3.982138  0.001
C  C154  1  0.85661144  0.78631653  0.58833457  1  -0.064881  -0.001557  -0.084236  -0.073802  -0.002112  3.98637  -0.001
C  C155  1  0.35661772  0.71368536  0.91166517  1  -0.064485  -0.001557  -0.08419  -0.073742  -0.002112  3.986527  -0.001
C  C156  1  0.14339577  0.21368576  0.41167215  1  -0.064523  -0.001557  -0.084068  -0.07352  -0.002113  3.98644  -0.001
C  C157  1  0.64340569  0.28631612  0.08832355  1  -0.061869  -0.001556  -0.084171  -0.073722  -0.002112  3.986429  -0.001
C  C158  1  0.83385853  0.75942291  0.50674164  1  -0.047316  0.000541  -0.02956  -0.079145  0.000119  4.009949  0.0
C  C159  1  0.33386546  0.74058154  0.99325959  1  -0.047617  0.000542  -0.029592  -0.079334  0.00012  4.010266  0.0
C  C160  1  0.16614598  0.24058400  0.49326797  1  -0.047115  0.00054  -0.029616  -0.079126  0.000119  4.010156  0.0
C  C161  1  0.66615884  0.25941599  0.00672811  1  -0.047172  0.000541  -0.029589  -0.079084  0.000119  4.010002  0.0
C  C162  1  0.76747032  0.68190613  0.46373908  1  -0.033604  6.5e-05  -0.082595  -0.077236  -4e-06  3.963583  0.0
C  C163  1  0.26747437  0.81809355  0.03626061  1  -0.033651  6.4e-05  -0.082562  -0.077004  -4e-06  3.963693  0.0
C  C164  1  0.23253690  0.31809945  0.53626893  1  -0.033919  6.4e-05  -0.082662  -0.077427  -5e-06  3.96402  0.0
C  C165  1  0.73254364  0.18189807  0.96372744  1  -0.034251  6.5e-05  -0.082562  -0.077224  -4e-06  3.964115  0.0
C  C166  1  0.72663299  0.63143350  0.50118324  1  -0.025784  -0.000146  -0.092332  -0.178456  -0.000189  3.94549  0.0
C  C167  1  0.22663231  0.86856466  0.99881363  1  -0.025746  -0.000146  -0.092472  -0.178782  -0.000189  3.945545  0.0
C  C168  1  0.27336973  0.36856941  0.49881890  1  -0.025484  -0.000146  -0.092319  -0.178405  -0.000189  3.945541  0.0
C  C169  1  0.77337221  0.13142766  0.00117844  1  -0.025215  -0.000146  -0.092336  -0.178484  -0.000189  3.945615  0.0
C  C170  1  0.88181898  0.81380223  0.46836162  1  1.566123  0.002197  0.227057  0.598717  0.001658  4.141101  0.003
C  C171  1  0.38181983  0.68619783  0.03163743  1  1.565933  0.002196  0.227073  0.598724  0.001656  4.141076  0.003
C  C172  1  0.11819004  0.18620071  0.53164482  1  1.566092  0.002197  0.227206  0.598762  0.001656  4.14076  0.003
C  C173  1  0.61819637  0.31379775  0.96835217  1  1.566132  0.0022  0.227147  0.598681  0.001658  4.140842  0.003
C  C174  1  0.29128551  0.71184351  0.60746954  1  0.505385  -0.153086  0.063151  0.226555  -0.159536  4.022672  -0.105
C  C175  1  0.79127864  0.78815620  0.89253078  1  0.50452  -0.153109  0.06313  0.226532  -0.159557  4.02261  -0.105
C  C176  1  0.70871631  0.28814949  0.39252602  1  0.505465  -0.153077  0.063222  0.226608  -0.159529  4.022578  -0.105
C  C177  1  0.20871778  0.21185330  0.10747449  1  0.50554  -0.153076  0.063185  0.226507  -0.159529  4.022783  -0.105
C  C178  1  0.32705543  0.68222452  0.52755521  1  -0.039794  0.028674  -0.106333  -0.19271  0.018707  4.025503  0.027
C  C179  1  0.82704831  0.81777860  0.97244548  1  -0.039725  0.02868  -0.106338  -0.192772  0.018709  4.025694  0.027
C  C180  1  0.67294819  0.31777177  0.47244111  1  -0.039525  0.028681  -0.106366  -0.192805  0.018707  4.025528  0.027
C  C181  1  0.17294901  0.18222696  0.02755931  1  -0.039615  0.028682  -0.106354  -0.192739  0.018708  4.025556  0.027
C  C182  1  0.30581377  0.73445861  0.48890688  1  -0.054441  -0.114532  -0.103014  -0.098873  -0.113066  3.994076  -0.066
C  C183  1  0.80580959  0.76554318  0.01109428  1  -0.047074  -0.114573  -0.103018  -0.098873  -0.113093  3.994159  -0.066
C  C184  1  0.69418895  0.26553703  0.51109025  1  -0.054547  -0.11453  -0.102931  -0.098616  -0.113054  3.994187  -0.066
C  C185  1  0.19418594  0.23445973  0.98890786  1  -0.054512  -0.114539  -0.103015  -0.098846  -0.113066  3.994337  -0.066
C  C186  1  0.24586389  0.81758422  0.52777936  1  0.012736  -0.015006  -0.052999  -0.106166  -0.027078  4.134144  0.005
C  C187  1  0.74584821  0.68242129  0.97222581  1  0.00497  -0.014993  -0.053014  -0.106092  -0.027079  4.134435  0.005
C  C188  1  0.75414872  0.18241738  0.47222333  1  0.012677  -0.015001  -0.053066  -0.106143  -0.027074  4.134448  0.005
C  C189  1  0.25414281  0.31758160  0.02777418  1  0.012588  -0.015002  -0.052997  -0.106146  -0.027076  4.134446  0.005
C  C190  1  0.20847868  0.84451803  0.60857439  1  -0.073545  -0.123078  -0.11414  -0.133619  -0.121527  4.024477  -0.072
C  C191  1  0.70846235  0.65548735  0.89143011  1  -0.073545  -0.123066  -0.114113  -0.13373  -0.121514  4.024826  -0.072
C  C192  1  0.79154023  0.15548424  0.39143018  1  -0.073659  -0.123091  -0.114088  -0.133774  -0.121537  4.024688  -0.072
C  C193  1  0.29153317  0.34451684  0.10856771  1  -0.073663  -0.123082  -0.114098  -0.13365  -0.121529  4.024639  -0.072
C  C194  1  0.23207493  0.79266940  0.64736640  1  -0.122338  0.030593  -0.107744  -0.185919  0.020508  4.026801  0.028
C  C195  1  0.73206300  0.70733013  0.85263531  1  -0.121615  0.030597  -0.107869  -0.185962  0.020506  4.026957  0.028
C  C196  1  0.76793499  0.20732757  0.35263286  1  -0.122361  0.030597  -0.107843  -0.185868  0.020508  4.026867  0.028
C  C197  1  0.26793432  0.29267540  0.14736572  1  -0.122439  0.030591  -0.107864  -0.185948  0.020503  4.02701  0.028
C  C198  1  0.22782492  0.86987939  0.48640216  1  1.125516  -0.244801  0.160623  0.454694  -0.258105  4.096844  -0.155
C  C199  1  0.72781669  0.63012478  0.01359974  1  1.126038  -0.244788  0.160553  0.454643  -0.25809  4.097208  -0.155
C  C200  1  0.77217510  0.13012419  0.51360185  1  1.125457  -0.2448  0.160534  0.454669  -0.258108  4.097031  -0.155
C  C201  1  0.27217253  0.36987678  0.98639866  1  1.125343  -0.24481  0.160617  0.454801  -0.258111  4.096843  -0.155
C  C202  1  0.30391872  0.16869707  0.76277670  1  0.436784  0.005341  0.009155  -0.009015  0.003344  3.979683  0.004
C  C203  1  0.80390644  0.33130006  0.73722344  1  0.436354  0.005341  0.009275  -0.008738  0.003343  3.979751  0.004
C  C204  1  0.69609119  0.83130120  0.23722039  1  0.436876  0.005336  0.009205  -0.008909  0.003342  3.980109  0.004
C  C205  1  0.19609448  0.66869758  0.26277716  1  0.436894  0.005338  0.009173  -0.008975  0.003343  3.980135  0.004
C  C206  1  0.33568277  0.09124536  0.69927625  1  0.23043  -0.002109  0.002608  -0.101813  -0.002532  3.905249  -0.002
C  C207  1  0.83568018  0.40874987  0.80071894  1  0.230669  -0.002109  0.002589  -0.101755  -0.002532  3.905467  -0.002
C  C208  1  0.66432445  0.90874500  0.30071666  1  0.231149  -0.00211  0.002516  -0.101878  -0.002533  3.905887  -0.002
C  C209  1  0.16432793  0.59125370  0.19928346  1  0.231079  -0.00211  0.002615  -0.101707  -0.002534  3.905805  -0.002
C  C210  1  0.39300684  0.20471978  0.67746803  1  0.966962  0.006846  0.144376  0.079929  0.005652  3.920024  0.005
C  C211  1  0.89299862  0.29527764  0.82253191  1  0.96797  0.006847  0.144255  0.079748  0.005653  3.920126  0.005
C  C212  1  0.60699587  0.79528508  0.32253166  1  0.967051  0.006842  0.144304  0.079839  0.005649  3.919865  0.005
C  C213  1  0.10699780  0.70471606  0.17746929  1  0.967973  0.006843  0.144276  0.079711  0.00565  3.919968  0.005
C  C214  1  0.44510656  0.05647134  0.57096088  1  0.292018  -0.010484  0.093175  0.158811  -0.010365  4.004705  -0.006
C  C215  1  0.94510138  0.44352822  0.92903789  1  0.292031  -0.010485  0.093151  0.158956  -0.010365  4.004412  -0.006
C  C216  1  0.55490785  0.94353481  0.42903610  1  0.292624  -0.01049  0.093142  0.158993  -0.01037  4.004355  -0.006
C  C217  1  0.05490223  0.55646550  0.07096438  1  0.292656  -0.01049  0.093162  0.159083  -0.010371  4.004257  -0.006
C  C218  1  0.48365307  0.08866974  0.51767926  1  -0.04079  -4.2e-05  -0.080517  -0.12738  -0.001727  3.974044  0.002
C  C219  1  0.98364725  0.41132796  0.98231780  1  -0.040392  -4e-05  -0.080544  -0.12744  -0.001727  3.974107  0.002
C  C220  1  0.51635684  0.91133243  0.48231187  1  -0.04135  -3.8e-05  -0.08041  -0.127305  -0.001724  3.973915  0.002
C  C221  1  0.01635276  0.58866708  0.01768714  1  -0.041509  -4e-05  -0.080478  -0.12748  -0.001726  3.974025  0.002
C  C222  1  0.46077353  0.96761491  0.55296193  1  0.079529  -0.018605  -0.087948  -0.146475  -0.019645  3.995627  -0.009
C  C223  1  0.96076615  0.53238666  0.94703740  1  0.079658  -0.018606  -0.087928  -0.146535  -0.019645  3.995561  -0.009
C  C224  1  0.53924357  0.03239122  0.44703290  1  0.079146  -0.018605  -0.087996  -0.146709  -0.019641  3.99573  -0.009
C  C225  1  0.03923567  0.46760904  0.05296673  1  0.078809  -0.018605  -0.087904  -0.14657  -0.01964  3.995618  -0.009
C  C226  1  0.05660006  0.57207924  0.78556229  1  0.4361  -0.000376  -0.023247  -0.065302  -0.000516  4.082218  0.0
C  C227  1  0.55657896  0.92791510  0.71443748  1  0.436512  -0.000376  -0.023269  -0.065321  -0.000517  4.082236  0.0
C  C228  1  0.94337478  0.42792438  0.21444602  1  0.435735  -0.000375  -0.02305  -0.065136  -0.000516  4.08225  0.0
C  C229  1  0.44337339  0.07207853  0.28555404  1  0.436097  -0.000375  -0.023088  -0.065199  -0.000516  4.082445  0.0
C  C230  1  0.04712199  0.51312572  0.70627037  1  0.239913  -0.000386  -0.010092  -0.11813  -0.000574  3.948888  0.0
C  C231  1  0.54711423  0.98686791  0.79372749  1  0.239799  -0.000386  -0.010124  -0.118113  -0.000574  3.948866  0.0
C  C232  1  0.95284295  0.48687793  0.29374278  1  0.239761  -0.000386  -0.010048  -0.118161  -0.000574  3.94888  0.0
C  C233  1  0.45285071  0.01312568  0.20625919  1  0.239748  -0.000386  -0.010085  -0.118069  -0.000574  3.949008  0.0
C  C234  1  0.02906538  0.65059187  0.72237105  1  0.970562  -0.00019  0.132034  0.100039  -0.000142  3.93527  0.0
C  C235  1  0.52905254  0.84940570  0.77763368  1  0.971298  -0.00019  0.131989  0.100217  -0.000142  3.935182  0.0
C  C236  1  0.97092834  0.34940907  0.27763139  1  0.970559  -0.00019  0.13195  0.09986  -0.000142  3.935368  0.0
C  C237  1  0.47093669  0.15059262  0.22236933  1  0.970597  -0.00019  0.131987  0.100065  -0.000142  3.935293  0.0
C  C238  1  0.01424466  0.53178304  0.58230981  1  0.342628  -0.000116  0.094128  0.164059  -6.8e-05  4.018913  0.0
C  C239  1  0.51424849  0.96821774  0.91769186  1  0.342357  -0.000116  0.0941  0.164043  -6.8e-05  4.01904  0.0
C  C240  1  0.98575176  0.46821396  0.41769269  1  0.342345  -0.000116  0.094069  0.163973  -6.8e-05  4.01877  0.0
C  C241  1  0.48576052  0.03178645  0.08230650  1  0.342361  -0.000116  0.09421  0.164149  -6.8e-05  4.01865  0.0
C  C242  1  0.04585073  0.58447517  0.54482488  1  0.054492  -0.000554  -0.090093  -0.149996  -0.000607  3.991201  0.0
C  C243  1  0.54585013  0.91552307  0.95517533  1  0.054529  -0.000554  -0.090088  -0.149992  -0.000607  3.99119  0.0
C  C244  1  0.95414569  0.41552121  0.45518327  1  0.054738  -0.000553  -0.089985  -0.149755  -0.000606  3.990833  0.0
C  C245  1  0.45415168  0.08447912  0.04481902  1  0.054612  -0.000553  -0.090059  -0.149857  -0.000606  3.991063  0.0
C  C246  1  0.03210962  0.55273119  0.46280369  1  -0.065787  -0.00026  -0.088341  -0.145297  -0.000275  3.982778  0.0
C  C247  1  0.53211525  0.94726773  0.03719673  1  -0.067199  -0.00026  -0.08841  -0.145383  -0.000275  3.982813  0.0
C  C248  1  0.96788680  0.44726719  0.53720739  1  -0.067484  -0.00026  -0.088559  -0.145756  -0.000275  3.983096  0.0
C  C249  1  0.46789646  0.05273641  0.96279571  1  -0.067226  -0.00026  -0.088523  -0.145593  -0.000275  3.983042  0.0
N  N250  1  0.34041035  0.23862005  0.74862354  1  -1.266643  0.047979  -0.351918  -0.312453  0.032021  3.572688  0.009
N  N251  1  0.84039342  0.26137720  0.75137728  1  -1.26644  0.047995  -0.351864  -0.312398  0.032021  3.572682  0.009
N  N252  1  0.65959417  0.76138415  0.25137590  1  -1.266927  0.047996  -0.351823  -0.312325  0.032014  3.572754  0.009
N  N253  1  0.15959850  0.73861782  0.24862497  1  -1.266924  0.047992  -0.351804  -0.312243  0.032014  3.572731  0.009
N  N254  1  0.39270078  0.11453778  0.64495567  1  -1.270115  0.004279  -0.226184  0.006469  0.00314  3.80184  0.004
N  N255  1  0.89269849  0.38545962  0.85504158  1  -1.27023  0.004279  -0.22623  0.006219  0.00314  3.801942  0.004
N  N256  1  0.60730913  0.88546640  0.35504161  1  -1.270832  0.004278  -0.22622  0.006353  0.00314  3.801872  0.004
N  N257  1  0.10730332  0.61453409  0.14496069  1  -1.270735  0.004278  -0.226268  0.00627  0.00314  3.801935  0.004
N  N258  1  0.02926379  0.56391101  0.66577553  1  -1.252686  -9.5e-05  -0.22995  0.006015  2e-06  3.794244  0.0
N  N259  1  0.52925884  0.93608916  0.83422593  1  -1.252593  -9.5e-05  -0.229928  0.005775  2e-06  3.794378  0.0
N  N260  1  0.97072003  0.43609061  0.33422985  1  -1.252421  -9.5e-05  -0.229939  0.00598  2e-06  3.794512  0.0
N  N261  1  0.47073038  0.06391044  0.16577276  1  -1.252382  -9.5e-05  -0.230021  0.005755  2e-06  3.794528  0.0
N  N262  1  0.04498022  0.65754001  0.79507028  1  -1.15335  -0.000801  -0.346896  -0.304009  -0.000847  3.315405  0.0
N  N263  1  0.54496595  0.84245431  0.70493268  1  -1.153448  -0.000801  -0.346807  -0.304003  -0.000848  3.31531  0.0
N  N264  1  0.95500901  0.34246686  0.20493449  1  -1.153079  -0.000802  -0.346956  -0.303925  -0.000847  3.315911  0.0
N  N265  1  0.45500978  0.15753609  0.29506615  1  -1.153136  -0.000802  -0.34694  -0.303982  -0.000847  3.315915  0.0
O  O266  1  0.38038634  0.41248834  0.72654141  1  -1.206948  0.044383  -0.314215  -0.573393  0.03252  2.245711  0.02
O  O267  1  0.88038245  0.08750902  0.77345687  1  -1.206913  0.044373  -0.314118  -0.573252  0.032512  2.245658  0.02
O  O268  1  0.61961728  0.58751327  0.27346343  1  -1.206958  0.044363  -0.314185  -0.573321  0.032512  2.245679  0.02
O  O269  1  0.11961847  0.91248792  0.22653810  1  -1.206994  0.044377  -0.314213  -0.573387  0.032515  2.245703  0.02
O  O270  1  0.56801400  0.45482261  0.77552309  1  -1.188965  0.005918  -0.325754  -0.561226  0.003649  2.232753  0.005
O  O271  1  0.06801479  0.04518166  0.72448089  1  -1.188968  0.005918  -0.325765  -0.561212  0.003649  2.232564  0.005
O  O272  1  0.43198782  0.54517901  0.22448176  1  -1.188827  0.005918  -0.325729  -0.561251  0.003648  2.232644  0.005
O  O273  1  0.93199062  0.95482450  0.27551717  1  -1.188784  0.005918  -0.325734  -0.561259  0.003648  2.232731  0.005
O  O274  1  0.29828455  0.65982157  0.64801520  1  -1.124797  -0.02522  -0.154247  -0.219386  -0.018872  2.60819  -0.011
O  O275  1  0.79827579  0.84018015  0.85198647  1  -1.124938  -0.025223  -0.154209  -0.219372  -0.018873  2.60821  -0.011
O  O276  1  0.70172086  0.34017474  0.35198381  1  -1.124894  -0.025221  -0.154247  -0.219398  -0.018871  2.608344  -0.011
O  O277  1  0.20172423  0.15982868  0.14801693  1  -1.125049  -0.025227  -0.154213  -0.21929  -0.018873  2.60833  -0.011
O  O278  1  0.72955454  0.60517717  0.61927850  1  -1.101658  -0.000103  -0.153102  -0.220879  9.7e-05  2.573931  0.0
O  O279  1  0.22955044  0.89482102  0.88072107  1  -1.10175  -0.000103  -0.153114  -0.220866  9.7e-05  2.573933  0.0
O  O280  1  0.27045447  0.39482245  0.38072341  1  -1.101692  -0.000103  -0.153096  -0.220808  9.7e-05  2.574045  0.0
O  O281  1  0.77045587  0.10517923  0.11927735  1  -1.101613  -0.000103  -0.153123  -0.220813  9.7e-05  2.574111  0.0
O  O282  1  0.25320701  0.84874520  0.41362797  1  -1.201372  -0.030685  -0.323762  -0.552477  -0.034393  2.406872  -0.036
O  O283  1  0.75320385  0.65125971  0.08637321  1  -1.201406  -0.030677  -0.323699  -0.552427  -0.034395  2.406998  -0.036
O  O284  1  0.74678401  0.15126166  0.58637519  1  -1.201421  -0.030698  -0.323693  -0.552519  -0.034395  2.407077  -0.036
O  O285  1  0.24679077  0.34873657  0.91362203  1  -1.201457  -0.030699  -0.323727  -0.552541  -0.034408  2.406761  -0.036
O  O286  1  0.17473466  0.95394998  0.52877851  1  -1.138413  0.012872  -0.350316  -0.521014  0.010729  2.427352  0.003
O  O287  1  0.67471669  0.54605399  0.97122803  1  -1.138547  0.01287  -0.350417  -0.521209  0.010735  2.427399  0.003
O  O288  1  0.82527705  0.04605234  0.47123251  1  -1.138432  0.012875  -0.350344  -0.521215  0.010736  2.427389  0.003
O  O289  1  0.32526354  0.45395088  0.02877274  1  -1.138291  0.012879  -0.350418  -0.521261  0.010733  2.427502  0.003
O  O290  1  0.89394774  0.78188877  0.39302634  1  -1.212597  0.003915  -0.299428  -0.542435  0.001354  2.227562  0.003
O  O291  1  0.39393843  0.71810871  0.10697334  1  -1.212473  0.003914  -0.299377  -0.542368  0.001353  2.227531  0.003
O  O292  1  0.10606757  0.21811025  0.60698231  1  -1.212901  0.003914  -0.299511  -0.542464  0.001353  2.22756  0.003
O  O293  1  0.60607777  0.28189081  0.89301568  1  -1.212682  0.003916  -0.299465  -0.542404  0.001354  2.227516  0.003
O  O294  1  0.91096647  0.89426125  0.51547085  1  -1.220581  0.054084  -0.313623  -0.585633  0.039152  2.34671  0.024
O  O295  1  0.41096837  0.60573819  0.98452805  1  -1.220349  0.054086  -0.313642  -0.585606  0.039152  2.346642  0.024
O  O296  1  0.08903534  0.10574299  0.48453396  1  -1.220219  0.054097  -0.313662  -0.585613  0.039155  2.346451  0.024
O  O297  1  0.58903704  0.39425415  0.01546671  1  -1.220062  0.054069  -0.313719  -0.585689  0.039155  2.346502  0.024
O  O298  1  0.13067541  0.35558143  0.74981108  1  -1.264856  0.054715  -0.558207  -0.728027  0.040483  2.106364  0.024
O  O299  1  0.63066976  0.14441840  0.75018755  1  -1.264818  0.054706  -0.558192  -0.727997  0.040482  2.106337  0.024
O  O300  1  0.86931471  0.64442798  0.25018236  1  -1.265037  0.054726  -0.558249  -0.728155  0.04048  2.106079  0.024
O  O301  1  0.36931946  0.85557202  0.24981450  1  -1.265036  0.054731  -0.558188  -0.728022  0.040477  2.106174  0.024
O  O302  1  0.25353000  0.51456122  0.87520239  1  -1.261105  0.053668  -0.564038  -0.740187  0.038974  2.147328  0.021
O  O303  1  0.75352557  0.98543705  0.62479781  1  -1.260735  0.053673  -0.564037  -0.740147  0.038971  2.14741  0.021
O  O304  1  0.74645923  0.48544101  0.12479734  1  -1.261032  0.05367  -0.564013  -0.740162  0.038973  2.147395  0.021
O  O305  1  0.24646185  0.01456061  0.37520494  1  -1.261056  0.053671  -0.56401  -0.740221  0.038972  2.147319  0.021
O  O306  1  0.49019337  0.40747815  0.87496812  1  -1.326429  0.112361  -0.556666  -0.797276  0.0866  2.260532  0.052
O  O307  1  0.99019207  0.09252027  0.62503460  1  -1.326392  0.112367  -0.556627  -0.797283  0.086607  2.260677  0.052
O  O308  1  0.50978686  0.59251686  0.12503198  1  -1.326397  0.112402  -0.556732  -0.797309  0.086614  2.26068  0.052
O  O309  1  0.00978726  0.90748462  0.37496939  1  -1.326455  0.112392  -0.556723  -0.797279  0.086606  2.260608  0.052
