# generated using pymatgen
data_Zn3H18C28(SO7)2
_symmetry_space_group_name_H-M   'P 1'
_cell_length_a   5.93630160
_cell_length_b   14.40649292
_cell_length_c   19.00246139
_cell_angle_alpha   94.03067414
_cell_angle_beta   90.00007215
_cell_angle_gamma   89.99933902
_symmetry_Int_Tables_number   1
_chemical_formula_structural   Zn3H18C28(SO7)2
_chemical_formula_sum   'Zn6 H36 C56 S4 O28'
_cell_volume   1621.09533321
_cell_formula_units_Z   2
loop_
 _symmetry_equiv_pos_site_id
 _symmetry_equiv_pos_as_xyz
  1  'x, y, z'
loop_
 _atom_site_type_symbol
 _atom_site_label
 _atom_site_symmetry_multiplicity
 _atom_site_fract_x
 _atom_site_fract_y
 _atom_site_fract_z
 _atom_site_occupancy
 _atom_site_pbe_bader_charge
 _atom_site_pbe_bader_spin_density
 _atom_site_pbe_cm5_charge
 _atom_site_pbe_ddec_charge
 _atom_site_pbe_ddec_spin_density
 _atom_site_pbe_ddec_sum_bond_order
 _atom_site_pbe_magmom
Zn  Zn0  1  0.49999246  0.50000156  0.49999912  1  1.394406  0  0.667132  1.031784  0  2.269267  0
Zn  Zn1  1  0.00002113  0.99999814  0.00000218  1  1.394483  0  0.667141  1.03178  0  2.269196  0
Zn  Zn2  1  0.01585626  0.59898515  0.52723054  1  1.310888  0  0.681858  0.990101  0  2.262072  0
Zn  Zn3  1  0.51587347  0.90101199  0.97276338  1  1.310599  0  0.681834  0.990056  0  2.262058  0
Zn  Zn4  1  0.98413034  0.40101375  0.47276117  1  1.310937  0  0.681841  0.990061  0  2.261995  0
Zn  Zn5  1  0.48415693  0.09898622  0.02722935  1  1.310903  0  0.681804  0.989957  0  2.262127  0
H  H6  1  0.18021805  0.46454266  0.58805741  1  0.642141  0  0.304968  0.417016  0  0.897355  0
H  H7  1  0.68027607  0.03544937  0.91193992  1  0.6422  0  0.30499  0.417018  0  0.897331  0
H  H8  1  0.81973991  0.53545488  0.41193897  1  0.642142  0  0.304968  0.416935  0  0.897419  0
H  H9  1  0.31978296  0.96454331  0.08805780  1  0.642146  0  0.304945  0.417006  0  0.897374  0
H  H10  1  0.68918194  0.67312939  0.35458658  1  0.110425  0  0.108151  0.120711  0  1.01561  0
H  H11  1  0.18916653  0.82687294  0.14541976  1  0.110664  0  0.10817  0.120756  0  1.015594  0
H  H12  1  0.31080971  0.32686885  0.64540984  1  0.110547  0  0.108184  0.120768  0  1.01553  0
H  H13  1  0.81079817  0.17313232  0.85458754  1  0.110432  0  0.108159  0.120726  0  1.015555  0
H  H14  1  0.82711628  0.79654285  0.27890385  1  0.131979  0  0.10485  0.110146  0  1.033963  0
H  H15  1  0.32711946  0.70345883  0.22109889  1  0.13189  0  0.104843  0.110149  0  1.033963  0
H  H16  1  0.17288043  0.20345540  0.72109467  1  0.132028  0  0.104831  0.110191  0  1.0339  0
H  H17  1  0.67285872  0.29653803  0.77890009  1  0.132031  0  0.104764  0.110009  0  1.033939  0
H  H18  1  0.21555312  0.95256272  0.32257707  1  0.100382  0  0.105758  0.112427  0  1.016876  0
H  H19  1  0.71557400  0.54743596  0.17742174  1  0.100427  0  0.105739  0.112414  0  1.016924  0
H  H20  1  0.78444021  0.04743621  0.67741939  1  0.100534  0  0.10574  0.112401  0  1.016865  0
H  H21  1  0.28443618  0.45255876  0.82256924  1  0.100489  0  0.105769  0.112463  0  1.016882  0
H  H22  1  0.09090477  0.83329341  0.40375253  1  0.102316  0  0.108738  0.116576  0  0.993816  0
H  H23  1  0.59090382  0.66670376  0.09624715  1  0.102329  0  0.108766  0.116585  0  0.993767  0
H  H24  1  0.90909362  0.16670551  0.59624287  1  0.102347  0  0.10882  0.116701  0  0.993745  0
H  H25  1  0.40906762  0.33329308  0.90374920  1  0.102519  0  0.108775  0.116581  0  0.993963  0
H  H26  1  0.23566396  0.08168933  0.22078174  1  0.11559  0  0.113362  0.128355  0  0.99407  0
H  H27  1  0.73566573  0.41831253  0.27921760  1  0.115638  0  0.113331  0.128326  0  0.994104  0
H  H28  1  0.76434791  0.91831031  0.77921738  1  0.115323  0  0.113357  0.128308  0  0.994047  0
H  H29  1  0.26432760  0.58168293  0.72078131  1  0.115673  0  0.113302  0.128323  0  0.994116  0
H  H30  1  0.12491606  0.23175880  0.28695776  1  0.110089  0  0.103165  0.106142  0  1.038689  0
H  H31  1  0.62493230  0.26824566  0.21304056  1  0.110445  0  0.103192  0.106108  0  1.038814  0
H  H32  1  0.87507727  0.76824153  0.71303981  1  0.110102  0  0.103184  0.106205  0  1.038772  0
H  H33  1  0.37508125  0.73174841  0.78695776  1  0.110502  0  0.103191  0.106121  0  1.038822  0
H  H34  1  0.74576551  0.23257673  0.40409537  1  0.09343  0  0.108177  0.117417  0  1.023599  0
H  H35  1  0.24580238  0.26742166  0.09591223  1  0.093318  0  0.108148  0.11739  0  1.02375  0
H  H36  1  0.25421941  0.76742711  0.59590764  1  0.093483  0  0.108156  0.117373  0  1.023728  0
H  H37  1  0.75423644  0.73257597  0.90409889  1  0.093594  0  0.108182  0.117425  0  1.023626  0
H  H38  1  0.85253620  0.08053423  0.34110036  1  0.135581  0  0.109499  0.11478  0  0.993813  0
H  H39  1  0.35253667  0.41946714  0.15890538  1  0.135482  0  0.109576  0.114896  0  0.993814  0
H  H40  1  0.14747398  0.91947171  0.65890434  1  0.135576  0  0.109525  0.114829  0  0.993886  0
H  H41  1  0.64746678  0.58053534  0.84110230  1  0.135629  0  0.109541  0.114819  0  0.993809  0
C  C42  1  0.30510942  0.67389792  0.43126554  1  1.572592  0  0.217305  0.595277  0  4.175982  0
C  C43  1  0.80510564  0.82610387  0.06874087  1  1.572254  0  0.217244  0.595041  0  4.176232  0
C  C44  1  0.69489065  0.32610383  0.56873737  1  1.571951  0  0.217264  0.595027  0  4.175993  0
C  C45  1  0.19487759  0.17389581  0.93126509  1  1.572874  0  0.217244  0.595112  0  4.176112  0
C  C46  1  0.38312668  0.74667755  0.38424967  1  -0.011087  0  -0.009577  -0.023394  0  3.93597  0
C  C47  1  0.88311818  0.75332178  0.11575511  1  -0.010689  0  -0.009532  -0.02321  0  3.935772  0
C  C48  1  0.61688013  0.25332418  0.61574955  1  -0.010474  0  -0.009544  -0.023235  0  3.935909  0
C  C49  1  0.11684651  0.24668069  0.88425204  1  -0.011455  0  -0.009441  -0.023269  0  3.936044  0
C  C50  1  0.58915076  0.73540552  0.34866783  1  0.019933  0  -0.072934  -0.069957  0  3.917581  0
C  C51  1  0.08914891  0.76459447  0.15133462  1  0.019927  0  -0.073009  -0.070175  0  3.917843  0
C  C52  1  0.41084426  0.26459410  0.65132655  1  0.019724  0  -0.07297  -0.070085  0  3.917455  0
C  C53  1  0.91081410  0.23541150  0.84867429  1  0.020301  0  -0.07302  -0.070141  0  3.917763  0
C  C54  1  0.66536394  0.80347064  0.30583288  1  -0.081378  0  -0.08272  -0.098724  0  3.974504  0
C  C55  1  0.16537577  0.69653036  0.19416600  1  -0.08052  0  -0.082674  -0.098569  0  3.974504  0
C  C56  1  0.33462940  0.19652898  0.69416203  1  -0.080846  0  -0.082599  -0.098618  0  3.974281  0
C  C57  1  0.83461083  0.30347207  0.80583431  1  -0.080848  0  -0.082587  -0.098364  0  3.974358  0
C  C58  1  0.52987780  0.88130378  0.29734410  1  -0.189487  0  -0.018666  -0.077344  0  3.977729  0
C  C59  1  0.02988173  0.61869997  0.20266059  1  -0.190424  0  -0.018708  -0.07749  0  3.97766  0
C  C60  1  0.47013069  0.11869938  0.70265993  1  -0.190069  0  -0.018731  -0.077483  0  3.97778  0
C  C61  1  0.97010150  0.38130035  0.79733699  1  -0.190502  0  -0.01863  -0.0775  0  3.977933  0
C  C62  1  0.32137912  0.89264066  0.33117200  1  -0.037715  0  -0.08298  -0.093309  0  3.982578  0
C  C63  1  0.82138988  0.60735825  0.16882902  1  -0.037776  0  -0.082972  -0.09328  0  3.982573  0
C  C64  1  0.67862264  0.10736246  0.66882624  1  -0.037787  0  -0.082854  -0.093175  0  3.982371  0
C  C65  1  0.17860009  0.39263930  0.83116842  1  -0.037442  0  -0.083064  -0.09341  0  3.982643  0
C  C66  1  0.25038298  0.82560734  0.37559437  1  -0.0248  0  -0.077268  -0.081375  0  3.941537  0
C  C67  1  0.75039694  0.67438699  0.12440267  1  -0.024737  0  -0.077262  -0.081355  0  3.941423  0
C  C68  1  0.74960867  0.17439225  0.62439738  1  -0.024955  0  -0.077452  -0.081593  0  3.941602  0
C  C69  1  0.24957787  0.32561126  0.87559638  1  -0.024719  0  -0.07731  -0.08132  0  3.941842  0
C  C70  1  0.54812122  0.07315156  0.27858693  1  -0.207211  0  -0.018254  -0.083183  0  3.995483  0
C  C71  1  0.04813993  0.42684772  0.22141738  1  -0.207295  0  -0.018242  -0.083264  0  3.995198  0
C  C72  1  0.45187886  0.92684811  0.72141693  1  -0.20707  0  -0.018315  -0.083413  0  3.995289  0
C  C73  1  0.95186183  0.57315404  0.77858763  1  -0.206929  0  -0.018302  -0.083267  0  3.995226  0
C  C74  1  0.34473980  0.11484607  0.26129317  1  0.030363  0  -0.077085  -0.088285  0  3.966517  0
C  C75  1  0.84475435  0.38515392  0.23871038  1  0.030385  0  -0.076999  -0.088136  0  3.966295  0
C  C76  1  0.65526196  0.88514802  0.73870778  1  0.030605  0  -0.077067  -0.088053  0  3.966439  0
C  C77  1  0.15524572  0.61484295  0.76129070  1  0.030245  0  -0.076997  -0.088239  0  3.966462  0
C  C78  1  0.28442831  0.19836850  0.29776456  1  -0.073547  0  -0.07815  -0.086516  0  3.944319  0
C  C79  1  0.78444360  0.30163384  0.20223643  1  -0.074088  0  -0.078248  -0.086592  0  3.944519  0
C  C80  1  0.71557851  0.80163253  0.70223463  1  -0.073308  0  -0.078148  -0.08663  0  3.944501  0
C  C81  1  0.21556995  0.69836371  0.79776206  1  -0.073863  0  -0.078247  -0.086555  0  3.944502  0
C  C82  1  0.42755552  0.24032840  0.34938968  1  -0.012233  0  -0.006569  -0.019375  0  3.931011  0
C  C83  1  0.92758554  0.25967400  0.15061460  1  -0.012177  0  -0.006426  -0.019133  0  3.930737  0
C  C84  1  0.57243445  0.75967820  0.65060979  1  -0.012825  0  -0.006514  -0.019261  0  3.930848  0
C  C85  1  0.07244823  0.74032291  0.84939281  1  -0.012492  0  -0.006485  -0.019268  0  3.930914  0
C  C86  1  0.63457051  0.19916528  0.36434224  1  0.044319  0  -0.074752  -0.078651  0  3.924401  0
C  C87  1  0.13459291  0.30083153  0.13566413  1  0.044541  0  -0.074888  -0.078825  0  3.924773  0
C  C88  1  0.36542283  0.80083718  0.63566123  1  0.044339  0  -0.074797  -0.078724  0  3.924888  0
C  C89  1  0.86543580  0.69916679  0.86434545  1  0.044593  0  -0.074819  -0.078754  0  3.924408  0
C  C90  1  0.69410712  0.11448390  0.32942042  1  -0.12233  0  -0.078243  -0.088021  0  3.973091  0
C  C91  1  0.19412707  0.38551193  0.17058543  1  -0.122571  0  -0.078219  -0.087952  0  3.972979  0
C  C92  1  0.30588959  0.88551714  0.67057929  1  -0.122436  0  -0.07825  -0.087944  0  3.973174  0
C  C93  1  0.80588817  0.61448706  0.82942155  1  -0.122722  0  -0.07818  -0.08788  0  3.972859  0
C  C94  1  0.35139068  0.32677573  0.39148422  1  1.570277  0  0.222224  0.602011  0  4.16738  0
C  C95  1  0.85142827  0.17322766  0.10851109  1  1.570519  0  0.222045  0.601718  0  4.1675  0
C  C96  1  0.64858750  0.67322945  0.60851044  1  1.570016  0  0.222158  0.601912  0  4.16726  0
C  C97  1  0.14861898  0.82676643  0.89149038  1  1.570131  0  0.222286  0.602091  0  4.167212  0
S  S98  1  0.62222205  0.96306814  0.23723011  1  2.444141  0  0.482048  0.975762  0  5.707665  0
S  S99  1  0.12222319  0.53693447  0.26277197  1  2.443779  0  0.482031  0.975662  0  5.707589  0
S  S100  1  0.37779993  0.03693986  0.76277047  1  2.444796  0  0.482104  0.975733  0  5.707482  0
S  S101  1  0.87775667  0.46306518  0.73722926  1  2.442837  0  0.482154  0.975856  0  5.707676  0
O  O102  1  0.13771192  0.69664039  0.47211594  1  -1.158294  0  -0.323642  -0.564739  0  2.32142  0
O  O103  1  0.63769872  0.80336009  0.02789131  1  -1.158289  0  -0.323602  -0.564703  0  2.321376  0
O  O104  1  0.86230163  0.30336136  0.52788749  1  -1.158347  0  -0.323578  -0.564674  0  2.321181  0
O  O105  1  0.36228282  0.19664307  0.97211377  1  -1.158605  0  -0.323653  -0.564716  0  2.321228  0
O  O106  1  0.40530085  0.59663009  0.42771120  1  -1.179448  0  -0.306128  -0.552386  0  2.368123  0
O  O107  1  0.90532182  0.90336213  0.07228482  1  -1.179326  0  -0.306093  -0.552244  0  2.368422  0
O  O108  1  0.59468069  0.40336603  0.57228195  1  -1.179375  0  -0.306118  -0.552255  0  2.368368  0
O  O109  1  0.09469510  0.09662916  0.92771336  1  -1.179605  0  -0.306081  -0.552243  0  2.368249  0
O  O110  1  0.49579464  0.37890099  0.42247922  1  -1.181852  0  -0.300623  -0.554322  0  2.315975  0
O  O111  1  0.99584049  0.12109764  0.07752861  1  -1.181838  0  -0.300556  -0.554201  0  2.316037  0
O  O112  1  0.50417343  0.62110423  0.57752123  1  -1.181645  0  -0.300568  -0.554279  0  2.316009  0
O  O113  1  0.00421349  0.87889302  0.92248164  1  -1.181701  0  -0.30063  -0.554395  0  2.316037  0
O  O114  1  0.13605779  0.33819972  0.39313183  1  -1.153349  0  -0.323966  -0.563062  0  2.352048  0
O  O115  1  0.63609234  0.16182058  0.10684992  1  -1.153145  0  -0.323847  -0.562953  0  2.352233  0
O  O116  1  0.86392544  0.66181306  0.60685373  1  -1.152952  0  -0.323982  -0.563143  0  2.352075  0
O  O117  1  0.36395828  0.83818387  0.89313997  1  -1.15326  0  -0.32402  -0.563117  0  2.351863  0
O  O118  1  0.86569022  0.95769637  0.23296895  1  -1.258327  0  -0.304623  -0.50826  0  2.18576  0
O  O119  1  0.36570130  0.54230442  0.26703378  1  -1.258051  0  -0.304681  -0.50829  0  2.185535  0
O  O120  1  0.13432839  0.04230330  0.76703544  1  -1.258686  0  -0.304627  -0.508209  0  2.185671  0
O  O121  1  0.63428361  0.45770219  0.73296831  1  -1.257689  0  -0.304729  -0.508308  0  2.185665  0
O  O122  1  0.48617633  0.94724022  0.17372757  1  -1.309959  0  -0.304239  -0.520874  0  2.222632  0
O  O123  1  0.98617162  0.55276486  0.32627074  1  -1.310016  0  -0.304232  -0.520779  0  2.222622  0
O  O124  1  0.51384733  0.05276082  0.82627161  1  -1.310202  0  -0.304324  -0.520877  0  2.222509  0
O  O125  1  0.01380824  0.44724035  0.67372866  1  -1.309673  0  -0.30427  -0.520887  0  2.222697  0
O  O126  1  0.18321128  0.48180268  0.53910387  1  -1.230606  0  -0.563264  -0.870805  0  2.336507  0
O  O127  1  0.68323773  0.01819281  0.96089311  1  -1.230723  0  -0.563254  -0.870778  0  2.336642  0
O  O128  1  0.81677026  0.51819695  0.46089262  1  -1.230677  0  -0.56323  -0.870728  0  2.336859  0
O  O129  1  0.31679267  0.98180334  0.03910425  1  -1.230636  0  -0.563274  -0.870803  0  2.33652  0
