# generated using pymatgen
data_Zn2H62C59N2O13
_symmetry_space_group_name_H-M   'P 1'
_cell_length_a   10.75488895
_cell_length_b   14.00836083
_cell_length_c   15.15527071
_cell_angle_alpha   91.93543382
_cell_angle_beta   91.85250667
_cell_angle_gamma   90.25905273
_symmetry_Int_Tables_number   1
_chemical_formula_structural   Zn2H62C59N2O13
_chemical_formula_sum   'Zn2 H62 C59 N2 O13'
_cell_volume   2280.73708289
_cell_formula_units_Z   1
loop_
 _symmetry_equiv_pos_site_id
 _symmetry_equiv_pos_as_xyz
  1  'x, y, z'
loop_
 _atom_site_type_symbol
 _atom_site_label
 _atom_site_symmetry_multiplicity
 _atom_site_fract_x
 _atom_site_fract_y
 _atom_site_fract_z
 _atom_site_occupancy
 _atom_site_pbe_bader_charge
 _atom_site_pbe_bader_spin_density
 _atom_site_pbe_cm5_charge
 _atom_site_pbe_ddec_charge
 _atom_site_pbe_ddec_spin_density
 _atom_site_pbe_ddec_sum_bond_order
 _atom_site_pbe_magmom
Zn  Zn0  1  0.50728527  0.60618901  0.50591642  1  1.295042  0  0.674894  0.839761  0  2.36146  0
Zn  Zn1  1  0.50903055  0.39698403  0.49647954  1  1.288825  0  0.684393  0.846911  0  2.360063  0
H  H2  1  0.11967830  0.61911445  0.57112313  1  0.057922  0  0.102593  0.046071  0  1.013774  0
H  H3  1  0.09704066  0.34941617  0.43452263  1  0.052377  0  0.100451  0.043025  0  1.001005  0
H  H4  1  0.79278219  0.62200061  0.92054305  1  0.062141  0  0.108563  0.125858  0  0.998363  0
H  H5  1  0.67648337  0.58180374  0.77681958  1  0.085702  0  0.104804  0.114634  0  1.003181  0
H  H6  1  0.34383256  0.41093953  0.77483680  1  0.096909  0  0.110855  0.124755  0  0.988909  0
H  H7  1  0.24755639  0.37125296  0.91735287  1  0.045503  0  0.103802  0.107387  0  0.990027  0
H  H8  1  0.25148342  0.38066462  0.08099301  1  0.06438  0  0.098429  0.097499  0  1.002698  0
H  H9  1  0.60597724  0.76166454  0.61210394  1  0.11544  0  0.124882  0.104295  0  1.002636  0
H  H10  1  0.60487716  0.25505038  0.61048945  1  0.119601  0  0.127399  0.105492  0  0.99909  0
H  H11  1  0.27484243  0.08393361  0.33438026  1  0.081123  0  0.109384  0.10915  0  0.999502  0
H  H12  1  0.25344080  0.91122495  0.34694883  1  0.099239  0  0.110112  0.112381  0  1.007404  0
H  H13  1  0.93139428  0.49196881  0.64603693  1  0.067854  0  0.116961  0.072104  0  0.963013  0
H  H14  1  0.91654358  0.36213521  0.57698801  1  0.09491  0  0.114487  0.069717  0  0.986246  0
H  H15  1  0.11480470  0.60499557  0.41533303  1  0.004797  0  0.09239  0.091334  0  1.007538  0
H  H16  1  0.10054532  0.49267070  0.35954324  1  0.01123  0  0.089303  0.08537  0  0.991142  0
H  H17  1  0.89896649  0.61418284  0.42512855  1  0.067965  0  0.092449  0.095434  0  1.015928  0
H  H18  1  0.88472259  0.50667246  0.36418907  1  0.018477  0  0.088736  0.08461  0  1.018666  0
H  H19  1  0.35808438  0.42985973  0.22267910  1  0.063088  0  0.104363  0.107174  0  0.996495  0
H  H20  1  0.70168112  0.58936847  0.22488762  1  0.08505  0  0.105657  0.112617  0  1.007073  0
H  H21  1  0.27381092  0.61875339  0.23952965  1  0.029811  0  0.082334  0.110751  0  1.023314  0
H  H22  1  0.18700774  0.72433189  0.22033295  1  -0.001319  0  0.076954  0.094599  0  1.019344  0
H  H23  1  0.31562948  0.69449975  0.15392463  1  0.036957  0  0.08783  0.118527  0  0.995251  0
H  H24  1  0.37501859  0.82414772  0.26766680  1  -0.022811  0  0.080355  0.062936  0  1.010916  0
H  H25  1  0.46242771  0.71932602  0.28370971  1  0.066076  0  0.090544  0.094445  0  1.001154  0
H  H26  1  0.32177138  0.66784920  0.39970540  1  0.114828  0  0.101533  0.11811  0  1.042511  0
H  H27  1  0.22810530  0.76913186  0.38491742  1  0.000481  0  0.092254  0.089702  0  0.987928  0
H  H28  1  0.43368957  0.23802870  0.15251296  1  0.017155  0  0.080506  0.10652  0  1.01054  0
H  H29  1  0.55908873  0.31102604  0.19345764  1  0.051508  0  0.084496  0.118629  0  1.036052  0
H  H30  1  0.58881654  0.19661043  0.14492346  1  0.021462  0  0.085231  0.110685  0  1.000264  0
H  H31  1  0.61043252  0.19918317  0.31149972  1  0.010194  0  0.090716  0.080536  0  0.983647  0
H  H32  1  0.49863814  0.11577885  0.26974063  1  -0.012663  0  0.082048  0.064788  0  1.00118  0
H  H33  1  0.32673705  0.22405795  0.31206104  1  -0.001451  0  0.093649  0.0962  0  0.990209  0
H  H34  1  0.43432749  0.31639880  0.34230174  1  0.095324  0  0.101408  0.1216  0  1.047572  0
H  H35  1  0.76473434  0.75961603  0.81785094  1  0.002559  0  0.085885  0.113207  0  1.008671  0
H  H36  1  0.80028893  0.86872725  0.87632857  1  0.031307  0  0.083032  0.106565  0  1.003613  0
H  H37  1  0.67314981  0.79735662  0.90766983  1  0.033548  0  0.088539  0.120493  0  1.001453  0
H  H38  1  0.59769614  0.93837450  0.81999380  1  0.007316  0  0.086942  0.074842  0  0.979901  0
H  H39  1  0.55873568  0.82886197  0.76519833  1  0.023303  0  0.090557  0.08128  0  0.98093  0
H  H40  1  0.74626712  0.84272318  0.67248947  1  0.015217  0  0.093965  0.087348  0  1.020914  0
H  H41  1  0.78808648  0.95048492  0.72731230  1  0.006697  0  0.095124  0.094019  0  0.998309  0
H  H42  1  0.83800018  0.28879847  0.74609913  1  0.022117  0  0.086638  0.115663  0  0.998  0
H  H43  1  0.91651266  0.19302569  0.79737261  1  0.007627  0  0.081075  0.104798  0  1.00637  0
H  H44  1  0.98342671  0.24978668  0.70679646  1  0.057039  0  0.08963  0.123437  0  1.014867  0
H  H45  1  0.88696323  0.09227482  0.65542965  1  0.011666  0  0.084956  0.071467  0  0.984318  0
H  H46  1  0.81019585  0.18815427  0.60548258  1  0.055182  0  0.090665  0.083229  0  1.001146  0
H  H47  1  0.64870080  0.18240167  0.72594700  1  0.04216  0  0.098304  0.0976  0  0.981504  0
H  H48  1  0.72220174  0.08077783  0.76617738  1  0.027168  0  0.09517  0.09413  0  0.996527  0
H  H49  1  0.06569600  0.60398142  0.75248066  1  0.041736  0  0.085325  0.077861  0  1.015861  0
H  H50  1  0.20233125  0.65288978  0.70556188  1  0.014405  0  0.087642  0.081716  0  0.994364  0
H  H51  1  0.21699540  0.55946874  0.78308984  1  0.065234  0  0.094865  0.097916  0  1.017316  0
H  H52  1  0.18076118  0.21525852  0.48073028  1  0.028393  0  0.081574  0.070906  0  1.034087  0
H  H53  1  0.04369023  0.19663767  0.54235188  1  0.025098  0  0.086674  0.07962  0  1.023559  0
H  H54  1  0.19462186  0.19560099  0.59688641  1  0.026527  0  0.0984  0.102358  0  0.978964  0
H  H55  1  0.99506470  0.71439718  0.53727717  1  0.038929  0  0.089008  0.080632  0  1.027059  0
H  H56  1  0.90211822  0.77239502  0.61745477  1  0.045169  0  0.093788  0.093356  0  1.008685  0
H  H57  1  0.82857124  0.71337187  0.52225455  1  0.055674  0  0.089109  0.092194  0  1.029637  0
H  H58  1  0.94389531  0.34984748  0.33437712  1  -0.005837  0  0.08281  0.067825  0  1.029033  0
H  H59  1  0.78050717  0.37362375  0.34774229  1  0.086728  0  0.089492  0.095939  0  1.023653  0
H  H60  1  0.83423851  0.25386370  0.33460444  1  0.070194  0  0.096937  0.097071  0  0.987945  0
H  H61  1  0.89090010  0.51926914  0.15899482  1  0.031149  0  0.091063  0.083747  0  1.008327  0
H  H62  1  0.98929798  0.62286827  0.15432294  1  0.066317  0  0.104164  0.110838  0  0.985261  0
H  H63  1  0.96562533  0.54576965  0.05812305  1  0.028158  0  0.093786  0.088808  0  0.993065  0
C  C64  1  0.49993374  0.50107321  0.66928536  1  1.590928  0  0.217853  0.605917  0  4.153772  0
C  C65  1  0.93009073  0.53997786  0.42334722  1  -0.058772  0  -0.169642  -0.181025  0  3.89556  0
C  C66  1  0.43164287  0.46353279  0.18637999  1  -0.042392  0  -0.085808  -0.165943  0  3.970618  0
C  C67  1  0.53108935  0.50834243  0.23277755  1  -0.039992  0  -0.013096  -0.01069  0  4.012259  0
C  C68  1  0.62633909  0.55204595  0.18806452  1  0.009862  0  -0.090679  -0.158802  0  3.96402  0
C  C69  1  0.62538235  0.54861000  0.09536760  1  -0.007111  0  -0.013885  -0.013906  0  4.035824  0
C  C70  1  0.52421435  0.50229393  0.04713024  1  -0.154349  0  -2.4e-05  0.007055  0  3.932295  0
C  C71  1  0.42575238  0.45994918  0.09382623  1  0.073565  0  -0.008023  0.077667  0  4.051017  0
C  C72  1  0.72290896  0.59060376  0.04607939  1  0.400685  0  0.075371  0.195983  0  4.069344  0
C  C73  1  0.71816635  0.58855129  0.95578896  1  0.05288  0  -0.09924  -0.255772  0  3.997684  0
C  C74  1  0.61652555  0.54397085  0.90650661  1  -0.009606  0  -0.011434  0.08889  0  4.071447  0
C  C75  1  0.27106757  0.48862329  0.49204943  1  1.583808  0  0.224563  0.611647  0  4.102311  0
C  C76  1  0.52033451  0.49875206  0.95325092  1  0.099833  0  -0.002873  -0.011065  0  3.929366  0
C  C77  1  0.42006677  0.45076091  0.90556280  1  0.011871  0  -0.012218  0.070077  0  4.057181  0
C  C78  1  0.32364367  0.40776477  0.95429599  1  0.050154  0  -0.091177  -0.132642  0  4.025646  0
C  C79  1  0.32583857  0.41299648  0.04449410  1  -0.147949  0  -0.096854  -0.145537  0  4.042893  0
C  C80  1  0.60691310  0.54463698  0.81398313  1  -0.077208  0  -0.084918  -0.152679  0  3.926263  0
C  C81  1  0.50878861  0.49738611  0.76789120  1  0.019137  0  -0.015743  -0.015892  0  4.007754  0
C  C82  1  0.41813546  0.44848435  0.81284257  1  -0.122333  0  -0.082823  -0.157488  0  3.938856  0
C  C83  1  0.40274780  0.79896106  0.44927611  1  0.52676  0  0.135831  0.237519  0  3.860552  0
C  C84  1  0.44245479  0.19811016  0.42804068  1  0.477661  0  0.138749  0.233706  0  3.888539  0
C  C85  1  0.54960972  0.80490458  0.56789144  1  0.518891  0  0.048987  0.040055  0  3.895263  0
C  C86  1  0.55760117  0.20673412  0.56252497  1  0.471705  0  0.059365  0.064887  0  3.867704  0
C  C87  1  0.55143501  0.90518617  0.57533083  1  -0.031158  0  -0.003774  -0.014483  0  4.00985  0
C  C88  1  0.55548373  0.10739091  0.57242395  1  0.034312  0  -0.003591  -0.020447  0  4.011944  0
C  C89  1  0.53253958  0.50867341  0.33181152  1  1.583029  0  0.222496  0.596092  0  4.178708  0
C  C90  1  0.47450745  0.95304207  0.51292048  1  -0.006874  0  0.009791  0.023727  0  3.97125  0
C  C91  1  0.47971359  0.05402779  0.50980311  1  -0.023694  0  0.009922  0.023567  0  3.97248  0
C  C92  1  0.39746969  0.89984144  0.45107220  1  0.005884  0  -0.002736  -0.01167  0  3.986089  0
C  C93  1  0.41558678  0.10085008  0.44049839  1  -0.004188  0  -0.000406  -0.011084  0  3.999031  0
C  C94  1  0.62809643  0.95991853  0.63965204  1  -0.052136  0  -0.002651  0.025851  0  3.902108  0
C  C95  1  0.62720887  0.05886412  0.63977703  1  0.069894  0  -2.5e-05  0.031897  0  3.905149  0
C  C96  1  0.33122777  0.04694006  0.38330591  1  -0.059846  0  -0.081629  -0.11475  0  4.019036  0
C  C97  1  0.31981726  0.95054271  0.39007666  1  -0.058054  0  -0.08278  -0.115905  0  4.006866  0
C  C98  1  0.74487639  0.49780626  0.51335317  1  1.589451  0  0.2173  0.600047  0  4.117489  0
C  C99  1  0.09114470  0.54478453  0.58241717  1  0.48307  0  0.000447  0.08313  0  3.822824  0
C  C100  1  0.07677134  0.38296821  0.49958005  1  0.445122  0  7.4e-05  0.085493  0  3.813988  0
C  C101  1  0.94849473  0.53971242  0.59146488  1  0.437718  0  0.006979  0.079068  0  3.77784  0
C  C102  1  0.93349311  0.38566132  0.50997430  1  0.450985  0  0.001795  0.070395  0  3.787346  0
C  C103  1  0.07278232  0.53364987  0.41888917  1  0.014312  0  -0.158136  -0.178163  0  3.88264  0
C  C104  1  0.13007772  0.48483386  0.50113483  1  0.032195  0  -0.016586  -0.075425  0  3.787798  0
C  C105  1  0.88580731  0.49078274  0.50631344  1  -0.011229  0  -0.020749  -0.08358  0  3.745765  0
C  C106  1  0.32451071  0.74276200  0.38197499  1  -0.034338  0  -0.165085  -0.24425  0  3.946429  0
C  C107  1  0.36839673  0.74910495  0.28642925  1  0.009544  0  -0.169064  -0.089927  0  3.941987  0
C  C108  1  0.28127909  0.69383686  0.22140445  1  -0.059749  0  -0.246174  -0.348085  0  3.973457  0
C  C109  1  0.42146130  0.23896232  0.33876557  1  0.010192  0  -0.164432  -0.25388  0  3.935361  0
C  C110  1  0.51862764  0.19285071  0.27734271  1  0.033808  0  -0.160805  -0.073598  0  3.936247  0
C  C111  1  0.52512211  0.23713022  0.18715889  1  -0.072126  0  -0.248297  -0.353407  0  3.964972  0
C  C112  1  0.70731672  0.90657355  0.70528845  1  0.015053  0  -0.161657  -0.202164  0  3.983937  0
C  C113  1  0.63787201  0.87510621  0.78670069  1  0.012071  0  -0.162593  -0.089239  0  3.961011  0
C  C114  1  0.72337792  0.82244398  0.85084064  1  -0.062073  0  -0.244303  -0.352616  0  3.969142  0
C  C115  1  0.70364138  0.11973902  0.70549965  1  -0.023088  0  -0.16005  -0.199897  0  3.973019  0
C  C116  1  0.82767936  0.15464232  0.66938275  1  -0.010051  0  -0.164721  -0.095823  0  3.955435  0
C  C117  1  0.89543540  0.22526999  0.73339667  1  -0.095381  0  -0.245322  -0.357275  0  3.967939  0
C  C118  1  0.15920732  0.58682108  0.72873171  1  0.407358  0  -0.14849  -0.164517  0  3.965111  0
C  C119  1  0.13762757  0.22900852  0.54516149  1  0.442108  0  -0.148661  -0.167446  0  3.983358  0
C  C120  1  0.90615016  0.71044568  0.57125710  1  0.371702  0  -0.152114  -0.172958  0  3.970916  0
C  C121  1  0.85742361  0.32479899  0.36392185  1  0.385465  0  -0.150331  -0.166098  0  3.971635  0
C  C122  1  0.92167360  0.57715413  0.11702224  1  0.409022  0  -0.137481  -0.161456  0  3.93385  0
N  N123  1  0.48021782  0.75431362  0.50661251  1  -1.251788  0  -0.311243  -0.24942  0  3.475653  0
N  N124  1  0.50659954  0.24923775  0.49164296  1  -1.239518  0  -0.315238  -0.250178  0  3.491119  0
O  O125  1  0.52856444  0.58102325  0.63710584  1  -1.166313  0  -0.319825  -0.550251  0  2.31127  0
O  O126  1  0.46512641  0.42527336  0.62692615  1  -1.1602  0  -0.314197  -0.545407  0  2.310498  0
O  O127  1  0.32246307  0.56829395  0.51323089  1  -1.178842  0  -0.313208  -0.556748  0  2.38854  0
O  O128  1  0.32547559  0.41556101  0.45990565  1  -1.174758  0  -0.31879  -0.551311  0  2.333098  0
O  O129  1  0.50241380  0.58622148  0.37046970  1  -1.16315  0  -0.298824  -0.521786  0  2.381921  0
O  O130  1  0.56077390  0.43087140  0.36819570  1  -1.175104  0  -0.304534  -0.542713  0  2.342526  0
O  O131  1  0.69558247  0.57668386  0.49275517  1  -1.168265  0  -0.313712  -0.548128  0  2.347956  0
O  O132  1  0.68755632  0.42486364  0.53928216  1  -1.171343  0  -0.319347  -0.550649  0  2.359738  0
O  O133  1  0.15531166  0.51448992  0.66034880  1  -1.038637  0  -0.232647  -0.199492  0  2.488939  0
O  O134  1  0.13563247  0.32835975  0.56680101  1  -1.037321  0  -0.232721  -0.198372  0  2.503701  0
O  O135  1  0.89647284  0.62794814  0.62328632  1  -1.036241  0  -0.241534  -0.216762  0  2.486202  0
O  O136  1  0.87144715  0.31247054  0.45639328  1  -1.063726  0  -0.241831  -0.215193  0  2.509506  0
O  O137  1  0.81977202  0.63761915  0.09220780  1  -1.085041  0  -0.220681  -0.209148  0  2.515646  0
