# generated using pymatgen
data_MnH7C7N2ClO4
_symmetry_space_group_name_H-M   'P 1'
_cell_length_a   7.72578317
_cell_length_b   8.18253040
_cell_length_c   16.35091305
_cell_angle_alpha   90.00026341
_cell_angle_beta   89.99968024
_cell_angle_gamma   114.99359457
_symmetry_Int_Tables_number   1
_chemical_formula_structural   MnH7C7N2ClO4
_chemical_formula_sum   'Mn4 H28 C28 N8 Cl4 O16'
_cell_volume   936.85094766
_cell_formula_units_Z   4
loop_
 _symmetry_equiv_pos_site_id
 _symmetry_equiv_pos_as_xyz
  1  'x, y, z'
loop_
 _atom_site_type_symbol
 _atom_site_label
 _atom_site_symmetry_multiplicity
 _atom_site_fract_x
 _atom_site_fract_y
 _atom_site_fract_z
 _atom_site_occupancy
 _atom_site_hle17_ddec_charge
 _atom_site_hle17_ddec_spin_density
 _atom_site_hle17_ddec_sum_bond_order
 _atom_site_hle17_magmom
 _atom_site_hse06_10hf_ddec_charge
 _atom_site_hse06_10hf_ddec_spin_density
 _atom_site_hse06_10hf_ddec_sum_bond_order
 _atom_site_hse06_10hf_magmom
 _atom_site_hse06_ddec_charge
 _atom_site_hse06_ddec_spin_density
 _atom_site_hse06_ddec_sum_bond_order
 _atom_site_hse06_magmom
 _atom_site_pbe_cm5_charge
 _atom_site_pbe_ddec_charge
 _atom_site_pbe_ddec_spin_density
 _atom_site_pbe_ddec_sum_bond_order
 _atom_site_pbe_magmom
Mn  Mn0  1  0.24895130  0.52318445  0.74731695  1  1.202665  4.784098  1.786567  4.678  1.059745  4.700043  2.284191  4.54  1.120657  4.753028  2.208813  4.603  0.513635  1.010652  4.643977  2.340508  4.475
Mn  Mn1  1  0.75096368  0.96833500  0.24338042  1  1.204117  -4.785698  1.787762  -4.678  1.059871  -4.710332  2.287972  -4.542  1.121131  -4.754409  2.212434  -4.603  0.516813  1.010921  -4.666093  2.343713  -4.483
Mn  Mn2  1  0.75096485  0.46833619  0.25661764  1  1.204248  -4.785645  1.787841  -4.678  1.059893  -4.710282  2.288093  -4.542  1.121151  -4.754368  2.212552  -4.603  0.516772  1.010938  -4.666045  2.343838  -4.483
Mn  Mn3  1  0.24895578  0.02318426  0.75267999  1  1.202602  -4.785674  1.786732  -4.678  1.059709  -4.706696  2.284276  -4.54  1.120622  -4.753536  2.208989  -4.603  0.51357  1.010619  -4.656696  2.340499  -4.475
H  H4  1  0.83596531  0.46162652  0.64236723  1  0.137182  -0.000148  0.945198  0.0  0.143619  -0.000177  1.011235  0.0  0.14738  -0.00024  1.008424  0.0  0.12015  0.140775  -0.000101  1.013523  0.0
H  H5  1  0.16431839  0.03871729  0.14216314  1  0.136148  0.000489  0.946008  0.0  0.142436  0.000257  1.012174  0.0  0.146115  0.00041  1.009412  0.0  0.119918  0.139674  7.2e-05  1.014377  -0.001
H  H6  1  0.16432003  0.53871671  0.35783180  1  0.136129  0.00049  0.945987  0.0  0.142425  0.00026  1.012189  0.0  0.146111  0.000413  1.009418  0.0  0.119898  0.139656  7.4e-05  1.014386  -0.001
H  H7  1  0.83596686  0.96162864  0.85763102  1  0.137217  0.00016  0.945108  0.0  0.143658  0.000185  1.01118  0.0  0.147419  0.000245  1.008365  0.0  0.120157  0.140817  0.000111  1.01347  0.0
H  H8  1  0.68991340  0.36797636  0.55552813  1  0.113961  7.2e-05  0.922624  0.0  0.127188  -0.000103  0.984329  0.0  0.129628  -2.7e-05  0.982793  0.0  0.122704  0.12536  -0.000187  0.985723  0.0
H  H9  1  0.31100146  0.13247644  0.05552325  1  0.114477  0.00012  0.920967  0.0  0.127688  -3e-06  0.981884  0.0  0.130067  3.2e-05  0.980402  0.0  0.123352  0.125917  -5e-05  0.983185  0.0
H  H10  1  0.31099383  0.63247769  0.44447397  1  0.114369  -7.7e-05  0.921024  0.0  0.127605  -0.000523  0.981976  0.0  0.129984  -0.000368  0.980499  0.0  0.123308  0.12583  -0.000694  0.983268  0.0
H  H11  1  0.68991345  0.86798030  0.94446967  1  0.113935  -8e-05  0.922602  0.0  0.127185  -0.000325  0.984307  0.0  0.129623  -0.000219  0.982771  0.0  0.122707  0.12536  -0.000445  0.985704  0.0
H  H12  1  0.74763232  0.76832551  0.69373425  1  0.138408  -1.2e-05  0.915156  0.0  0.143815  -1.3e-05  0.977311  0.0  0.147214  -1.4e-05  0.973241  0.0  0.156973  0.141221  -1.3e-05  0.980406  0.0
H  H13  1  0.25191504  0.73174372  0.19383678  1  0.137787  0.000693  0.915993  0.0  0.143673  0.000702  0.977915  0.0  0.146876  0.000738  0.974122  0.0  0.156675  0.141159  0.00065  0.980892  0.0
H  H14  1  0.25192298  0.23174112  0.30616327  1  0.137781  0.000687  0.916056  0.0  0.143686  0.000705  0.977959  0.0  0.146885  0.000741  0.974167  0.0  0.156687  0.141163  0.000654  0.980947  0.0
H  H15  1  0.74764639  0.26833369  0.80626623  1  0.138428  2.6e-05  0.915187  0.0  0.143794  1.9e-05  0.977344  0.0  0.147198  1.9e-05  0.973266  0.0  0.156944  0.141199  2e-05  0.980441  0.0
H  H16  1  0.73160767  0.58788252  0.44909207  1  0.139862  0.000408  0.958373  0.0  0.14482  0.000196  1.023148  0.0  0.148483  0.000311  1.021026  0.0  0.131794  0.142063  6.5e-05  1.024971  0.0
H  H17  1  0.26916107  0.91219519  0.94907430  1  0.141079  0.000549  0.957027  0.0  0.146203  0.000791  1.021111  0.0  0.149931  0.000717  1.018892  0.0  0.132158  0.14338  0.000858  1.023047  0.0
H  H18  1  0.26915100  0.41220339  0.55092532  1  0.141007  -0.000558  0.956991  0.0  0.14616  -0.000835  1.021042  0.0  0.149897  -0.000752  1.018793  0.0  0.132156  0.143328  -0.000917  1.023002  0.0
H  H19  1  0.73160172  0.08788262  0.05090700  1  0.139871  0.000383  0.958364  0.0  0.144861  0.000168  1.023102  0.0  0.148523  0.00029  1.020979  0.0  0.131802  0.142103  3e-05  1.024927  0.0
H  H20  1  0.76940758  0.94449161  0.44784479  1  0.141142  1.2e-05  0.960373  0.0  0.144245  -0.00035  1.029061  0.0  0.147998  -0.000117  1.026614  0.0  0.1262  0.141378  -0.000592  1.031149  0.0
H  H21  1  0.23031616  0.55550442  0.94797920  1  0.140228  -0.00073  0.961606  0.0  0.142602  -0.001209  1.031481  0.0  0.146393  -0.001023  1.028981  0.0  0.12623  0.139696  -0.00139  1.033639  0.0
H  H22  1  0.23030632  0.05550454  0.55202276  1  0.140248  0.000709  0.961481  0.0  0.142632  0.001164  1.031353  0.0  0.146425  0.000988  1.028853  0.0  0.126247  0.139724  0.001331  1.033514  0.0
H  H23  1  0.76940421  0.44449171  0.05215683  1  0.141193  3.7e-05  0.960226  0.0  0.144288  -0.000326  1.028927  0.0  0.148044  -9.8e-05  1.026478  0.0  0.126215  0.141419  -0.000562  1.031019  0.0
H  H24  1  0.66332518  0.07496888  0.64014940  1  0.13583  0.00016  0.94182  0.0  0.143012  0.000202  1.007416  0.0  0.146639  0.000248  1.004703  0.0  0.11963  0.140238  0.000148  1.009589  0.0
H  H25  1  0.33624670  0.42468936  0.13992006  1  0.136322  0.000398  0.941979  0.0  0.143111  0.000108  1.007484  -0.001  0.146778  0.000294  1.004801  0.0  0.119632  0.140326  -0.000112  1.00965  -0.001
H  H26  1  0.33624460  0.92468340  0.36008266  1  0.136284  0.000399  0.942105  0.0  0.143107  0.000113  1.007565  -0.001  0.146774  0.000298  1.004879  0.0  0.119627  0.14032  -0.000106  1.00973  -0.001
H  H27  1  0.66333294  0.57497910  0.85985636  1  0.135813  -0.000148  0.941809  0.0  0.143057  -0.000193  1.007365  0.0  0.146682  -0.000243  1.004655  0.0  0.119666  0.140273  -0.000137  1.009545  0.0
H  H28  1  0.81031740  0.16643996  0.55311136  1  0.115811  -0.000144  0.923486  0.0  0.127941  -0.000464  0.986378  0.0  0.130565  -0.000317  0.984519  0.0  0.121513  0.125941  -0.000622  0.987989  0.0
H  H29  1  0.18811588  0.33328612  0.05318555  1  0.115614  -5.4e-05  0.922981  0.0  0.127668  -0.000442  0.98543  0.0  0.130305  -0.000303  0.983649  0.0  0.121884  0.125669  -0.000596  0.986993  0.0
H  H30  1  0.18810823  0.83328739  0.44681491  1  0.115606  0.000109  0.923014  0.0  0.127665  -7.6e-05  0.985457  0.0  0.130302  -2.4e-05  0.983676  0.0  0.121893  0.125659  -0.000143  0.98702  0.0
H  H31  1  0.81032450  0.66644525  0.94689545  1  0.115871  3e-06  0.923613  0.0  0.128002  -0.000204  0.986523  0.0  0.130631  -9.1e-05  0.984655  0.0  0.121504  0.125998  -0.000326  0.988139  0.0
C  C32  1  0.53122776  0.36859758  0.66379630  1  0.703763  0.003009  3.845803  0.004  0.653243  0.003518  4.145833  0.004  0.688344  0.002763  4.139705  0.003  0.230279  0.628485  0.00443  4.149281  0.005
C  C33  1  0.46882992  0.13205043  0.16412309  1  0.703789  -0.007702  3.847818  -0.009  0.652891  -0.013459  4.147973  -0.013  0.687767  -0.010131  4.142016  -0.011  0.230784  0.62847  -0.016885  4.151209  -0.016
C  C34  1  0.46882824  0.63205918  0.33587616  1  0.703745  -0.007698  3.847768  -0.009  0.652898  -0.013454  4.147948  -0.013  0.68778  -0.010123  4.141994  -0.011  0.230765  0.62846  -0.016889  4.151176  -0.016
C  C35  1  0.53122976  0.86859149  0.83620192  1  0.703695  -0.002985  3.845972  -0.004  0.653264  -0.003542  4.145904  -0.004  0.688342  -0.002769  4.139807  -0.003  0.230283  0.628512  -0.004481  4.149359  -0.005
C  C36  1  0.70897170  0.45434450  0.60921450  1  -0.178039  -3.8e-05  3.606939  0.0  -0.237414  -5.9e-05  3.851578  0.0  -0.239116  -4.9e-05  3.85676  0.0  -0.052525  -0.236329  -8.1e-05  3.848814  0.0
C  C37  1  0.29161805  0.04610921  0.10923088  1  -0.177723  -0.002624  3.606634  -0.003  -0.235738  -0.002994  3.849871  -0.003  -0.237301  -0.002169  3.855143  -0.002  -0.051669  -0.234702  -0.003863  3.846923  -0.003
C  C38  1  0.29161687  0.54610612  0.39076680  1  -0.177579  -0.002683  3.606533  -0.003  -0.235709  -0.003185  3.849915  -0.003  -0.237289  -0.002311  3.855216  -0.002  -0.051598  -0.234629  -0.004104  3.84691  -0.003
C  C39  1  0.70897225  0.95434814  0.89078345  1  -0.177985  -7.9e-05  3.606874  0.0  -0.237487  -0.000208  3.8516  0.0  -0.239177  -0.000138  3.856778  0.0  -0.052594  -0.236421  -0.00028  3.848863  0.0
C  C40  1  0.74875250  0.76785624  0.62749758  1  0.186486  -4.7e-05  3.491447  0.0  0.111415  -4.5e-05  3.757996  0.0  0.130304  -2.6e-05  3.76242  0.0  0.18854  0.098875  -7e-05  3.755125  0.0
C  C41  1  0.25121192  0.73231844  0.12760134  1  0.186186  -0.000168  3.491633  -0.001  0.110199  -0.00011  3.759333  -0.001  0.129161  0.000346  3.763934  -0.001  0.187971  0.097636  -0.000841  3.756367  -0.001
C  C42  1  0.25121665  0.23231620  0.37239566  1  0.186196  -0.000156  3.491167  -0.001  0.11016  -0.000143  3.758891  -0.001  0.129125  0.00032  3.763502  -0.001  0.18796  0.0976  -0.000879  3.755937  -0.001
C  C43  1  0.74876086  0.26786209  0.87250289  1  0.18631  -6.2e-05  3.491811  0.0  0.111362  -8.9e-05  3.758185  0.0  0.130252  -7.6e-05  3.762603  0.0  0.188544  0.098824  -0.000102  3.755315  0.0
C  C44  1  0.74245272  0.68017602  0.49842518  1  -0.042661  -5.1e-05  3.623287  0.0  -0.087772  -0.000166  3.891713  0.0  -0.086319  -2.7e-05  3.909091  0.0  0.012209  -0.088908  -0.000339  3.880513  0.0
C  C45  1  0.25806836  0.82010082  0.99850998  1  -0.042322  6e-06  3.61965  0.0  -0.087451  -4.4e-05  3.888007  0.0  -0.085975  4.9e-05  3.905341  0.0  0.012523  -0.088605  -0.000173  3.876887  0.0
C  C46  1  0.25805941  0.32008716  0.50148640  1  -0.0423  -0.000378  3.620458  0.0  -0.087429  -0.000664  3.888819  0.0  -0.085945  -0.000507  3.906159  0.0  0.012381  -0.088587  -0.000866  3.877689  -0.001
C  C47  1  0.74244905  0.18017989  0.00157468  1  -0.042654  0.000269  3.623365  0.0  -0.087829  0.000236  3.891797  0.0  -0.086374  0.000264  3.909173  0.0  0.012192  -0.088975  0.000217  3.880629  0.0
C  C48  1  0.75826597  0.85326509  0.49778442  1  -0.034385  0.00013  3.619019  0.0  -0.079611  -0.000134  3.888175  0.0  -0.077332  -3.5e-05  3.905233  0.0  0.016368  -0.081255  -0.000225  3.877259  0.0
C  C49  1  0.24155696  0.64677151  0.99790372  1  -0.03316  -0.000551  3.617507  0.0  -0.078035  -0.001057  3.887146  -0.001  -0.075751  -0.000847  3.904085  -0.001  0.017015  -0.079683  -0.001309  3.876306  -0.001
C  C50  1  0.24155615  0.14678753  0.50209353  1  -0.033282  0.000299  3.618273  0.0  -0.078214  0.000401  3.887965  0.0  -0.075934  0.000423  3.90491  0.0  0.016983  -0.07986  0.000349  3.87712  0.0
C  C51  1  0.75826375  0.35326357  0.00221580  1  -0.034472  -0.00019  3.618932  0.0  -0.079702  -0.000526  3.888143  -0.001  -0.077422  -0.000321  3.905196  -0.001  0.016335  -0.081348  -0.000765  3.877235  -0.001
C  C52  1  0.79039583  0.08131805  0.60732538  1  -0.177341  -0.000252  3.603146  0.0  -0.236017  -0.000363  3.847109  0.0  -0.237618  -0.000274  3.852394  0.0  -0.052011  -0.234822  -0.000454  3.844129  0.0
C  C53  1  0.20888510  0.41858484  0.10739972  1  -0.177638  -0.002949  3.605349  -0.003  -0.235054  -0.003504  3.848383  -0.003  -0.236868  -0.002594  3.85399  -0.002  -0.051383  -0.233804  -0.004453  3.845252  -0.003
C  C54  1  0.20888442  0.91858580  0.39260027  1  -0.177679  -0.002887  3.605623  -0.003  -0.235091  -0.003296  3.848542  -0.003  -0.236901  -0.002444  3.854144  -0.002  -0.051379  -0.233816  -0.004192  3.845381  -0.003
C  C55  1  0.79040396  0.58132709  0.89267944  1  -0.177466  6.2e-05  3.603218  0.0  -0.236285  -9.9e-05  3.847346  0.0  -0.237888  -6.5e-05  3.852634  0.0  -0.052076  -0.235078  -0.00015  3.844372  0.0
C  C56  1  0.96731505  0.16703715  0.66256070  1  0.702191  -0.002555  3.849232  -0.003  0.651351  -0.003134  4.150077  -0.003  0.68641  -0.002485  4.144046  -0.003  0.229643  0.62659  -0.003869  4.1534  -0.004
C  C57  1  0.03262337  0.33312929  0.16299674  1  0.703631  -0.008244  3.847701  -0.009  0.65247  -0.014249  4.148932  -0.014  0.687519  -0.010624  4.142895  -0.011  0.230505  0.627815  -0.018055  4.152287  -0.017
C  C58  1  0.03262419  0.83314075  0.33700289  1  0.703463  -0.008234  3.84811  -0.009  0.652387  -0.014251  4.149256  -0.014  0.687436  -0.010627  4.143219  -0.011  0.230385  0.627728  -0.018048  4.152602  -0.017
C  C59  1  0.96732351  0.66703105  0.83744325  1  0.702248  0.002587  3.849102  0.003  0.651439  0.003102  4.14994  0.003  0.6865  0.002479  4.143906  0.003  0.229707  0.626677  0.003804  4.153268  0.004
N  N60  1  0.73738521  0.63082911  0.57964201  1  -0.015607  -0.000457  3.609801  0.0  0.071748  -0.000431  3.833401  0.0  0.058343  -0.000439  3.857648  0.0  -0.23033  0.080492  -0.000432  3.81715  0.0
N  N61  1  0.26337016  0.86958942  0.07972770  1  -0.015193  8.3e-05  3.608305  0.0  0.0719  -0.000415  3.831918  -0.001  0.058484  -0.000137  3.856195  0.0  -0.229785  0.080594  -0.000761  3.815679  -0.001
N  N62  1  0.26336971  0.36959420  0.42027386  1  -0.015102  0.000111  3.607775  0.0  0.072054  -0.00035  3.83143  0.0  0.058635  -8.5e-05  3.855716  0.0  -0.229679  0.080741  -0.000683  3.815178  -0.001
N  N63  1  0.73738545  0.13083253  0.92035696  1  -0.015607  0.000436  3.609986  0.0  0.071799  0.00036  3.833475  0.0  0.05839  0.000371  3.857729  0.0  -0.230255  0.080547  0.000349  3.81723  0.0
N  N64  1  0.76118548  0.90391210  0.57869983  1  -0.016188  0.000416  3.607005  0.0  0.071123  0.000319  3.830104  0.0  0.057485  0.000335  3.854417  0.0  -0.22933  0.079929  0.000299  3.813834  0.0
N  N65  1  0.23821820  0.59604747  0.07881860  1  -0.016004  9.8e-05  3.608821  0.0  0.071197  -0.00041  3.831943  0.0  0.057627  -0.000135  3.856358  0.0  -0.22966  0.079971  -0.000748  3.815618  -0.001
N  N66  1  0.23821980  0.09604819  0.42118300  1  -0.015908  2.2e-05  3.608681  0.0  0.071346  -0.000468  3.831759  -0.001  0.057774  -0.000189  3.856173  0.0  -0.229594  0.080113  -0.000813  3.815428  -0.001
N  N67  1  0.76119079  0.40391822  0.92130214  1  -0.015955  -0.000411  3.606864  0.0  0.071353  -0.000357  3.829938  0.0  0.057714  -0.000372  3.854254  0.0  -0.229283  0.080156  -0.000348  3.813671  0.0
Cl  Cl68  1  0.24842149  0.26917077  0.85557545  1  -0.647737  -0.007548  0.751755  -0.005  -0.601263  -0.007997  1.01383  -0.004  -0.621645  -0.006715  0.986083  -0.003  -0.312237  -0.583487  -0.009297  1.033499  -0.006
Cl  Cl69  1  0.75177893  0.23471286  0.35872115  1  -0.649088  -0.064841  0.746135  -0.041  -0.602527  -0.08918  1.008088  -0.05  -0.622819  -0.076483  0.980228  -0.041  -0.316532  -0.585084  -0.101401  1.027689  -0.059
Cl  Cl70  1  0.75177630  0.73470572  0.14127760  1  -0.649076  -0.064841  0.746166  -0.041  -0.60252  -0.089174  1.008122  -0.05  -0.622812  -0.076482  0.980257  -0.041  -0.316531  -0.585079  -0.101391  1.027724  -0.059
Cl  Cl71  1  0.24842178  0.76917309  0.64442207  1  -0.647745  0.007506  0.751803  0.005  -0.601266  0.007832  1.013878  0.004  -0.621647  0.006644  0.986122  0.003  -0.312221  -0.583489  0.009011  1.033554  0.006
O  O72  1  0.42943958  0.45390138  0.67245537  1  -0.659524  0.030107  2.149793  0.015  -0.596505  0.035011  2.428216  0.016  -0.627873  0.032366  2.415114  0.013  -0.304509  -0.573063  0.037509  2.436642  0.018
O  O73  1  0.57011302  0.04657625  0.17353824  1  -0.66197  -0.032854  2.154642  -0.018  -0.598418  -0.041184  2.434755  -0.022  -0.629977  -0.037015  2.421686  -0.019  -0.304553  -0.574849  -0.045258  2.442875  -0.026
O  O74  1  0.57012271  0.54657549  0.32646238  1  -0.662123  -0.032856  2.154187  -0.018  -0.598525  -0.041198  2.434281  -0.022  -0.630084  -0.037026  2.421195  -0.019  -0.304581  -0.574973  -0.045281  2.442467  -0.026
O  O75  1  0.42943305  0.95390200  0.82754576  1  -0.659605  -0.030134  2.149636  -0.015  -0.596597  -0.035083  2.427985  -0.016  -0.627957  -0.032378  2.414915  -0.013  -0.304575  -0.573144  -0.037651  2.436365  -0.018
O  O76  1  0.50386478  0.21700193  0.69421220  1  -0.644681  -0.026731  2.06233  -0.014  -0.580983  -0.030175  2.326657  -0.014  -0.612535  -0.028205  2.314641  -0.012  -0.303253  -0.557586  -0.031877  2.334378  -0.015
O  O77  1  0.49643832  0.28405199  0.19415519  1  -0.642822  -0.031628  2.05938  -0.02  -0.579095  -0.03918  2.323929  -0.025  -0.610572  -0.035024  2.311992  -0.021  -0.30253  -0.555822  -0.043189  2.331427  -0.028
O  O78  1  0.49643992  0.78404708  0.30584800  1  -0.642575  -0.031619  2.059665  -0.02  -0.578968  -0.039171  2.324269  -0.025  -0.61044  -0.035013  2.312329  -0.021  -0.302498  -0.555729  -0.043182  2.331836  -0.028
O  O79  1  0.50386804  0.71700646  0.80578819  1  -0.644619  0.026713  2.062655  0.014  -0.580954  0.030139  2.326953  0.014  -0.612494  0.028213  2.314931  0.012  -0.303217  -0.557556  0.031793  2.334687  0.015
O  O80  1  0.99690984  0.32080955  0.69094885  1  -0.646468  0.026775  2.069914  0.014  -0.582917  0.030423  2.336204  0.014  -0.614516  0.028402  2.32412  0.012  -0.304009  -0.559435  0.032189  2.343978  0.016
O  O81  1  0.00329449  0.17947125  0.19141092  1  -0.64927  -0.030903  2.073043  -0.019  -0.585475  -0.038717  2.34029  -0.024  -0.616994  -0.034575  2.327998  -0.02  -0.304708  -0.562172  -0.04277  2.34813  -0.027
O  O82  1  0.00329529  0.67947040  0.30858661  1  -0.649324  -0.030912  2.072938  -0.019  -0.585537  -0.038717  2.340176  -0.024  -0.617063  -0.034579  2.327887  -0.02  -0.304724  -0.562232  -0.042769  2.348017  -0.027
O  O83  1  0.99691610  0.82082084  0.80905415  1  -0.64656  -0.026815  2.069567  -0.014  -0.583003  -0.030466  2.335768  -0.014  -0.614602  -0.028401  2.323693  -0.012  -0.304061  -0.559521  -0.032289  2.34353  -0.016
O  O84  1  0.06534902  0.07896936  0.67398010  1  -0.655102  -0.030353  2.146773  -0.015  -0.59112  -0.035102  2.425102  -0.016  -0.622934  -0.032424  2.412933  -0.013  -0.302932  -0.567366  -0.03761  2.432887  -0.018
O  O85  1  0.93487443  0.42141117  0.17471610  1  -0.653843  -0.033291  2.141396  -0.019  -0.589766  -0.041092  2.419902  -0.023  -0.621461  -0.036851  2.407587  -0.019  -0.303071  -0.566209  -0.045234  2.4277  -0.027
O  O86  1  0.93488215  0.92141176  0.32528259  1  -0.653481  -0.033271  2.141547  -0.019  -0.589599  -0.041074  2.420136  -0.023  -0.62129  -0.036834  2.407824  -0.019  -0.302949  -0.566045  -0.045209  2.427931  -0.027
O  O87  1  0.06534622  0.57897537  0.82602112  1  -0.655073  0.030336  2.147027  0.015  -0.591085  0.035021  2.425407  0.016  -0.622897  0.032411  2.413217  0.013  -0.302945  -0.567333  0.037454  2.433218  0.018
