# generated using pymatgen
data_ZnH8(C5O2)2
_symmetry_space_group_name_H-M   'P 1'
_cell_length_a   4.88679567
_cell_length_b   9.63719882
_cell_length_c   19.73281228
_cell_angle_alpha   95.46913329
_cell_angle_beta   90.00002353
_cell_angle_gamma   90.00007950
_symmetry_Int_Tables_number   1
_chemical_formula_structural   ZnH8(C5O2)2
_chemical_formula_sum   'Zn4 H32 C40 O16'
_cell_volume   925.08667704
_cell_formula_units_Z   4
loop_
 _symmetry_equiv_pos_site_id
 _symmetry_equiv_pos_as_xyz
  1  'x, y, z'
loop_
 _atom_site_type_symbol
 _atom_site_label
 _atom_site_symmetry_multiplicity
 _atom_site_fract_x
 _atom_site_fract_y
 _atom_site_fract_z
 _atom_site_occupancy
 _atom_site_pbe_bader_spin_density
 _atom_site_pbe_cm5_charge
 _atom_site_pbe_ddec_charge
 _atom_site_pbe_ddec_spin_density
 _atom_site_pbe_ddec_sum_bond_order
 _atom_site_pbe_magmom
Zn  Zn0  1  0.80843014  0.29354143  0.23832977  1  0  0.698574  0.959421  0  2.26456  0
Zn  Zn1  1  0.30843206  0.20645849  0.76167009  1  0  0.698574  0.95945  0  2.264536  0
Zn  Zn2  1  0.19156680  0.70645887  0.76166989  1  0  0.698585  0.959442  0  2.26452  0
Zn  Zn3  1  0.69156897  0.79354181  0.23833008  1  0  0.698558  0.959424  0  2.264547  0
H  H4  1  0.09823289  0.51960056  0.14544355  1  0  0.110707  0.144939  0  0.97167  0
H  H5  1  0.59823455  0.98039900  0.85455636  1  0  0.110709  0.144945  0  0.971693  0
H  H6  1  0.90176405  0.48039973  0.85455611  1  0  0.110729  0.14497  0  0.971667  0
H  H7  1  0.40176648  0.01960234  0.14544385  1  0  0.110721  0.144949  0  0.971645  0
H  H8  1  0.99325676  0.36651077  0.09844988  1  0  0.108367  0.137819  0  1.019372  0
H  H9  1  0.49325667  0.13349032  0.90155055  1  0  0.108366  0.137837  0  1.019329  0
H  H10  1  0.00674427  0.63348953  0.90155028  1  0  0.108369  0.137843  0  1.019312  0
H  H11  1  0.50674232  0.86651101  0.09844966  1  0  0.108376  0.137822  0  1.019357  0
H  H12  1  0.59035507  0.61548871  0.11531266  1  0  0.094196  0.092851  0  1.039629  0
H  H13  1  0.09035358  0.88451189  0.88468729  1  0  0.094178  0.092824  0  1.039632  0
H  H14  1  0.40964392  0.38451159  0.88468751  1  0  0.094194  0.092822  0  1.03966  0
H  H15  1  0.90964541  0.11548840  0.11531236  1  0  0.09419  0.092822  0  1.039671  0
H  H16  1  0.13847236  0.31902136  0.98245523  1  0  0.096522  0.100425  0  1.030817  0
H  H17  1  0.63847386  0.18097738  0.01754506  1  0  0.096508  0.100417  0  1.030846  0
H  H18  1  0.86152663  0.68097789  0.01754489  1  0  0.0965  0.100423  0  1.030836  0
H  H19  1  0.36152718  0.81902187  0.98245505  1  0  0.096502  0.10042  0  1.030834  0
H  H20  1  0.68672330  0.72943282  0.38356973  1  0  0.110187  0.142293  0  0.999708  0
H  H21  1  0.18672106  0.77056681  0.61643019  1  0  0.110198  0.142316  0  0.999698  0
H  H22  1  0.31327774  0.27056748  0.61643044  1  0  0.110197  0.142305  0  0.999708  0
H  H23  1  0.81327793  0.22943348  0.38356997  1  0  0.110195  0.142304  0  0.999708  0
H  H24  1  0.35981368  0.67196674  0.35698681  1  0  0.112815  0.143625  0  0.956011  0
H  H25  1  0.85981457  0.82803301  0.64301312  1  0  0.1128  0.143588  0  0.956038  0
H  H26  1  0.64018531  0.32803355  0.64301335  1  0  0.112813  0.143595  0  0.956063  0
H  H27  1  0.14018646  0.17196624  0.35698699  1  0  0.112819  0.143605  0  0.956032  0
H  H28  1  0.18945227  0.43427451  0.40249755  1  0  0.097338  0.10255  0  1.014212  0
H  H29  1  0.68945237  0.06572636  0.59750284  1  0  0.097368  0.102581  0  1.01413  0
H  H30  1  0.81054672  0.56572579  0.59750261  1  0  0.097363  0.102575  0  1.014132  0
H  H31  1  0.31054662  0.93427393  0.40249732  1  0  0.097364  0.102578  0  1.014141  0
H  H32  1  0.85725224  0.67995399  0.49070737  1  0  0.095105  0.09671  0  1.039973  0
H  H33  1  0.35724996  0.82004576  0.50929257  1  0  0.095112  0.096714  0  1.040002  0
H  H34  1  0.14274880  0.32004526  0.50929274  1  0  0.095097  0.096695  0  1.039978  0
H  H35  1  0.64274903  0.17995453  0.49070708  1  0  0.095105  0.096688  0  1.039975  0
C  C36  1  0.32841009  0.34555713  0.16645790  1  0  0.2321  0.671922  0  4.073188  0
C  C37  1  0.82841082  0.15444280  0.83354246  1  0  0.232081  0.672008  0  4.073171  0
C  C38  1  0.67158890  0.65444316  0.83354226  1  0  0.23211  0.672006  0  4.073156  0
C  C39  1  0.17159022  0.84555854  0.16645724  1  0  0.232065  0.671941  0  4.073159  0
C  C40  1  0.17681593  0.42540840  0.11549630  1  0  -0.160004  -0.373475  0  3.934878  0
C  C41  1  0.67681857  0.07459246  0.88450358  1  0  -0.160018  -0.373568  0  3.934902  0
C  C42  1  0.82318102  0.57459085  0.88450330  1  0  -0.160053  -0.373592  0  3.934867  0
C  C43  1  0.32318042  0.92540679  0.11549704  1  0  -0.160004  -0.373474  0  3.934849  0
C  C44  1  0.34367783  0.46352386  0.05599585  1  0  -0.015521  0.136104  0  3.980894  0
C  C45  1  0.84367842  0.03647712  0.94400405  1  0  -0.015545  0.136079  0  3.980903  0
C  C46  1  0.65632116  0.53647748  0.94400436  1  0  -0.015528  0.136135  0  3.980921  0
C  C47  1  0.15632057  0.96352422  0.05599565  1  0  -0.015497  0.136141  0  3.980893  0
C  C48  1  0.54829672  0.56526706  0.06454597  1  0  -0.096298  -0.132175  0  3.976865  0
C  C49  1  0.04829750  0.93473247  0.93545393  1  0  -0.09629  -0.132125  0  3.976816  0
C  C50  1  0.45170227  0.43473220  0.93545414  1  0  -0.096308  -0.132175  0  3.976811  0
C  C51  1  0.95170148  0.06526782  0.06454624  1  0  -0.096328  -0.13222  0  3.976876  0
C  C52  1  0.29727387  0.39842835  0.99049575  1  0  -0.09348  -0.133954  0  3.973368  0
C  C53  1  0.79727514  0.10157051  0.00950405  1  0  -0.093447  -0.133913  0  3.973416  0
C  C54  1  0.70272512  0.60156986  0.00950381  1  0  -0.093491  -0.134031  0  3.973542  0
C  C55  1  0.20272385  0.89842978  0.99049611  1  0  -0.09347  -0.134003  0  3.973527  0
C  C56  1  0.67948307  0.54497140  0.31502318  1  0  0.228379  0.663781  0  4.0853  0
C  C57  1  0.17948554  0.95502822  0.68497673  1  0  0.228349  0.663713  0  4.085366  0
C  C58  1  0.32051387  0.45502890  0.68497698  1  0  0.228385  0.663758  0  4.085291  0
C  C59  1  0.82051550  0.04497103  0.31502338  1  0  0.22839  0.663766  0  4.085273  0
C  C60  1  0.55894004  0.63550546  0.37491546  1  0  -0.157856  -0.366984  0  3.933837  0
C  C61  1  0.05894216  0.86449407  0.62508494  1  0  -0.157842  -0.366941  0  3.933863  0
C  C62  1  0.44105895  0.36449379  0.62508414  1  0  -0.157873  -0.36696  0  3.933883  0
C  C63  1  0.94105887  0.13550622  0.37491572  1  0  -0.157884  -0.366977  0  3.93387  0
C  C64  1  0.52676145  0.56528347  0.43930094  1  0  -0.017791  0.130375  0  3.993735  0
C  C65  1  0.02676366  0.93471604  0.56069844  1  0  -0.017832  0.130294  0  3.99377  0
C  C66  1  0.47323754  0.43471578  0.56069866  1  0  -0.017775  0.130378  0  3.993722  0
C  C67  1  0.97323738  0.06528425  0.43930172  1  0  -0.017824  0.130317  0  3.993754  0
C  C68  1  0.32687368  0.46316903  0.44512197  1  0  -0.094206  -0.130835  0  3.980221  0
C  C69  1  0.82687568  0.03683194  0.55487793  1  0  -0.094212  -0.130828  0  3.980093  0
C  C70  1  0.67312531  0.53683126  0.55487768  1  0  -0.094234  -0.130841  0  3.980114  0
C  C71  1  0.17312331  0.96316836  0.44512223  1  0  -0.094223  -0.130863  0  3.980104  0
C  C72  1  0.69935112  0.60117758  0.49485784  1  0  -0.095358  -0.141176  0  3.991321  0
C  C73  1  0.19935109  0.89882102  0.50514254  1  0  -0.09531  -0.141084  0  3.991338  0
C  C74  1  0.30064787  0.39882168  0.50514278  1  0  -0.095336  -0.14113  0  3.991316  0
C  C75  1  0.80064994  0.10117927  0.49485762  1  0  -0.095331  -0.141088  0  3.991292  0
O  O76  1  0.20208598  0.30220779  0.21711313  1  0  -0.326437  -0.586542  0  2.342144  0
O  O77  1  0.70208880  0.19779309  0.78288727  1  0  -0.326475  -0.586605  0  2.342189  0
O  O78  1  0.79790892  0.69779251  0.78288704  1  0  -0.326486  -0.586612  0  2.342184  0
O  O79  1  0.29791224  0.80220720  0.21711290  1  0  -0.326453  -0.586593  0  2.342113  0
O  O80  1  0.58539849  0.32699508  0.15869876  1  0  -0.303537  -0.539254  0  2.357886  0
O  O81  1  0.08540045  0.17300572  0.84130111  1  0  -0.303463  -0.539243  0  2.357829  0
O  O82  1  0.41460050  0.67300522  0.84130089  1  0  -0.303485  -0.539232  0  2.357831  0
O  O83  1  0.91460058  0.82699458  0.15869906  1  0  -0.303513  -0.539239  0  2.357814  0
O  O84  1  0.71648056  0.41577721  0.32113553  1  0  -0.304956  -0.545519  0  2.355985  0
O  O85  1  0.21648405  0.08422368  0.67886435  1  0  -0.304932  -0.545504  0  2.356061  0
O  O86  1  0.28351843  0.58422309  0.67886412  1  0  -0.304965  -0.545529  0  2.355972  0
O  O87  1  0.78351903  0.91577661  0.32113581  1  0  -0.304967  -0.545534  0  2.355988  0
O  O88  1  0.73786286  0.59813829  0.25999868  1  0  -0.318825  -0.57289  0  2.340787  0
O  O89  1  0.23786323  0.90186137  0.74000175  1  0  -0.318831  -0.57286  0  2.340758  0
O  O90  1  0.26213817  0.40186096  0.74000093  1  0  -0.318831  -0.572873  0  2.340783  0
O  O91  1  0.76213575  0.09813892  0.25999891  1  0  -0.318831  -0.572863  0  2.340759  0
