# generated using pymatgen
data_ZnSiH4C8S4(N2F3)2
_symmetry_space_group_name_H-M   'P 1'
_cell_length_a   7.62855427
_cell_length_b   8.81208617
_cell_length_c   8.81215393
_cell_angle_alpha   91.42732963
_cell_angle_beta   86.54026632
_cell_angle_gamma   86.53943336
_symmetry_Int_Tables_number   1
_chemical_formula_structural   ZnSiH4C8S4(N2F3)2
_chemical_formula_sum   'Zn1 Si1 H4 C8 S4 N4 F6'
_cell_volume   589.98340279
_cell_formula_units_Z   1
loop_
 _symmetry_equiv_pos_site_id
 _symmetry_equiv_pos_as_xyz
  1  'x, y, z'
loop_
 _atom_site_type_symbol
 _atom_site_label
 _atom_site_symmetry_multiplicity
 _atom_site_fract_x
 _atom_site_fract_y
 _atom_site_fract_z
 _atom_site_occupancy
 _atom_site_pbe_bader_charge
 _atom_site_pbe_bader_spin_density
 _atom_site_pbe_cm5_charge
 _atom_site_pbe_ddec_charge
 _atom_site_pbe_ddec_spin_density
 _atom_site_pbe_ddec_sum_bond_order
 _atom_site_pbe_magmom
Zn  Zn0  1  0.49999995  0.49999847  0.50000341  1  1.307557  0  0.713722  0.812241  0  2.378714  0
Si  Si1  1  0.99999928  0.50000117  0.50000277  1  3.227558  0  0.251091  1.719078  0  3.963587  0
H  H2  1  0.23303854  0.50893761  0.23092423  1  0.201187  0  0.12655  0.138836  0  1.021312  0
H  H3  1  0.76696785  0.49105595  0.76907179  1  0.201292  0  0.126571  0.138836  0  1.021378  0
H  H4  1  0.23302705  0.23093549  0.50894530  1  0.201036  0  0.126539  0.138803  0  1.021342  0
H  H5  1  0.76696359  0.76907013  0.49105439  1  0.201209  0  0.126548  0.138795  0  1.021197  0
C  C6  1  0.36421750  0.50463848  0.17391903  1  0.567536  0  0.055568  0.080628  0  3.87183  0
C  C7  1  0.63579853  0.49535082  0.82607501  1  0.567315  0  0.055509  0.080649  0  3.871545  0
C  C8  1  0.59189825  0.49616321  0.98424654  1  -0.163629  0  -0.015143  -0.075444  0  4.063034  0
C  C9  1  0.40811466  0.50383294  0.01575461  1  -0.230329  0  -0.015166  -0.075365  0  4.06298  0
C  C10  1  0.36420386  0.17393010  0.50464546  1  0.567027  0  0.055578  0.080742  0  3.871558  0
C  C11  1  0.63577352  0.82607620  0.49535423  1  0.567514  0  0.055573  0.080667  0  3.871894  0
C  C12  1  0.59188637  0.98424633  0.49616180  1  -0.230254  0  -0.015144  -0.075388  0  4.062852  0
C  C13  1  0.40809779  0.01575671  0.50383389  1  -0.16352  0  -0.015183  -0.075483  0  4.063028  0
S  S14  1  0.69586444  0.49066643  0.15118533  1  0.704153  0  0.255869  0.318491  0  2.861208  0
S  S15  1  0.30414776  0.50932278  0.84881132  1  0.704299  0  0.255808  0.318335  0  2.861179  0
S  S16  1  0.69585032  0.15118429  0.49067274  1  0.704026  0  0.25578  0.318344  0  2.861175  0
S  S17  1  0.30413465  0.84882216  0.50932062  1  0.704384  0  0.255849  0.318362  0  2.861265  0
N  N18  1  0.50449932  0.49798839  0.25648798  1  -1.162448  0  -0.31763  -0.299564  0  3.43414  0
N  N19  1  0.49550897  0.50200189  0.74351241  1  -1.162641  0  -0.317642  -0.299508  0  3.434079  0
N  N20  1  0.50448477  0.25648908  0.49799495  1  -1.162092  0  -0.317641  -0.299532  0  3.434218  0
N  N21  1  0.49550431  0.74351639  0.50199919  1  -1.162568  0  -0.317641  -0.299415  0  3.434277  0
F  F22  1  0.22503213  0.52673863  0.52672637  1  -0.823884  0  -0.207517  -0.494472  0  1.337887  0
F  F23  1  0.77496790  0.47326979  0.47328387  1  -0.823936  0  -0.207516  -0.494478  0  1.337929  0
F  F24  1  0.00000799  0.36555605  0.63444276  1  -0.834886  0  -0.245546  -0.553916  0  1.135453  0
F  F25  1  0.99997900  0.63444837  0.36556065  1  -0.834858  0  -0.245603  -0.553951  0  1.13545  0
F  F26  1  0.94115184  0.63600379  0.63600844  1  -0.835359  0  -0.239583  -0.543139  0  1.130953  0
F  F27  1  0.05886536  0.36400288  0.36399806  1  -0.835696  0  -0.239603  -0.543152  0  1.130986  0
