# generated using pymatgen
data_Zr3H25C31O18
_symmetry_space_group_name_H-M   'P 1'
_cell_length_a   14.76734045
_cell_length_b   14.76944384
_cell_length_c   14.77292790
_cell_angle_alpha   60.42372565
_cell_angle_beta   59.91319198
_cell_angle_gamma   60.12617251
_symmetry_Int_Tables_number   1
_chemical_formula_structural   Zr3H25C31O18
_chemical_formula_sum   'Zr6 H50 C62 O36'
_cell_volume   2286.21193443
_cell_formula_units_Z   2
loop_
 _symmetry_equiv_pos_site_id
 _symmetry_equiv_pos_as_xyz
  1  'x, y, z'
loop_
 _atom_site_type_symbol
 _atom_site_label
 _atom_site_symmetry_multiplicity
 _atom_site_fract_x
 _atom_site_fract_y
 _atom_site_fract_z
 _atom_site_occupancy
 _atom_site_pbe_bader_charge
 _atom_site_pbe_bader_spin_density
 _atom_site_pbe_cm5_charge
 _atom_site_pbe_ddec_charge
 _atom_site_pbe_ddec_spin_density
 _atom_site_pbe_ddec_sum_bond_order
 _atom_site_pbe_magmom
Zr  Zr0  1  0.87942071  0.88254668  0.61627251  1  2.632883  0  1.627963  2.365468  0  2.768252  0
Zr  Zr1  1  0.12249681  0.11703855  0.38220770  1  2.631056  0  1.636055  2.37243  0  2.764235  0
Zr  Zr2  1  0.11840174  0.88050141  0.61976589  1  2.634061  0  1.63292  2.37474  0  2.756087  0
Zr  Zr3  1  0.88263618  0.12061613  0.37879275  1  2.632835  0  1.626731  2.369129  0  2.75739  0
Zr  Zr4  1  0.12039097  0.88080897  0.37889433  1  2.634513  0  1.630993  2.368147  0  2.767952  0
Zr  Zr5  1  0.88003493  0.11975375  0.61952200  1  2.636449  0  1.629665  2.369473  0  2.759395  0
H  H6  1  0.09271349  0.71847471  0.59065358  1  0.600262  0  0.32884  0.419385  0  0.8642  0
H  H7  1  0.09883526  0.09175061  0.21724455  1  0.590884  0  0.33195  0.424263  0  0.854337  0
H  H8  1  0.09316400  0.09209442  0.59726825  1  0.606694  0  0.331308  0.421233  0  0.858591  0
H  H9  1  0.71791202  0.09695053  0.59155329  1  0.598018  0  0.331582  0.422047  0  0.857834  0
H  H10  1  0.16750853  0.54510228  0.42498653  1  0.087251  0  0.102067  0.106719  0  1.023033  0
H  H11  1  0.82631098  0.46457248  0.56157355  1  0.078157  0  0.102366  0.107207  0  1.028913  0
H  H12  1  0.63660901  0.08130726  0.95168963  1  0.089355  0  0.103805  0.109216  0  1.023596  0
H  H13  1  0.37411175  0.90497540  0.05710380  1  0.065278  0  0.101927  0.106593  0  1.024665  0
H  H14  1  0.86257353  0.14119845  0.09060692  1  0.099625  0  0.100061  0.104772  0  1.032838  0
H  H15  1  0.12225214  0.84812608  0.92168376  1  0.115322  0  0.105894  0.122636  0  1.037099  0
H  H16  1  0.60076192  0.41550902  0.35288428  1  0.096373  0  0.101651  0.105411  0  1.031623  0
H  H17  1  0.41413579  0.59956866  0.63188359  1  0.080498  0  0.103395  0.112127  0  1.039999  0
H  H18  1  0.73961368  0.63442033  0.97014363  1  0.06107  0  0.102969  0.11707  0  0.979741  0
H  H19  1  0.82287542  0.54937723  0.88400279  1  0.074455  0  0.102264  0.114824  0  0.977178  0
H  H20  1  0.82515741  0.37881055  0.05376495  1  0.068759  0  0.101973  0.114129  0  0.980592  0
H  H21  1  0.74154077  0.46373994  0.13997529  1  0.064754  0  0.101536  0.11422  0  0.986282  0
H  H22  1  0.59642313  0.86073449  0.63313018  1  0.094472  0  0.105978  0.110942  0  1.029333  0
H  H23  1  0.41038529  0.13364583  0.35983936  1  0.092506  0  0.108838  0.116547  0  1.021538  0
H  H24  1  0.22795066  0.26310743  0.47307145  1  0.05296  0  0.090332  0.130607  0  1.006593  0
H  H25  1  0.23554785  0.34462018  0.33534447  1  0.084277  0  0.096301  0.14482  0  1.008736  0
H  H26  1  0.28036822  0.37413009  0.40668754  1  0.019314  0  0.089178  0.123891  0  0.999868  0
H  H27  1  0.71322395  0.63657339  0.58064055  1  0.037342  0  0.090924  0.126249  0  0.998896  0
H  H28  1  0.75945897  0.66422897  0.65224925  1  0.047147  0  0.094693  0.133376  0  0.999244  0
H  H29  1  0.76731502  0.74643404  0.51501353  1  0.061186  0  0.094993  0.139222  0  0.9994  0
H  H30  1  0.41296129  0.18532503  0.13031115  1  0.09402  0  0.097102  0.150203  0  1.004855  0
H  H31  1  0.44877827  0.05729063  0.23198123  1  0.049629  0  0.091482  0.134645  0  1.02459  0
H  H32  1  0.55530970  0.11083946  0.11917824  1  0.038559  0  0.087498  0.120739  0  1.003531  0
H  H33  1  0.54528582  0.94010795  0.77718654  1  0.065243  0  0.091856  0.133824  0  1.007079  0
H  H34  1  0.60595372  0.81067307  0.86152673  1  0.061723  0  0.093335  0.130236  0  1.009116  0
H  H35  1  0.45869799  0.86587454  0.89644107  1  0.036515  0  0.089765  0.124036  0  1.001303  0
H  H36  1  0.77385169  0.23689155  0.96727573  1  -0.004846  0  0.08625  0.116436  0  1.008456  0
H  H37  1  0.85541323  0.23352978  0.82916430  1  0.092177  0  0.095642  0.139667  0  0.995053  0
H  H38  1  0.76330669  0.15860178  0.91393638  1  0.051287  0  0.094952  0.135785  0  1.011286  0
H  H39  1  0.22613375  0.82944328  0.09103381  1  0.04058  0  0.090846  0.128366  0  1.009351  0
H  H40  1  0.12898994  0.76101638  0.18492085  1  0.070155  0  0.094898  0.141636  0  0.998951  0
H  H41  1  0.20447693  0.74854890  0.04962682  1  0.027135  0  0.091551  0.135481  0  1.006469  0
H  H42  1  0.48242149  0.53680177  0.25892247  1  0.02816  0  0.08692  0.117288  0  1.008888  0
H  H43  1  0.34147571  0.58935734  0.34018580  1  0.043316  0  0.094433  0.134642  0  1.009393  0
H  H44  1  0.42221845  0.67591746  0.25928182  1  0.067763  0  0.098299  0.145303  0  0.992257  0
H  H45  1  0.53572010  0.48213402  0.72215455  1  0.010847  0  0.090804  0.128341  0  1.000405  0
H  H46  1  0.58420239  0.34194060  0.73022147  1  0.086758  0  0.099461  0.146216  0  0.984374  0
H  H47  1  0.67521746  0.41782731  0.64558156  1  0.060929  0  0.093481  0.133752  0  1.022134  0
H  H48  1  0.47765431  0.76616063  0.72623677  1  0.027413  0  0.088845  0.121327  0  1.004518  0
H  H49  1  0.33700132  0.84509605  0.73283934  1  0.073342  0  0.098725  0.144947  0  0.989949  0
H  H50  1  0.41984357  0.76202646  0.64785890  1  0.064883  0  0.096786  0.142193  0  1.00105  0
H  H51  1  0.53201873  0.22481000  0.26373714  1  0.030438  0  0.090429  0.124494  0  1.001852  0
H  H52  1  0.58632605  0.23240119  0.34308351  1  0.046988  0  0.093933  0.134666  0  1.002387  0
H  H53  1  0.67208363  0.14644592  0.26063747  1  0.069466  0  0.095889  0.139281  0  1.002387  0
H  H54  1  0.09965343  0.48158368  0.19056564  1  0.623065  0  0.347519  0.383641  0  0.849381  0
H  H55  1  0.25895535  0.52338841  0.80967051  1  0.619242  0  0.343915  0.377983  0  0.856393  0
C  C56  1  0.99266443  0.70235101  0.49351518  1  1.545725  0  0.237839  0.648208  0  4.086567  0
C  C57  1  0.31146208  0.99490413  0.20168518  1  1.514524  0  0.239046  0.648418  0  4.080756  0
C  C58  1  0.00185471  0.30489873  0.49732097  1  1.557666  0  0.234706  0.643419  0  4.095597  0
C  C59  1  0.69660774  0.99581640  0.80444658  1  1.537571  0  0.23666  0.646594  0  4.084948  0
C  C60  1  0.99483541  0.70172172  0.80675573  1  1.559028  0  0.234358  0.638867  0  4.124045  0
C  C61  1  0.69936943  0.00273691  0.49048014  1  1.54508  0  0.236425  0.640072  0  4.092342  0
C  C62  1  0.99953472  0.30630728  0.20053825  1  1.569651  0  0.23531  0.640619  0  4.122218  0
C  C63  1  0.30756564  0.99172459  0.50238031  1  1.536838  0  0.236632  0.637961  0  4.092297  0
C  C64  1  0.30804740  0.69993845  0.49250760  1  1.535207  0  0.234668  0.640476  0  4.088143  0
C  C65  1  0.99059262  0.99923650  0.80880781  1  1.545199  0  0.237356  0.644745  0  4.077413  0
C  C66  1  0.70149828  0.30990713  0.49715504  1  1.533918  0  0.235952  0.642512  0  4.085806  0
C  C67  1  0.99972957  0.99474267  0.19810976  1  1.536969  0  0.236588  0.645779  0  4.081417  0
C  C68  1  0.00362171  0.40656808  0.49438933  1  -0.074622  0  -0.018576  -0.097682  0  3.949633  0
C  C69  1  0.99018464  0.60273869  0.49295753  1  0.006413  0  -0.016054  -0.090885  0  3.93974  0
C  C70  1  0.10341885  0.42676237  0.45450014  1  0.020442  0  -0.002263  0.156786  0  3.94833  0
C  C71  1  0.89053653  0.58258695  0.53253633  1  0.000688  0  -0.001433  0.156912  0  3.952082  0
C  C72  1  0.09284590  0.52604853  0.45469873  1  -0.091406  0  -0.089275  -0.16269  0  3.963355  0
C  C73  1  0.90094003  0.48360172  0.53198669  1  -0.025345  0  -0.088153  -0.159094  0  3.962121  0
C  C74  1  0.41394507  0.99462903  0.10200871  1  -0.024352  0  -0.013488  -0.091531  0  3.927188  0
C  C75  1  0.59649517  0.99240932  0.90643368  1  -0.063136  0  -0.016336  -0.09398  0  3.940159  0
C  C76  1  0.48752131  0.04607548  0.07466701  1  0.01341  0  0.007143  0.17705  0  3.923773  0
C  C77  1  0.52303489  0.94056744  0.93400179  1  -0.007369  0  -0.00247  0.155319  0  3.949824  0
C  C78  1  0.57748417  0.04289029  0.97629380  1  -0.018565  0  -0.084205  -0.154702  0  3.944846  0
C  C79  1  0.43340999  0.94320260  0.03255552  1  0.013544  0  -0.08943  -0.16306  0  3.965945  0
C  C80  1  0.98740056  0.00083207  0.91073555  1  -0.025403  0  -0.016026  -0.096265  0  3.927707  0
C  C81  1  0.99931667  0.99024076  0.09951475  1  -0.020057  0  -0.01672  -0.09799  0  3.93324  0
C  C82  1  0.91029556  0.08612858  0.95795723  1  -0.040058  0  -0.000709  0.159353  0  3.941765  0
C  C83  1  0.07528847  0.90427228  0.05316822  1  0.009739  0  0.003812  0.168315  0  3.92255  0
C  C84  1  0.91956683  0.07734442  0.05166146  1  -0.02104  0  -0.091317  -0.165989  0  3.969935  0
C  C85  1  0.06635845  0.91312591  0.95910701  1  -0.018579  0  -0.08404  -0.152943  0  3.927894  0
C  C86  1  0.41181674  0.60144986  0.48759388  1  -0.118829  0  -0.017289  -0.094119  0  3.927154  0
C  C87  1  0.60190076  0.41260621  0.49807917  1  -0.041399  0  -0.016228  -0.094654  0  3.922913  0
C  C88  1  0.46395832  0.55108236  0.40523164  1  0.069739  0  0.000586  0.161744  0  3.937714  0
C  C89  1  0.55046971  0.46376087  0.57970428  1  0.045015  0  0.001377  0.164815  0  3.93495  0
C  C90  1  0.55817408  0.45751705  0.41391735  1  -0.078657  0  -0.089809  -0.163179  0  3.962495  0
C  C91  1  0.45642651  0.55762037  0.57084665  1  -0.013336  0  -0.091168  -0.169897  0  3.956811  0
C  C92  1  0.99584061  0.60317122  0.90871152  1  -0.009358  0  -0.006626  -0.093592  0  3.945522  0
C  C93  1  0.99864961  0.40823751  0.10210818  1  -0.008132  0  -0.007648  -0.095803  0  3.952829  0
C  C94  1  0.91521262  0.55358358  0.96161560  1  -0.00096  0  0.002681  0.076138  0  3.88273  0
C  C95  1  0.08189144  0.45721119  0.04975846  1  -0.049726  0  -0.006965  -0.10174  0  3.963056  0
C  C96  1  0.91628379  0.45962509  0.05536464  1  0.047211  0  0.002713  0.07483  0  3.880255  0
C  C97  1  0.07996019  0.55314538  0.95584618  1  -0.014685  0  -0.007504  -0.100595  0  3.956328  0
C  C98  1  0.81131557  0.55996115  0.95809169  1  -0.047182  0  -0.146173  -0.199347  0  3.864886  0
C  C99  1  0.81257828  0.45332325  0.06433127  1  -0.020384  0  -0.147438  -0.197156  0  3.863343  0
C  C100  1  0.40902451  0.98997101  0.50323936  1  -0.068058  0  -0.014923  -0.096381  0  3.934409  0
C  C101  1  0.59864010  0.00356048  0.48895082  1  -0.027166  0  -0.015897  -0.098521  0  3.936255  0
C  C102  1  0.46029085  0.90967936  0.58362874  1  0.013224  0  0.003425  0.165603  0  3.936147  0
C  C103  1  0.54739634  0.08362977  0.40852024  1  -0.042875  0  0.002666  0.165675  0  3.935015  0
C  C104  1  0.55419910  0.92021595  0.57316685  1  -0.003032  0  -0.087285  -0.16357  0  3.964295  0
C  C105  1  0.45303251  0.07368938  0.41936054  1  0.002655  0  -0.085758  -0.161501  0  3.957147  0
C  C106  1  0.21778946  0.34797091  0.41548184  1  -0.056335  0  -0.242135  -0.413743  0  3.968382  0
C  C107  1  0.77663956  0.66147417  0.57199687  1  -0.047259  0  -0.239367  -0.41  0  3.973615  0
C  C108  1  0.47570556  0.10239999  0.14323222  1  -0.077271  0  -0.243169  -0.420505  0  3.960206  0
C  C109  1  0.53360892  0.88658730  0.86369472  1  -0.077206  0  -0.240599  -0.410039  0  3.979572  0
C  C110  1  0.82103987  0.18407546  0.91490573  1  -0.060701  0  -0.240227  -0.408211  0  3.975195  0
C  C111  1  0.16350571  0.80521949  0.09690369  1  -0.027752  0  -0.241234  -0.413452  0  3.960031  0
C  C112  1  0.42575794  0.59024094  0.31077869  1  -0.045911  0  -0.239274  -0.408641  0  3.972332  0
C  C113  1  0.58827661  0.42474847  0.67437596  1  -0.06291  0  -0.239866  -0.413373  0  3.963762  0
C  C114  1  0.42184383  0.81583119  0.67757217  1  -0.057879  0  -0.237964  -0.410288  0  3.963335  0
C  C115  1  0.58637407  0.17690138  0.31383631  1  -0.062502  0  -0.238801  -0.40995  0  3.969717  0
C  C116  1  0.18217355  0.40326379  0.08551620  1  1.566568  0  0.231257  0.584736  0  4.141057  0
C  C117  1  0.16749339  0.60325268  0.91368152  1  1.557119  0  0.233751  0.586314  0  4.133792  0
O  O118  1  0.91681749  0.74203586  0.57124839  1  -1.182065  0  -0.35586  -0.616393  0  2.297792  0
O  O119  1  0.26963699  0.07158601  0.24260219  1  -1.169812  0  -0.351963  -0.602196  0  2.306869  0
O  O120  1  0.07926973  0.26268131  0.42191822  1  -1.179029  0  -0.355513  -0.613396  0  2.319489  0
O  O121  1  0.73780126  0.92048183  0.76171293  1  -1.181035  0  -0.358511  -0.615835  0  2.319905  0
O  O122  1  0.07295286  0.74027932  0.76547230  1  -1.17546  0  -0.349927  -0.61185  0  2.340597  0
O  O123  1  0.74001670  0.07932473  0.41621657  1  -1.185999  0  -0.352624  -0.607018  0  2.324119  0
O  O124  1  0.92309040  0.26739898  0.23664566  1  -1.170377  0  -0.3471  -0.601664  0  2.269897  0
O  O125  1  0.26478253  0.91718461  0.57844258  1  -1.176283  0  -0.352028  -0.604683  0  2.321902  0
O  O126  1  0.26542726  0.73932085  0.41823973  1  -1.180132  0  -0.353595  -0.608947  0  2.330435  0
O  O127  1  0.91566898  0.07579640  0.76651741  1  -1.190248  0  -0.357575  -0.6148  0  2.326061  0
O  O128  1  0.74069337  0.26678514  0.57488364  1  -1.177882  0  -0.353349  -0.609894  0  2.32683  0
O  O129  1  0.07692851  0.92051987  0.23787661  1  -1.189332  0  -0.354712  -0.611599  0  2.329389  0
O  O130  1  0.06874717  0.92290232  0.76848937  1  -1.185235  0  -0.351549  -0.613256  0  2.282583  0
O  O131  1  0.74039813  0.27048477  0.41987032  1  -1.177433  0  -0.354231  -0.623677  0  2.281294  0
O  O132  1  0.92403037  0.07369234  0.23604652  1  -1.196312  0  -0.357939  -0.627316  0  2.286438  0
O  O133  1  0.26713874  0.73724072  0.57178164  1  -1.17644  0  -0.353233  -0.621988  0  2.291279  0
O  O134  1  0.91877531  0.73754858  0.76812764  1  -1.164585  0  -0.33508  -0.595323  0  2.247205  0
O  O135  1  0.26862104  0.06908828  0.42581766  1  -1.185269  0  -0.35365  -0.62064  0  2.309542  0
O  O136  1  0.07638217  0.26626553  0.23966055  1  -1.175793  0  -0.338644  -0.605307  0  2.324934  0
O  O137  1  0.73797518  0.92582813  0.56744300  1  -1.188226  0  -0.35516  -0.623938  0  2.312281  0
O  O138  1  0.73489124  0.07323046  0.76640942  1  -1.180357  0  -0.350895  -0.619807  0  2.273239  0
O  O139  1  0.07243645  0.73856147  0.41882292  1  -1.180703  0  -0.350925  -0.621352  0  2.27427  0
O  O140  1  0.27004215  0.92011832  0.23802645  1  -1.179448  0  -0.356595  -0.627636  0  2.283747  0
O  O141  1  0.92323055  0.26781653  0.57394184  1  -1.181322  0  -0.349334  -0.618291  0  2.264184  0
O  O142  1  0.79835459  0.06927318  0.56504107  1  -1.224462  0  -0.696288  -1.069339  0  2.376732  0
O  O143  1  0.06693290  0.06638311  0.56877586  1  -1.232737  0  -0.696598  -1.071077  0  2.378512  0
O  O144  1  0.06994606  0.06734937  0.29743348  1  -1.218182  0  -0.694945  -1.071131  0  2.36334  0
O  O145  1  0.06581276  0.79846305  0.56623003  1  -1.230885  0  -0.694699  -1.071979  0  2.36682  0
O  O146  1  0.14933736  0.94925503  0.45094290  1  -1.197512  0  -0.793875  -1.150774  0  2.143357  0
O  O147  1  0.95089229  0.95176280  0.44800773  1  -1.202392  0  -0.792709  -1.147269  0  2.137273  0
O  O148  1  0.95223557  0.14881523  0.45007914  1  -1.199857  0  -0.791357  -1.150489  0  2.128646  0
O  O149  1  0.94917957  0.95082116  0.64783779  1  -1.198375  0  -0.791801  -1.148088  0  2.132254  0
O  O150  1  0.17470034  0.43264796  0.16328886  1  -1.108948  0  -0.321557  -0.458922  0  2.250391  0
O  O151  1  0.26933822  0.34297155  0.04023624  1  -1.114161  0  -0.272691  -0.446202  0  2.072601  0
O  O152  1  0.26346653  0.57208302  0.83292614  1  -1.111494  0  -0.323321  -0.461734  0  2.258566  0
O  O153  1  0.15749193  0.66110476  0.95695910  1  -1.108471  0  -0.265054  -0.444414  0  2.112829  0
