# generated using pymatgen
data_CdH10C12I2N4O
_symmetry_space_group_name_H-M   'P 1'
_cell_length_a   7.40746441
_cell_length_b   7.55065840
_cell_length_c   13.38850209
_cell_angle_alpha   90.00000015
_cell_angle_beta   93.26119170
_cell_angle_gamma   90.00056152
_symmetry_Int_Tables_number   1
_chemical_formula_structural   CdH10C12I2N4O
_chemical_formula_sum   'Cd2 H20 C24 I4 N8 O2'
_cell_volume   747.62275436
_cell_formula_units_Z   2
loop_
 _symmetry_equiv_pos_site_id
 _symmetry_equiv_pos_as_xyz
  1  'x, y, z'
loop_
 _atom_site_type_symbol
 _atom_site_label
 _atom_site_symmetry_multiplicity
 _atom_site_fract_x
 _atom_site_fract_y
 _atom_site_fract_z
 _atom_site_occupancy
 _atom_site_hle17_bader_spin_density
 _atom_site_hle17_ddec_charge
 _atom_site_hle17_ddec_spin_density
 _atom_site_hle17_ddec_sum_bond_order
 _atom_site_hle17_magmom
 _atom_site_hse06_10hf_bader_spin_density
 _atom_site_hse06_10hf_ddec_charge
 _atom_site_hse06_10hf_ddec_spin_density
 _atom_site_hse06_10hf_ddec_sum_bond_order
 _atom_site_hse06_10hf_magmom
 _atom_site_hse06_bader_spin_density
 _atom_site_hse06_ddec_charge
 _atom_site_hse06_ddec_spin_density
 _atom_site_hse06_ddec_sum_bond_order
 _atom_site_hse06_magmom
 _atom_site_pbe_bader_spin_density
 _atom_site_pbe_cm5_charge
 _atom_site_pbe_ddec_charge
 _atom_site_pbe_ddec_spin_density
 _atom_site_pbe_ddec_sum_bond_order
 _atom_site_pbe_magmom
Cd  Cd0  1  0.64861884  0.86154018  0.43408876  1  0  0.798382  0  1.983228  0  0  0.61951  0  2.441648  0  0  0.671901  0  2.4022  0  0  0.541117  0.583452  0  2.467649  0
Cd  Cd1  1  0.64862624  0.13846971  0.93408833  1  0  0.798389  0  1.98322  0  0  0.6195  0  2.441665  0  0  0.671905  0  2.40219  0  0  0.541135  0.583441  0  2.467666  0
H  H2  1  0.79745469  0.79748144  0.12449074  1  0  0.26474  0  0.928366  0  0  0.242656  0  1.00603  0  0  0.250599  0  1.000001  0  0  0.30315  0.236971  0  1.010341  0
H  H3  1  0.79746138  0.20251636  0.62449251  1  0  0.264738  0  0.928371  0  0  0.24267  0  1.005958  0  0  0.250617  0  0.999929  0  0  0.303183  0.236983  0  1.010274  0
H  H4  1  0.26116738  0.46856580  0.16108714  1  0  0.102982  0  0.956524  0  0  0.113873  0  1.018701  0  0  0.116607  0  1.018445  0  0  0.102681  0.111916  0  1.018994  0
H  H5  1  0.26117730  0.53144268  0.66109040  1  0  0.10305  0  0.956505  0  0  0.113924  0  1.018692  0  0  0.116658  0  1.018439  0  0  0.102684  0.11196  0  1.018984  0
H  H6  1  0.02717501  0.35551231  0.27381929  1  0  0.100708  0  0.968933  0  0  0.109126  0  1.033081  0  0  0.112652  0  1.030161  0  0  0.09096  0.106511  0  1.035314  0
H  H7  1  0.02716979  0.64447808  0.77381758  1  0  0.100662  0  0.968885  0  0  0.109065  0  1.033068  0  0  0.112627  0  1.030104  0  0  0.090984  0.106447  0  1.035302  0
H  H8  1  0.04338817  0.45460317  0.45314405  1  0  0.09624  0  0.993889  0  0  0.102353  0  1.063203  0  0  0.106074  0  1.061391  0  0  0.087164  0.0996  0  1.064751  0
H  H9  1  0.04338198  0.54538226  0.95314309  1  0  0.096319  0  0.99383  0  0  0.102392  0  1.063168  0  0  0.106115  0  1.061354  0  0  0.087148  0.09965  0  1.064705  0
H  H10  1  0.29009380  0.66175456  0.51146086  1  0  0.068714  0  0.96793  0  0  0.075493  0  1.037187  0  0  0.077634  0  1.035245  0  0  0.108811  0.073908  0  1.038645  0
H  H11  1  0.29009074  0.33824345  0.01146382  1  0  0.068674  0  0.967939  0  0  0.075451  0  1.037209  0  0  0.077587  0  1.035282  0  0  0.108779  0.073868  0  1.038656  0
H  H12  1  0.53575355  0.64498883  0.13655751  1  0  0.090854  0  0.944078  0  0  0.096744  0  1.017041  0  0  0.10101  0  1.011658  0  0  0.110519  0.093709  0  1.020905  0
H  H13  1  0.53575770  0.35502496  0.63656290  1  0  0.090834  0  0.944108  0  0  0.096741  0  1.017047  0  0  0.101007  0  1.011672  0  0  0.110512  0.093705  0  1.020907  0
H  H14  1  0.26981994  0.06802600  0.29753577  1  0  0.102714  0  0.97955  0  0  0.109468  0  1.048701  0  0  0.113153  0  1.046392  0  0  0.101577  0.106844  0  1.050372  0
H  H15  1  0.26982434  0.93197872  0.79754398  1  0  0.102747  0  0.97968  0  0  0.109498  0  1.04878  0  0  0.113183  0  1.046471  0  0  0.101581  0.10685  0  1.050478  0
H  H16  1  0.51352726  0.16024161  0.18681837  1  0  0.068937  0  0.988734  0  0  0.068814  0  1.070097  0  0  0.072429  0  1.067078  0  0  0.088323  0.06612  0  1.072393  0
H  H17  1  0.51352129  0.83974817  0.68682630  1  0  0.068957  0  0.988703  0  0  0.068769  0  1.070101  0  0  0.072414  0  1.067066  0  0  0.088384  0.066064  0  1.072419  0
H  H18  1  0.25199786  0.91770180  0.94158350  1  0  0.07068  0  0.967593  0  0  0.077101  0  1.037009  0  0  0.080172  0  1.033742  0  0  0.103821  0.074834  0  1.039495  0
H  H19  1  0.25199906  0.08229096  0.44158815  1  0  0.07068  0  0.967453  0  0  0.077105  0  1.03687  0  0  0.080179  0  1.033599  0  0  0.103825  0.074837  0  1.039366  0
H  H20  1  0.99817857  0.82320465  0.03756034  1  0  0.08981  0  1.010167  0  0  0.09807  0  1.078883  0  0  0.102289  0  1.075846  0  0  0.090289  0.094979  0  1.081225  0
H  H21  1  0.99819046  0.17679504  0.53756974  1  0  0.089798  0  1.010239  0  0  0.09812  0  1.078913  0  0  0.102333  0  1.075878  0  0  0.090273  0.095029  0  1.081256  0
C  C22  1  0.40139304  0.61793365  0.27900432  1  0  0.20007  0  3.812446  0  0  0.20129  0  4.053782  0  0  0.206423  0  4.075771  0  0  0.110804  0.197998  0  4.038598  0
C  C23  1  0.40139880  0.38207631  0.77900975  1  0  0.200136  0  3.812266  0  0  0.201375  0  4.053556  0  0  0.20651  0  4.075545  0  0  0.1108  0.198069  0  4.038397  0
C  C24  1  0.26457079  0.50593743  0.23978934  1  0  -0.135733  0  3.690433  0  0  -0.156622  0  3.938191  0  0  -0.163531  0  3.960168  0  0  -0.079234  -0.151932  0  3.923277  0
C  C25  1  0.26457899  0.49406453  0.73979256  1  0  -0.1359  0  3.690584  0  0  -0.156777  0  3.938365  0  0  -0.163675  0  3.960318  0  0  -0.079211  -0.152078  0  3.923446  0
C  C26  1  0.13514659  0.44309859  0.30247709  1  0  0.005586  0  3.697808  0  0  -0.010835  0  3.943185  0  0  -0.007372  0  3.960438  0  0  -0.06972  -0.013005  0  3.931672  0
C  C27  1  0.13514863  0.55689289  0.80247712  1  0  0.005863  0  3.697721  0  0  -0.010565  0  3.943093  0  0  -0.007123  0  3.960333  0  0  -0.069688  -0.012734  0  3.931576  0
C  C28  1  0.14463270  0.49598547  0.40211603  1  0  -0.100341  0  3.6987  0  0  -0.114588  0  3.948496  0  0  -0.120958  0  3.968325  0  0  -0.083124  -0.110569  0  3.935463  0
C  C29  1  0.14463018  0.50401018  0.90211743  1  0  -0.100537  0  3.698789  0  0  -0.114734  0  3.948576  0  0  -0.121113  0  3.968424  0  0  -0.083149  -0.110729  0  3.935532  0
C  C30  1  0.28193742  0.61204623  0.43500575  1  0  0.152512  0  3.695778  0  0  0.118136  0  3.953519  0  0  0.126347  0  3.97008  0  0  0.050938  0.112808  0  3.942346  0
C  C31  1  0.28193646  0.38795741  0.93500649  1  0  0.152448  0  3.695856  0  0  0.118082  0  3.953592  0  0  0.126287  0  3.970155  0  0  0.05091  0.112756  0  3.942418  0
C  C32  1  0.54439410  0.67711326  0.21665645  1  0  0.037011  0  3.644305  0  0  -0.005635  0  3.907393  0  0  0.003188  0  3.916888  0  0  0.063394  -0.012161  0  3.902451  0
C  C33  1  0.54440062  0.32289539  0.71665818  1  0  0.037027  0  3.64423  0  0  -0.005678  0  3.90736  0  0  0.003151  0  3.916837  0  0  0.063318  -0.012202  0  3.902413  0
C  C34  1  0.96828502  0.88749568  0.24628151  1  0  0.512815  0  3.815986  0  0  0.465359  0  4.098953  0  0  0.494311  0  4.098909  0  0  0.243734  0.44564  0  4.098713  0
C  C35  1  0.96828276  0.11249729  0.74629349  1  0  0.51262  0  3.816372  0  0  0.465264  0  4.099161  0  0  0.494207  0  4.099142  0  0  0.24364  0.445561  0  4.098907  0
C  C36  1  0.11233809  0.93808175  0.17805419  1  0  -0.00975  0  3.768153  0  0  0.007426  0  3.999717  0  0  0.005844  0  4.020406  0  0  -0.002963  0.008541  0  3.985875  0
C  C37  1  0.11234342  0.06191866  0.67805970  1  0  -0.009447  0  3.767886  0  0  0.007681  0  3.999412  0  0  0.006108  0  4.0201  0  0  -0.002859  0.008783  0  3.98557  0
C  C38  1  0.26099436  0.03309519  0.21868085  1  0  -0.117206  0  3.71022  0  0  -0.139963  0  3.95919  0  0  -0.14521  0  3.980488  0  0  -0.081766  -0.136435  0  3.944903  0
C  C39  1  0.26099507  0.96690407  0.71869193  1  0  -0.117575  0  3.710308  0  0  -0.140268  0  3.95917  0  0  -0.145527  0  3.980487  0  0  -0.081883  -0.136723  0  3.94489  0
C  C40  1  0.39691197  0.08415892  0.15715428  1  0  0.108507  0  3.729223  0  0  0.082895  0  3.985649  0  0  0.087754  0  4.003822  0  0  0.031662  0.079767  0  3.973328  0
C  C41  1  0.39690944  0.91583498  0.65716004  1  0  0.108847  0  3.728939  0  0  0.083293  0  3.985324  0  0  0.088124  0  4.003484  0  0  0.031781  0.080173  0  3.972979  0
C  C42  1  0.25222482  0.94946017  0.02081156  1  0  0.139595  0  3.708374  0  0  0.112447  0  3.961913  0  0  0.118388  0  3.979005  0  0  0.041906  0.108515  0  3.950438  0
C  C43  1  0.25223005  0.05053351  0.52081930  1  0  0.139741  0  3.708026  0  0  0.112636  0  3.961529  0  0  0.118574  0  3.978624  0  0  0.041969  0.108698  0  3.950066  0
C  C44  1  0.10929565  0.89481526  0.07633108  1  0  -0.128241  0  3.707712  0  0  -0.148741  0  3.950596  0  0  -0.154236  0  3.971376  0  0  -0.085809  -0.145239  0  3.936949  0
C  C45  1  0.10930141  0.10518635  0.57633734  1  0  -0.128306  0  3.707736  0  0  -0.148889  0  3.950584  0  0  -0.154385  0  3.971378  0  0  -0.085803  -0.145379  0  3.93694  0
I  I46  1  0.66782761  0.22831866  0.41287504  1  0  -0.471567  0  1.070371  0  0  -0.419012  0  1.399216  0  0  -0.440395  0  1.37934  0  0  -0.225215  -0.403582  0  1.412398  0
I  I47  1  0.66779120  0.77168742  0.91287684  1  0  -0.471619  0  1.070447  0  0  -0.419064  0  1.39931  0  0  -0.440452  0  1.379446  0  0  -0.225225  -0.403632  0  1.412489  0
I  I48  1  0.82079435  0.67012468  0.58727392  1  0  -0.476462  0  1.077553  0  0  -0.422553  0  1.413961  0  0  -0.443457  0  1.393172  0  0  -0.233584  -0.407128  0  1.427836  0
I  I49  1  0.82079796  0.32988921  0.08727409  1  0  -0.476433  0  1.077526  0  0  -0.422515  0  1.413929  0  0  -0.443408  0  1.393121  0  0  -0.233571  -0.407115  0  1.427836  0
N  N50  1  0.40714463  0.67231838  0.37557908  1  0  -0.335275  0  3.228008  0  0  -0.262206  0  3.484872  0  0  -0.281674  0  3.50442  0  0  -0.322964  -0.249129  0  3.471391  0
N  N51  1  0.40715255  0.32768908  0.87558235  1  0  -0.335271  0  3.227816  0  0  -0.262215  0  3.484703  0  0  -0.281683  0  3.504252  0  0  -0.322959  -0.249133  0  3.471221  0
N  N52  1  0.68060717  0.76170260  0.25811998  1  0  -0.116643  0  3.247921  0  0  -0.067104  0  3.518858  0  0  -0.075628  0  3.536414  0  0  -0.207477  -0.061413  0  3.506659  0
N  N53  1  0.68061151  0.23829816  0.75812316  1  0  -0.116776  0  3.247892  0  0  -0.067218  0  3.518822  0  0  -0.075738  0  3.536388  0  0  -0.207446  -0.061516  0  3.506602  0
N  N54  1  0.81394118  0.81423772  0.20079322  1  0  -0.281242  0  3.420095  0  0  -0.227449  0  3.659429  0  0  -0.249309  0  3.675385  0  0  -0.281897  -0.212081  0  3.64813  0
N  N55  1  0.81394634  0.18576297  0.70078972  1  0  -0.281246  0  3.419661  0  0  -0.227451  0  3.658927  0  0  -0.249333  0  3.674909  0  0  -0.282005  -0.212088  0  3.647627  0
N  N56  1  0.39316896  0.04392660  0.05926266  1  0  -0.328663  0  3.213948  0  0  -0.263358  0  3.468749  0  0  -0.279218  0  3.487754  0  0  -0.323613  -0.252586  0  3.45566  0
N  N57  1  0.39317089  0.95606585  0.55927079  1  0  -0.32902  0  3.213821  0  0  -0.263759  0  3.468678  0  0  -0.279621  0  3.487694  0  0  -0.323804  -0.25299  0  3.455595  0
O  O58  1  0.98615755  0.90832844  0.33788436  1  0  -0.509716  0  1.98288  0  0  -0.462686  0  2.213245  0  0  -0.48578  0  2.210714  0  0  -0.273484  -0.44682  0  2.21472  0
O  O59  1  0.98614690  0.09165818  0.83787892  1  0  -0.509414  0  1.983579  0  0  -0.462445  0  2.213905  0  0  -0.485535  0  2.211403  0  0  -0.273302  -0.446587  0  2.215375  0
