# generated using pymatgen
data_P2H24Au2C30Se
_symmetry_space_group_name_H-M   'P 1'
_cell_length_a   9.38423594
_cell_length_b   14.92524112
_cell_length_c   21.71267153
_cell_angle_alpha   89.99971635
_cell_angle_beta   99.91447194
_cell_angle_gamma   90.00017510
_symmetry_Int_Tables_number   1
_chemical_formula_structural   P2H24Au2C30Se
_chemical_formula_sum   'P8 H96 Au8 C120 Se4'
_cell_volume   2995.70337022
_cell_formula_units_Z   4
loop_
 _symmetry_equiv_pos_site_id
 _symmetry_equiv_pos_as_xyz
  1  'x, y, z'
loop_
 _atom_site_type_symbol
 _atom_site_label
 _atom_site_symmetry_multiplicity
 _atom_site_fract_x
 _atom_site_fract_y
 _atom_site_fract_z
 _atom_site_occupancy
 _atom_site_pbe_bader_charge
 _atom_site_pbe_bader_spin_density
 _atom_site_pbe_cm5_charge
 _atom_site_pbe_ddec_charge
 _atom_site_pbe_ddec_spin_density
 _atom_site_pbe_ddec_sum_bond_order
 _atom_site_pbe_magmom
P  P0  1  0.51326087  0.29766128  0.94855211  1  1.585665  0  -0.012266  0.358341  0  4.456139  0
P  P1  1  0.01326196  0.20233885  0.44855043  1  1.585995  0  -0.012286  0.358442  0  4.456247  0
P  P2  1  0.48673408  0.70233936  0.05144919  1  1.585645  0  -0.01226  0.358364  0  4.456296  0
P  P3  1  0.98673516  0.79766179  0.55144780  1  1.585686  0  -0.012277  0.358467  0  4.455957  0
P  P4  1  0.04122865  0.38356726  0.12688222  1  1.593495  0  -0.008355  0.358434  0  4.432837  0
P  P5  1  0.54123016  0.11643189  0.62688332  1  1.593349  0  -0.008391  0.35841  0  4.432854  0
P  P6  1  0.95876847  0.61643003  0.87311786  1  1.593256  0  -0.008414  0.35829  0  4.433088  0
P  P7  1  0.45878210  0.88357276  0.37311835  1  1.593561  0  -0.008452  0.358156  0  4.432885  0
H  H8  1  0.39006092  0.13727065  0.89250754  1  0.073682  0  0.099694  0.097747  0  1.017635  0
H  H9  1  0.89006105  0.36272859  0.39250711  1  0.073685  0  0.099695  0.097748  0  1.017601  0
H  H10  1  0.60993728  0.86272596  0.10749308  1  0.073686  0  0.099706  0.097806  0  1.017649  0
H  H11  1  0.10993066  0.63727070  0.60749072  1  0.073584  0  0.099659  0.097775  0  1.017672  0
H  H12  1  0.14446665  0.06943705  0.87955186  1  0.065044  0  0.089694  0.104816  0  1.038265  0
H  H13  1  0.64446702  0.43056248  0.37955214  1  0.065078  0  0.0897  0.104847  0  1.038231  0
H  H14  1  0.85552939  0.93055889  0.12044721  1  0.064923  0  0.089695  0.104793  0  1.038219  0
H  H15  1  0.35552252  0.56943547  0.62044645  1  0.065182  0  0.089696  0.104855  0  1.038214  0
H  H16  1  0.94729798  0.14862836  0.92052254  1  0.087278  0  0.102941  0.102088  0  1.001304  0
H  H17  1  0.44729960  0.35136744  0.42052270  1  0.087356  0  0.102883  0.102008  0  1.001457  0
H  H18  1  0.05269697  0.85136758  0.07947645  1  0.087376  0  0.102892  0.102044  0  1.001414  0
H  H19  1  0.55269319  0.64862716  0.57947797  1  0.087083  0  0.102901  0.102029  0  1.001513  0
H  H20  1  0.99378260  0.29809382  0.97097409  1  0.075584  0  0.08661  0.079301  0  1.07264  0
H  H21  1  0.49378476  0.20190306  0.47097295  1  0.075572  0  0.086579  0.079297  0  1.072736  0
H  H22  1  0.00621344  0.70190280  0.02902545  1  0.075694  0  0.086598  0.079289  0  1.07265  0
H  H23  1  0.50621452  0.79809222  0.52902590  1  0.07561  0  0.086581  0.079287  0  1.072718  0
H  H24  1  0.23565321  0.36859442  0.98028826  1  0.075594  0  0.09233  0.092676  0  1.051605  0
H  H25  1  0.73565576  0.13140322  0.48028926  1  0.075551  0  0.092297  0.092607  0  1.051619  0
H  H26  1  0.76434174  0.63140152  0.01971073  1  0.07554  0  0.092286  0.092584  0  1.051629  0
H  H27  1  0.26434568  0.86859540  0.51971068  1  0.075576  0  0.092321  0.092652  0  1.051599  0
H  H28  1  0.77570295  0.25570927  0.90338110  1  0.064616  0  0.089821  0.084729  0  1.074329  0
H  H29  1  0.27570095  0.24428833  0.40337905  1  0.064718  0  0.089829  0.08476  0  1.074217  0
H  H30  1  0.22429741  0.74429270  0.09661968  1  0.064662  0  0.089826  0.084747  0  1.074315  0
H  H31  1  0.72430050  0.75571096  0.59662042  1  0.06471  0  0.089826  0.084763  0  1.074224  0
H  H32  1  0.85030338  0.26751188  0.79883239  1  0.078641  0  0.099103  0.096544  0  1.021779  0
H  H33  1  0.35029700  0.23248797  0.29882914  1  0.07871  0  0.099094  0.096498  0  1.021865  0
H  H34  1  0.14969698  0.73249010  0.20116839  1  0.078587  0  0.099116  0.096525  0  1.021786  0
H  H35  1  0.64970552  0.76750865  0.70117088  1  0.078682  0  0.099092  0.09652  0  1.021812  0
H  H36  1  0.67599368  0.32657306  0.70803837  1  0.083571  0  0.095665  0.096561  0  1.021291  0
H  H37  1  0.17598277  0.17343112  0.20803543  1  0.083633  0  0.095679  0.096616  0  1.021346  0
H  H38  1  0.32400668  0.67342758  0.29196333  1  0.08355  0  0.095638  0.096545  0  1.021328  0
H  H39  1  0.82401760  0.82656817  0.79196396  1  0.083627  0  0.095647  0.096545  0  1.021354  0
H  H40  1  0.42737147  0.36828332  0.72095522  1  0.097623  0  0.083011  0.087369  0  1.07034  0
H  H41  1  0.92735888  0.13172126  0.22095370  1  0.097418  0  0.083029  0.08747  0  1.070199  0
H  H42  1  0.57262781  0.63171330  0.27904502  1  0.09779  0  0.083011  0.087363  0  1.070329  0
H  H43  1  0.07263608  0.86828675  0.77904483  1  0.097623  0  0.083029  0.087415  0  1.070249  0
H  H44  1  0.35112785  0.35324459  0.82457303  1  0.084777  0  0.09582  0.091774  0  1.049758  0
H  H45  1  0.85112180  0.14675842  0.32457287  1  0.084689  0  0.095812  0.091739  0  1.049769  0
H  H46  1  0.64886927  0.64675203  0.17542659  1  0.0851  0  0.095836  0.091778  0  1.049798  0
H  H47  1  0.14887856  0.85324691  0.67542607  1  0.084976  0  0.095855  0.091692  0  1.049692  0
H  H48  1  0.26155024  0.48785022  0.21489481  1  0.084174  0  0.100228  0.103079  0  1.020581  0
H  H49  1  0.76154921  0.01214939  0.71489608  1  0.084151  0  0.100214  0.103019  0  1.020565  0
H  H50  1  0.73844797  0.51214706  0.78510442  1  0.08416  0  0.100231  0.10304  0  1.020538  0
H  H51  1  0.23845547  0.98785996  0.28510640  1  0.084457  0  0.10022  0.103055  0  1.020637  0
H  H52  1  0.52207184  0.46007055  0.25331542  1  0.079191  0  0.100346  0.09925  0  1.01614  0
H  H53  1  0.02207352  0.03992765  0.75331586  1  0.079138  0  0.100356  0.099235  0  1.016208  0
H  H54  1  0.47792311  0.53992607  0.74668495  1  0.079165  0  0.100343  0.099221  0  1.016169  0
H  H55  1  0.97793116  0.96008237  0.24668755  1  0.07908  0  0.100354  0.099163  0  1.016161  0
H  H56  1  0.64401804  0.32781901  0.21546230  1  0.075908  0  0.099385  0.096362  0  1.013226  0
H  H57  1  0.14402020  0.17217903  0.71546232  1  0.075878  0  0.099366  0.096327  0  1.013278  0
H  H58  1  0.35597799  0.67217828  0.78453815  1  0.075877  0  0.099364  0.096338  0  1.013264  0
H  H59  1  0.85598666  0.82782763  0.28453802  1  0.075998  0  0.099406  0.096404  0  1.013234  0
H  H60  1  0.50418095  0.22338868  0.13802096  1  0.102756  0  0.094681  0.094263  0  1.034994  0
H  H61  1  0.00418456  0.27660965  0.63802120  1  0.102791  0  0.094677  0.094205  0  1.035043  0
H  H62  1  0.49581725  0.77660861  0.86197873  1  0.102787  0  0.094634  0.094166  0  1.035055  0
H  H63  1  0.99582230  0.72339635  0.36197776  1  0.102476  0  0.094633  0.0941  0  1.035127  0
H  H64  1  0.24193827  0.24994960  0.10026084  1  0.095792  0  0.098235  0.102894  0  1.014176  0
H  H65  1  0.74193918  0.25004945  0.60026144  1  0.09583  0  0.098265  0.102933  0  1.014163  0
H  H66  1  0.75805994  0.75004768  0.89973701  1  0.095855  0  0.098263  0.102932  0  1.014212  0
H  H67  1  0.25806551  0.74995520  0.39973736  1  0.096199  0  0.098275  0.102911  0  1.014244  0
H  H68  1  0.00369348  0.58153318  0.13175060  1  0.027829  0  0.095868  0.094287  0  1.046868  0
H  H69  1  0.50369282  0.91846578  0.63175190  1  0.02787  0  0.095891  0.094309  0  1.04681  0
H  H70  1  0.99630472  0.41846544  0.86824864  1  0.027826  0  0.095856  0.094296  0  1.046802  0
H  H71  1  0.49629781  0.08153954  0.36824447  1  0.027901  0  0.095844  0.094262  0  1.046881  0
H  H72  1  0.91570168  0.67963471  0.20885341  1  0.055833  0  0.099837  0.095888  0  1.013929  0
H  H73  1  0.41570003  0.82036382  0.70885495  1  0.055808  0  0.099873  0.095961  0  1.013932  0
H  H74  1  0.08429761  0.32036525  0.79114637  1  0.055835  0  0.099864  0.095936  0  1.013942  0
H  H75  1  0.58428844  0.17963882  0.29114080  1  0.055777  0  0.09983  0.095893  0  1.013948  0
H  H76  1  0.83535758  0.61218346  0.30353923  1  0.138126  0  0.08544  0.084411  0  1.070847  0
H  H77  1  0.33535509  0.88781558  0.80354002  1  0.138067  0  0.085471  0.084502  0  1.070791  0
H  H78  1  0.16464711  0.38781517  0.69646187  1  0.138049  0  0.08544  0.084448  0  1.070818  0
H  H79  1  0.66464527  0.11218707  0.19645892  1  0.138023  0  0.085437  0.084443  0  1.070861  0
H  H80  1  0.84259828  0.44916159  0.31822478  1  0.103866  0  0.097883  0.095692  0  1.04034  0
H  H81  1  0.34260216  0.05083676  0.81822673  1  0.103813  0  0.097882  0.095669  0  1.04037  0
H  H82  1  0.15740209  0.55083771  0.68177462  1  0.103794  0  0.097882  0.095673  0  1.040347  0
H  H83  1  0.65741659  0.94916388  0.18177681  1  0.103844  0  0.097869  0.09571  0  1.040401  0
H  H84  1  0.93294074  0.34897463  0.24114286  1  0.098901  0  0.094541  0.094432  0  1.036358  0
H  H85  1  0.43294391  0.15102445  0.74114349  1  0.098926  0  0.094518  0.094361  0  1.036403  0
H  H86  1  0.06705637  0.65102333  0.75885629  1  0.098898  0  0.094548  0.094395  0  1.036413  0
H  H87  1  0.56708133  0.84897819  0.25886283  1  0.099166  0  0.094495  0.094354  0  1.0363  0
H  H88  1  0.23370425  0.51284327  0.07406131  1  0.095458  0  0.100108  0.101442  0  1.028645  0
H  H89  1  0.73371357  0.98715656  0.57406450  1  0.095464  0  0.100144  0.101451  0  1.02869  0
H  H90  1  0.76628638  0.48715335  0.92593782  1  0.095341  0  0.10018  0.101518  0  1.028653  0
H  H91  1  0.26629977  0.01284475  0.42593726  1  0.095276  0  0.100106  0.101398  0  1.028736  0
H  H92  1  0.80861940  0.39669781  0.02339669  1  0.089601  0  0.086425  0.081719  0  1.083269  0
H  H93  1  0.30862564  0.10329725  0.52339633  1  0.089744  0  0.086459  0.081778  0  1.083243  0
H  H94  1  0.19137339  0.60329613  0.97660260  1  0.089776  0  0.086433  0.081736  0  1.083274  0
H  H95  1  0.69138662  0.89670205  0.47660580  1  0.089621  0  0.086464  0.081748  0  1.083194  0
H  H96  1  0.44482005  0.47571418  0.88488331  1  0.07256  0  0.102256  0.103827  0  1.029779  0
H  H97  1  0.94482438  0.02428657  0.38488343  1  0.072547  0  0.102273  0.103846  0  1.02981  0
H  H98  1  0.55517598  0.52428713  0.11511945  1  0.072501  0  0.102294  0.1039  0  1.029718  0
H  H99  1  0.05518463  0.97571340  0.61511938  1  0.072498  0  0.102257  0.103873  0  1.029777  0
H  H100  1  0.56674122  0.37195408  0.07227556  1  0.095086  0  0.091526  0.089728  0  1.066328  0
H  H101  1  0.06674646  0.12804752  0.57227550  1  0.095104  0  0.091525  0.089728  0  1.066365  0
H  H102  1  0.43325698  0.62804589  0.92772644  1  0.095116  0  0.091522  0.089704  0  1.066405  0
H  H103  1  0.93326363  0.87195445  0.42772693  1  0.095138  0  0.091519  0.089736  0  1.066377  0
Au  Au104  1  0.65730715  0.20718651  0.01613883  1  -0.146565  0  0.18068  -0.129563  0  2.910965  0
Au  Au105  1  0.15730758  0.29281165  0.51613740  1  -0.14648  0  0.180721  -0.129557  0  2.911064  0
Au  Au106  1  0.34269213  0.79281279  0.98386140  1  -0.146572  0  0.180694  -0.129554  0  2.91093  0
Au  Au107  1  0.84269062  0.70718899  0.48386276  1  -0.146587  0  0.180696  -0.129593  0  2.910959  0
Au  Au108  1  0.92355606  0.25098204  0.10968592  1  -0.145862  0  0.192287  -0.132673  0  2.949834  0
Au  Au109  1  0.42355309  0.24901529  0.60968529  1  -0.145788  0  0.192289  -0.132656  0  2.949838  0
Au  Au110  1  0.07644213  0.74901592  0.89031424  1  -0.145782  0  0.192279  -0.132684  0  2.949904  0
Au  Au111  1  0.57644944  0.75098534  0.39031335  1  -0.145834  0  0.192314  -0.132617  0  2.949911  0
C  C112  1  0.32748540  0.25810869  0.93566820  1  -0.550761  0  -0.029805  -0.064292  0  3.997108  0
C  C113  1  0.82748618  0.24188879  0.43566823  1  -0.551074  0  -0.029822  -0.064351  0  3.997176  0
C  C114  1  0.67251172  0.74188726  0.06433187  1  -0.55113  0  -0.029892  -0.064386  0  3.997248  0
C  C115  1  0.17251310  0.75810984  0.56433155  1  -0.550759  0  -0.029853  -0.064279  0  3.997232  0
C  C116  1  0.30102372  0.17373626  0.90740017  1  -0.070138  0  -0.087629  -0.094287  0  3.976615  0
C  C117  1  0.80102481  0.32626137  0.40739901  1  -0.070147  0  -0.087629  -0.094239  0  3.976568  0
C  C118  1  0.69897231  0.82626103  0.09260075  1  -0.070092  0  -0.087664  -0.094386  0  3.976739  0
C  C119  1  0.19896798  0.67373525  0.59259936  1  -0.070114  0  -0.08763  -0.094403  0  3.976777  0
C  C120  1  0.16375946  0.13568919  0.90045605  1  -0.012691  0  -0.089959  -0.072196  0  3.983605  0
C  C121  1  0.66375852  0.36430822  0.40045553  1  -0.013042  0  -0.089975  -0.072319  0  3.983572  0
C  C122  1  0.83623657  0.86430608  0.09954395  1  -0.01293  0  -0.08996  -0.07221  0  3.983537  0
C  C123  1  0.33623427  0.63568907  0.59954284  1  -0.012879  0  -0.089905  -0.072198  0  3.983731  0
C  C124  1  0.05288969  0.18035294  0.92341914  1  -0.055628  0  -0.085029  -0.067709  0  3.974675  0
C  C125  1  0.55288967  0.31964410  0.42341792  1  -0.055231  0  -0.084987  -0.067567  0  3.974747  0
C  C126  1  0.94710635  0.81964435  0.07658132  1  -0.05521  0  -0.085003  -0.067627  0  3.974643  0
C  C127  1  0.44710528  0.68035118  0.57658153  1  -0.055305  0  -0.085068  -0.067708  0  3.974927  0
C  C128  1  0.07914716  0.26384766  0.95197769  1  -0.06761  0  -0.095931  -0.081439  0  4.003639  0
C  C129  1  0.57914792  0.23614855  0.45197728  1  -0.06764  0  -0.095884  -0.081498  0  4.003755  0
C  C130  1  0.92084779  0.73614695  0.04802222  1  -0.06823  0  -0.095834  -0.081409  0  4.003468  0
C  C131  1  0.42085028  0.76384941  0.54802242  1  -0.067581  0  -0.095806  -0.081324  0  4.003561  0
C  C132  1  0.21582705  0.30345584  0.95775749  1  -0.017771  0  -0.092196  -0.097212  0  3.975959  0
C  C133  1  0.71582659  0.19654260  0.45775712  1  -0.0178  0  -0.092151  -0.097079  0  3.975948  0
C  C134  1  0.78416899  0.69654212  0.04224251  1  -0.017302  0  -0.09214  -0.097052  0  3.975938  0
C  C135  1  0.28417161  0.80345536  0.54224258  1  -0.017787  0  -0.09221  -0.097243  0  3.976075  0
C  C136  1  0.56067984  0.30583702  0.87108632  1  -0.531182  0  -0.031514  -0.072321  0  3.993295  0
C  C137  1  0.06067981  0.19416443  0.37108689  1  -0.531267  0  -0.031413  -0.072343  0  3.993326  0
C  C138  1  0.43931728  0.69416228  0.12891376  1  -0.531061  0  -0.031539  -0.072405  0  3.993393  0
C  C139  1  0.93932163  0.80583822  0.62891443  1  -0.531203  0  -0.031496  -0.072463  0  3.993416  0
C  C140  1  0.70074397  0.28143757  0.86330520  1  -0.007241  0  -0.087907  -0.09223  0  3.979299  0
C  C141  1  0.20074187  0.21856018  0.36330370  1  -0.007299  0  -0.087944  -0.092172  0  3.97922  0
C  C142  1  0.29925422  0.71856239  0.13669587  1  -0.00712  0  -0.087894  -0.092248  0  3.979427  0
C  C143  1  0.79925633  0.78143979  0.63669600  1  -0.007261  0  -0.087923  -0.092187  0  3.979245  0
C  C144  1  0.74221488  0.28838378  0.80477105  1  -0.12311  0  -0.089628  -0.072245  0  3.981308  0
C  C145  1  0.24221059  0.21161850  0.30476940  1  -0.123119  0  -0.089669  -0.072329  0  3.981305  0
C  C146  1  0.25778440  0.71161753  0.19522873  1  -0.123112  0  -0.089601  -0.072113  0  3.981435  0
C  C147  1  0.75779194  0.78838214  0.69523108  1  -0.123138  0  -0.08968  -0.072329  0  3.981403  0
C  C148  1  0.64440850  0.32103727  0.75392865  1  -0.014857  0  -0.087394  -0.068708  0  3.974634  0
C  C149  1  0.14440193  0.17896451  0.25392741  1  -0.014955  0  -0.087375  -0.068672  0  3.974552  0
C  C150  1  0.35558970  0.67896202  0.24607104  1  -0.014724  0  -0.087385  -0.068751  0  3.974664  0
C  C151  1  0.85559627  0.82103814  0.74607183  1  -0.014913  0  -0.087358  -0.068644  0  3.974579  0
C  C152  1  0.50413557  0.34482433  0.76129943  1  -0.08448  0  -0.095734  -0.082391  0  3.999273  0
C  C153  1  0.00412567  0.15517980  0.26129848  1  -0.084112  0  -0.095704  -0.082485  0  3.999178  0
C  C154  1  0.49586371  0.65517362  0.23869988  1  -0.084695  0  -0.095722  -0.082345  0  3.999236  0
C  C155  1  0.99587145  0.84482552  0.73870068  1  -0.084511  0  -0.095697  -0.082436  0  3.999221  0
C  C156  1  0.46162368  0.33647112  0.81947283  1  -0.056288  0  -0.087806  -0.092727  0  3.977125  0
C  C157  1  0.96161985  0.16353013  0.31947416  1  -0.056394  0  -0.087858  -0.092731  0  3.977093  0
C  C158  1  0.53837344  0.66352617  0.18052633  1  -0.056593  0  -0.087819  -0.09273  0  3.977208  0
C  C159  1  0.03837835  0.83647452  0.68052692  1  -0.056556  0  -0.087849  -0.092565  0  3.977021  0
C  C160  1  0.23482180  0.37083589  0.15482447  1  -0.526242  0  -0.027803  -0.068258  0  3.976651  0
C  C161  1  0.73482119  0.12916410  0.65482629  1  -0.526361  0  -0.027845  -0.068336  0  3.976722  0
C  C162  1  0.76517316  0.62916274  0.84517407  1  -0.526176  0  -0.027895  -0.068364  0  3.9768  0
C  C163  1  0.26518025  0.87084122  0.34517503  1  -0.526486  0  -0.027882  -0.068287  0  3.976717  0
C  C164  1  0.31411578  0.42989683  0.19795422  1  -0.047544  0  -0.084109  -0.087194  0  3.959838  0
C  C165  1  0.81411604  0.07010367  0.69795585  1  -0.047466  0  -0.084041  -0.086979  0  3.959726  0
C  C166  1  0.68588026  0.57010112  0.80204531  1  -0.047484  0  -0.084058  -0.087019  0  3.959866  0
C  C167  1  0.18588756  0.92990434  0.30204701  1  -0.047928  0  -0.084028  -0.08702  0  3.959931  0
C  C168  1  0.46100849  0.41401709  0.21973170  1  -0.077559  0  -0.088741  -0.07994  0  3.995103  0
C  C169  1  0.96100773  0.08598019  0.71973274  1  -0.077576  0  -0.088763  -0.079982  0  3.995254  0
C  C170  1  0.53898863  0.58598020  0.78026837  1  -0.07764  0  -0.088686  -0.079903  0  3.995312  0
C  C171  1  0.03899804  0.91402714  0.28026983  1  -0.077511  0  -0.088733  -0.07988  0  3.995074  0
C  C172  1  0.52919526  0.33969950  0.19858329  1  -0.048399  0  -0.086344  -0.07524  0  3.983871  0
C  C173  1  0.02919846  0.16029911  0.69858435  1  -0.048347  0  -0.08633  -0.075238  0  3.983883  0
C  C174  1  0.47080185  0.66029712  0.80141679  1  -0.048412  0  -0.086367  -0.075315  0  3.98404  0
C  C175  1  0.97080731  0.83970756  0.30141776  1  -0.048037  0  -0.086408  -0.075433  0  3.983861  0
C  C176  1  0.45076095  0.28090790  0.15524251  1  -0.100407  0  -0.089037  -0.075227  0  3.984501  0
C  C177  1  0.95076175  0.21909116  0.65524275  1  -0.100428  0  -0.089052  -0.075103  0  3.98441  0
C  C178  1  0.54923509  0.71909006  0.84475656  1  -0.100374  0  -0.089007  -0.075037  0  3.984241  0
C  C179  1  0.04924294  0.78091550  0.34475697  1  -0.100354  0  -0.088994  -0.074875  0  3.984206  0
C  C180  1  0.30406935  0.29628112  0.13351924  1  -0.013678  0  -0.083942  -0.088565  0  3.960548  0
C  C181  1  0.80407117  0.20371916  0.63352099  1  -0.013635  0  -0.083959  -0.088656  0  3.96061  0
C  C182  1  0.69593102  0.70371683  0.86648061  1  -0.013691  0  -0.083926  -0.088608  0  3.960558  0
C  C183  1  0.19593568  0.79628684  0.36648027  1  -0.013927  0  -0.084002  -0.088737  0  3.96069  0
C  C184  1  0.97590604  0.45881566  0.18181639  1  -0.542476  0  -0.028425  -0.065821  0  3.98379  0
C  C185  1  0.47590449  0.04118528  0.68181566  1  -0.542463  0  -0.02843  -0.065826  0  3.983776  0
C  C186  1  0.02409107  0.54118498  0.81818322  1  -0.542546  0  -0.028409  -0.065749  0  3.983549  0
C  C187  1  0.52410020  0.95881804  0.31818406  1  -0.542672  0  -0.02837  -0.065575  0  3.983475  0
C  C188  1  0.96992992  0.55189023  0.17278328  1  -0.037792  0  -0.08785  -0.095269  0  3.979765  0
C  C189  1  0.46992765  0.94811001  0.67278341  1  -0.037732  0  -0.087855  -0.095219  0  3.979604  0
C  C190  1  0.03006936  0.44810974  0.82721650  1  -0.037681  0  -0.087838  -0.095243  0  3.979554  0
C  C191  1  0.53006730  0.05189397  0.32721466  1  -0.037624  0  -0.087843  -0.095298  0  3.979655  0
C  C192  1  0.91988382  0.60728209  0.21631194  1  -0.049126  0  -0.091257  -0.08174  0  3.997592  0
C  C193  1  0.41988135  0.89271640  0.71631317  1  -0.049216  0  -0.091346  -0.081942  0  3.997482  0
C  C194  1  0.08011654  0.39271721  0.78368654  1  -0.049212  0  -0.091287  -0.081848  0  3.997566  0
C  C195  1  0.58011036  0.10728558  0.28368420  1  -0.049199  0  -0.091218  -0.081772  0  3.997467  0
C  C196  1  0.87522740  0.57027609  0.26887539  1  -0.037084  0  -0.086389  -0.06427  0  3.969071  0
C  C197  1  0.37522507  0.92972327  0.76887650  1  -0.036972  0  -0.086373  -0.064274  0  3.96887  0
C  C198  1  0.12477404  0.42972455  0.73112363  1  -0.036934  0  -0.086401  -0.06433  0  3.969045  0
C  C199  1  0.62477530  0.07027870  0.23112290  1  -0.037091  0  -0.086287  -0.064062  0  3.968792  0
C  C200  1  0.87970916  0.47746818  0.27755938  1  -0.121613  0  -0.089913  -0.074208  0  3.98058  0
C  C201  1  0.37971078  0.02253254  0.77755987  1  -0.121593  0  -0.089923  -0.074207  0  3.980603  0
C  C202  1  0.12028796  0.52253178  0.72243977  1  -0.121593  0  -0.089938  -0.074202  0  3.980574  0
C  C203  1  0.62030040  0.97747077  0.22244080  1  -0.121028  0  -0.089931  -0.074405  0  3.980671  0
C  C204  1  0.92973242  0.42155036  0.23447299  1  -0.04866  0  -0.086117  -0.091095  0  3.977529  0
C  C205  1  0.42973208  0.07844809  0.73447314  1  -0.048734  0  -0.086057  -0.090989  0  3.977527  0
C  C206  1  0.07026578  0.57844893  0.76552579  1  -0.048622  0  -0.086067  -0.091004  0  3.977389  0
C  C207  1  0.57028343  0.92155322  0.26553015  1  -0.04939  0  -0.086137  -0.091078  0  3.977429  0
C  C208  1  0.02283160  0.44951551  0.05530860  1  -0.573293  0  -0.018889  -0.049975  0  3.9478  0
C  C209  1  0.52283829  0.05048345  0.55530894  1  -0.573152  0  -0.018882  -0.050048  0  3.947867  0
C  C210  1  0.97716227  0.55048111  0.94469123  1  -0.573163  0  -0.018801  -0.049857  0  3.947964  0
C  C211  1  0.47717397  0.94951853  0.44469181  1  -0.573235  0  -0.018859  -0.049861  0  3.947944  0
C  C212  1  0.13142669  0.50696331  0.04174034  1  -0.063963  0  -0.081134  -0.081209  0  3.944269  0
C  C213  1  0.63143495  0.99303722  0.54174205  1  -0.064601  0  -0.081161  -0.081106  0  3.944198  0
C  C214  1  0.86856718  0.49303398  0.95825903  1  -0.064455  0  -0.081229  -0.081327  0  3.944328  0
C  C215  1  0.36857731  0.00696543  0.45825870  1  -0.063758  0  -0.0811  -0.08115  0  3.944316  0
C  C216  1  0.89178396  0.44281644  0.01320619  1  0.018338  0  -0.082987  -0.079646  0  3.9526  0
C  C217  1  0.39179220  0.05718152  0.51320614  1  0.017867  0  -0.082977  -0.079627  0  3.952656  0
C  C218  1  0.10820883  0.55717951  0.98679310  1  0.017797  0  -0.082949  -0.079592  0  3.952622  0
C  C219  1  0.60822007  0.94282045  0.48679461  1  0.01831  0  -0.083015  -0.079769  0  3.952638  0
C  C220  1  0.50504937  0.41285797  0.97593156  1  -0.584298  0  -0.019115  -0.050598  0  3.943579  0
C  C221  1  0.00505328  0.08714328  0.47593141  1  -0.584328  0  -0.019157  -0.050637  0  3.943359  0
C  C222  1  0.49494451  0.58714267  0.02406736  1  -0.584529  0  -0.019111  -0.050491  0  3.943485  0
C  C223  1  0.99495249  0.91285736  0.52406748  1  -0.584369  0  -0.019144  -0.050555  0  3.943455  0
C  C224  1  0.46865834  0.48555574  0.93534053  1  0.051545  0  -0.078989  -0.076853  0  3.938639  0
C  C225  1  0.96866264  0.01444201  0.43533929  1  0.051555  0  -0.078978  -0.076856  0  3.938461  0
C  C226  1  0.53133770  0.51444289  0.06465993  1  0.051866  0  -0.079058  -0.077074  0  3.938657  0
C  C227  1  0.03134638  0.98555661  0.56466076  1  0.051688  0  -0.078945  -0.076941  0  3.938564  0
C  C228  1  0.53663182  0.42820317  0.04062434  1  -0.05486  0  -0.082898  -0.083556  0  3.962563  0
C  C229  1  0.03663578  0.07179525  0.54062300  1  -0.054945  0  -0.082938  -0.083645  0  3.962755  0
C  C230  1  0.46336422  0.57179546  0.95937657  1  -0.054945  0  -0.082893  -0.083589  0  3.962696  0
C  C231  1  0.96337323  0.92820405  0.45937751  1  -0.054916  0  -0.082914  -0.083619  0  3.962737  0
Se  Se232  1  0.80474135  0.10743591  0.08848008  1  -0.43888  0  -0.37935  -0.399004  0  2.605887  0
Se  Se233  1  0.30473780  0.39256202  0.58848123  1  -0.438981  0  -0.379354  -0.399007  0  2.605893  0
Se  Se234  1  0.19525577  0.89256205  0.91151815  1  -0.438908  0  -0.379339  -0.398974  0  2.605845  0
Se  Se235  1  0.69525932  0.60743862  0.41151839  1  -0.438839  0  -0.379342  -0.398984  0  2.605843  0
