# generated using pymatgen
data_CuNiH28(C2N)8
_symmetry_space_group_name_H-M   'P 1'
_cell_length_a   9.03790469
_cell_length_b   11.45880782
_cell_length_c   11.27506210
_cell_angle_alpha   112.11546558
_cell_angle_beta   90.01386953
_cell_angle_gamma   89.96095283
_symmetry_Int_Tables_number   1
_chemical_formula_structural   CuNiH28(C2N)8
_chemical_formula_sum   'Cu2 Ni2 H56 C32 N16'
_cell_volume   1081.77579310
_cell_formula_units_Z   2
loop_
 _symmetry_equiv_pos_site_id
 _symmetry_equiv_pos_as_xyz
  1  'x, y, z'
loop_
 _atom_site_type_symbol
 _atom_site_label
 _atom_site_symmetry_multiplicity
 _atom_site_fract_x
 _atom_site_fract_y
 _atom_site_fract_z
 _atom_site_occupancy
 _atom_site_hle17_ddec_charge
 _atom_site_hle17_ddec_spin_density
 _atom_site_hle17_ddec_sum_bond_order
 _atom_site_hle17_magmom
 _atom_site_hse06_10hf_ddec_charge
 _atom_site_hse06_10hf_ddec_spin_density
 _atom_site_hse06_10hf_ddec_sum_bond_order
 _atom_site_hse06_10hf_magmom
 _atom_site_hse06_ddec_charge
 _atom_site_hse06_ddec_spin_density
 _atom_site_hse06_ddec_sum_bond_order
 _atom_site_hse06_magmom
 _atom_site_pbe_cm5_charge
 _atom_site_pbe_ddec_charge
 _atom_site_pbe_ddec_spin_density
 _atom_site_pbe_ddec_sum_bond_order
 _atom_site_pbe_magmom
Cu  Cu0  1  0.38617283  0.96695721  0.29499954  1  0.784666  -0.699221  1.857979  -0.484  0.756911  -0.781494  2.248066  -0.59  0.827686  -0.850278  2.197834  -0.664  0.747862  0.715322  -0.736568  2.281499  -0.547
Cu  Cu1  1  0.88593848  0.03309952  0.70504913  1  0.783593  0.698976  1.863647  0.484  0.755318  0.780916  2.255005  0.589  0.825989  0.849544  2.204508  0.663  0.749003  0.714347  0.736112  2.287842  0.546
Ni  Ni2  1  0.88340480  0.89579034  0.11829354  1  0.143341  0.000181  3.351214  0.0  0.156775  0.000572  3.809183  0.0  0.170374  0.000445  3.754506  0.0  0.393954  0.156513  0.000363  3.840284  0.0
Ni  Ni3  1  0.38360242  0.10432485  0.88172962  1  0.143315  -0.00018  3.351886  0.0  0.156786  -0.000574  3.809924  0.0  0.170485  -0.000447  3.755179  0.0  0.3939  0.156543  -0.000361  3.841041  0.0
H  H4  1  0.24313046  0.22832879  0.46835569  1  0.046727  0.000151  0.888838  0.0  0.064371  0.000137  0.940197  0.0  0.064092  0.000104  0.940694  0.0  0.111269  0.064285  0.000158  0.940077  0.0
H  H5  1  0.74333279  0.77164122  0.53162865  1  0.046619  -0.000136  0.888541  0.0  0.064051  -0.000137  0.940195  0.0  0.063767  -0.000103  0.94071  0.0  0.11108  0.063954  -0.000157  0.940058  0.0
H  H6  1  0.28255395  0.06071418  0.52543304  1  0.301899  0.000696  0.916386  0.002  0.291785  -0.000413  0.977008  0.0  0.297686  -0.000193  0.974201  0.001  0.288708  0.287798  -0.000567  0.978696  0.0
H  H7  1  0.78254692  0.93958156  0.47493462  1  0.302549  -0.000694  0.916565  -0.002  0.292378  0.000412  0.977087  0.0  0.29826  0.000192  0.97429  -0.001  0.289264  0.288401  0.000567  0.978795  0.0
H  H8  1  0.46504240  0.07103376  0.52836136  1  0.294545  0.000722  0.923464  0.001  0.284073  -0.000247  0.986744  0.0  0.289532  7e-06  0.984668  0.001  0.286215  0.28027  -0.000439  0.988163  0.0
H  H9  1  0.96517410  0.92935139  0.47236725  1  0.294442  -0.000736  0.924619  -0.001  0.284357  0.000226  0.987241  0.0  0.289815  -2.6e-05  0.985148  -0.001  0.286658  0.280541  0.000416  0.988705  0.0
H  H10  1  0.51600342  0.28998990  0.64276941  1  0.058101  0.000223  0.941964  0.0  0.075202  0.000117  1.009825  0.0  0.075671  8.4e-05  1.010091  0.0  0.086067  0.074899  0.000143  1.009404  0.0
H  H11  1  0.01604591  0.70980817  0.35706660  1  0.05796  -0.000213  0.941393  0.0  0.075046  -0.000117  1.009407  0.0  0.075564  -8.4e-05  1.009616  0.0  0.085886  0.074757  -0.000143  1.008961  0.0
H  H12  1  0.33046720  0.30267753  0.69404178  1  0.074475  0.000141  0.942408  0.0  0.090888  -6.9e-05  1.006123  0.0  0.091247  -5.5e-05  1.006697  0.0  0.092373  0.090631  -8.6e-05  1.00565  0.0
H  H13  1  0.83038822  0.69734702  0.30589847  1  0.074557  -0.00015  0.941397  0.0  0.091071  6.9e-05  1.0051  0.0  0.091467  5.5e-05  1.005634  0.0  0.092398  0.090805  8.6e-05  1.00464  0.0
H  H14  1  0.48410196  0.11847139  0.19090982  1  0.302618  0.0007  0.918085  0.002  0.296429  -0.000322  0.971269  0.0  0.301359  -0.00013  0.970681  0.001  0.293578  0.292826  -0.000461  0.972174  0.0
H  H15  1  0.98417190  0.88200921  0.80914419  1  0.302835  -0.000693  0.919139  -0.002  0.29703  0.00032  0.971542  0.0  0.301929  0.000127  0.970978  -0.001  0.294194  0.293443  0.000459  0.972452  0.0
H  H16  1  0.30909197  0.15046330  0.22912095  1  0.302245  0.000458  0.900356  0.001  0.294761  -0.000381  0.95801  0.0  0.300028  -0.000123  0.95641  0.0  0.293548  0.290887  -0.000577  0.959692  0.0
H  H17  1  0.80901649  0.85025070  0.77068680  1  0.303074  -0.000488  0.899484  -0.001  0.295547  0.000341  0.95697  0.0  0.300777  8.8e-05  0.955372  0.0  0.294079  0.29169  0.000535  0.958681  0.0
H  H18  1  0.28365449  0.47092991  0.60809410  1  0.061621  5.6e-05  0.930937  0.0  0.083669  2e-05  0.987259  0.0  0.083857  1.6e-05  0.988488  0.0  0.08861  0.08336  2e-05  0.986627  0.0
H  H19  1  0.78368589  0.52909923  0.39188268  1  0.061869  -5.1e-05  0.930828  0.0  0.083801  -2.1e-05  0.987142  0.0  0.083984  -1.6e-05  0.988395  0.0  0.088694  0.083518  -2e-05  0.986478  0.0
H  H20  1  0.43677367  0.51383518  0.71284974  1  0.075404  -0.000598  0.941973  -0.001  0.095962  -0.00036  0.997376  0.0  0.09619  -0.000218  0.998451  0.0  0.094356  0.095647  -0.000485  0.996758  -0.001
H  H21  1  0.93685125  0.48611611  0.28714831  1  0.075425  0.000615  0.942561  0.001  0.09609  0.000356  0.997692  0.0  0.096331  0.000217  0.998775  0.0  0.094385  0.095764  0.000482  0.997088  0.001
H  H22  1  0.31013645  0.86566631  0.05122611  1  0.307105  0.000456  0.912817  0.001  0.298905  -0.000426  0.969732  0.0  0.305023  -0.000225  0.966833  0.0  0.293332  0.294631  -0.000578  0.971832  0.0
H  H23  1  0.80994191  0.13401778  0.94834120  1  0.307336  -0.000459  0.913243  -0.001  0.299203  0.000425  0.969958  0.0  0.305312  0.000224  0.967042  0.0  0.293662  0.294941  0.000578  0.972071  0.0
H  H24  1  0.48639483  0.83969114  0.06775400  1  0.299719  0.00061  0.902839  0.001  0.29473  -0.000231  0.95628  0.0  0.299208  -1.4e-05  0.956078  0.0  0.293453  0.291566  -0.000396  0.956667  0.0
H  H25  1  0.98634061  0.15963960  0.93145242  1  0.299851  -0.000629  0.902871  -0.001  0.295161  0.000208  0.955769  0.0  0.299591  -7e-06  0.955575  0.0  0.294031  0.292027  0.000372  0.956167  0.0
H  H26  1  0.61149133  0.44144822  0.53023807  1  0.055586  7e-05  0.933146  0.0  0.075013  4.4e-05  0.995136  0.0  0.075446  3.2e-05  0.99588  0.0  0.085709  0.07444  5.5e-05  0.995024  0.0
H  H27  1  0.11157248  0.55820538  0.46965623  1  0.055522  -7.3e-05  0.933085  0.0  0.075233  -4.3e-05  0.994921  0.0  0.075668  -3.2e-05  0.995652  0.0  0.085908  0.074669  -5.4e-05  0.9948  0.0
H  H28  1  0.48676280  0.55201147  0.51209729  1  0.059695  -0.000545  0.935558  -0.001  0.077056  -0.000321  0.996822  0.0  0.078094  -0.000194  0.996395  0.0  0.086716  0.076226  -0.000429  0.997333  -0.001
H  H29  1  0.98671274  0.44786675  0.48785061  1  0.059743  0.000532  0.936275  0.001  0.077341  0.00032  0.997369  0.0  0.078376  0.000194  0.996942  0.0  0.086954  0.076518  0.000427  0.99788  0.001
H  H30  1  0.42705989  0.81810762  0.41775223  1  0.304563  0.000611  0.866793  0.002  0.305716  -0.00053  0.907916  0.0  0.311316  -0.000294  0.905291  0.0  0.310978  0.30176  -0.000729  0.910143  0.0
H  H31  1  0.92718693  0.18123994  0.58233116  1  0.305528  -0.000635  0.86681  -0.002  0.306202  0.000526  0.908345  0.0  0.311763  0.000289  0.90578  0.0  0.311177  0.30227  0.000726  0.910553  0.0
H  H32  1  0.25645261  0.80551792  0.35908577  1  0.291991  0.000689  0.895442  0.002  0.285535  -0.000347  0.954133  0.0  0.291443  -7.4e-05  0.950404  0.001  0.297992  0.281541  -0.00057  0.956792  0.0
H  H33  1  0.75639851  0.19430719  0.64116853  1  0.292585  -0.00071  0.896015  -0.002  0.286092  0.000329  0.954519  0.0  0.291998  5.8e-05  0.950766  -0.001  0.298342  0.282106  0.00055  0.957205  0.0
H  H34  1  0.33518860  0.37732562  0.35743317  1  0.074398  0.000153  0.927432  0.0  0.093646  4.6e-05  0.987485  0.0  0.09414  3.6e-05  0.988106  0.0  0.093143  0.093143  5.1e-05  0.987185  0.0
H  H35  1  0.83530184  0.62263320  0.64259858  1  0.074465  -0.000184  0.926676  0.0  0.0936  -4.7e-05  0.986967  0.0  0.09411  -3.6e-05  0.987607  0.0  0.092993  0.093091  -5.1e-05  0.986664  0.0
H  H36  1  0.52118782  0.36289955  0.30448858  1  0.085691  0.000111  0.935258  0.0  0.10342  -5.8e-05  0.994654  0.0  0.104139  -4.2e-05  0.995136  0.0  0.096009  0.102846  -6.9e-05  0.994244  0.0
H  H37  1  0.02136068  0.63683209  0.69549994  1  0.085638  -0.000117  0.934579  0.0  0.103495  5.5e-05  0.993936  0.0  0.104235  4e-05  0.994445  0.0  0.095867  0.1029  6.6e-05  0.993526  0.0
H  H38  1  0.57016113  0.20293583  0.39778050  1  0.049216  -1.5e-05  0.89556  0.0  0.065823  5e-05  0.948261  0.0  0.065131  4e-05  0.949288  0.0  0.11088  0.06599  5.2e-05  0.947837  0.0
H  H39  1  0.07033821  0.79667510  0.60212561  1  0.049401  1.1e-05  0.895356  0.0  0.065919  -4.9e-05  0.948  0.0  0.065239  -3.9e-05  0.949051  0.0  0.110994  0.066064  -5.1e-05  0.947561  0.0
H  H40  1  0.22300846  0.71620908  0.11681949  1  0.043185  0.000137  0.90245  0.0  0.060309  0.000139  0.958513  0.0  0.059027  0.000109  0.960739  0.0  0.110092  0.060938  0.000158  0.957112  0.0
H  H41  1  0.72290542  0.28415051  0.88331901  1  0.043281  -0.000156  0.902042  0.0  0.06026  -0.00014  0.958174  0.0  0.058923  -0.00011  0.960475  0.0  0.110008  0.060923  -0.000158  0.956725  0.0
H  H42  1  0.51003219  0.61834683  0.96855077  1  0.074982  0.000172  0.94344  0.0  0.091721  5.7e-05  1.007468  0.0  0.092318  4.3e-05  1.008005  0.0  0.090422  0.091223  6.6e-05  1.006886  0.0
H  H43  1  0.01000325  0.38166154  0.03158754  1  0.07485  -0.000178  0.943278  0.0  0.091712  -5.7e-05  1.007227  0.0  0.092295  -4.3e-05  1.007807  0.0  0.09037  0.091218  -6.6e-05  1.006613  0.0
H  H44  1  0.33360139  0.62156745  0.90304686  1  0.083945  0.000114  0.938495  0.0  0.09988  -7.9e-05  1.000045  0.0  0.101175  -6.4e-05  0.999376  0.0  0.094678  0.099081  -9.3e-05  1.000025  0.0
H  H45  1  0.83347003  0.37864606  0.09712994  1  0.083695  -0.00011  0.937615  0.0  0.099512  7.8e-05  0.999484  0.0  0.100844  6.3e-05  0.998797  0.0  0.094398  0.098678  9.2e-05  0.99949  0.0
H  H46  1  0.40013125  0.40462822  0.90224357  1  0.061385  -0.000587  0.947531  -0.001  0.078093  -0.000391  1.015021  0.0  0.078842  -0.000241  1.014269  0.0  0.087405  0.077376  -0.000528  1.01571  -0.001
H  H47  1  0.90006841  0.59542767  0.09769385  1  0.06182  0.000601  0.947851  0.001  0.078371  0.000389  1.015467  0.0  0.079125  0.000241  1.014705  0.0  0.08766  0.07767  0.000526  1.016148  0.001
H  H48  1  0.23687191  0.46588805  0.98859114  1  0.055055  6.1e-05  0.948432  0.0  0.074337  1.6e-05  1.01164  0.0  0.074671  1.4e-05  1.012705  0.0  0.084473  0.073718  1.7e-05  1.011274  0.0
H  H49  1  0.73675195  0.53438529  0.01143059  1  0.055075  -4.4e-05  0.949007  0.0  0.074465  -1.6e-05  1.012074  0.0  0.074801  -1.4e-05  1.013138  0.0  0.084595  0.073799  -1.6e-05  1.011769  0.0
H  H50  1  0.39182928  0.37534258  0.11147039  1  0.074833  -0.00046  0.968594  -0.001  0.089066  -0.000273  1.036051  0.0  0.088617  -0.000163  1.038611  0.0  0.08913  0.089264  -0.000371  1.034433  -0.001
H  H51  1  0.89171168  0.62465975  0.88849593  1  0.07516  0.000476  0.968841  0.001  0.089472  0.000272  1.03614  0.0  0.088978  0.000162  1.038749  0.0  0.089186  0.089696  0.000369  1.034484  0.001
H  H52  1  0.54518842  0.46671015  0.10295584  1  0.059524  6.8e-05  0.938717  0.0  0.081476  1.9e-05  0.996151  0.0  0.081448  1.7e-05  0.997697  0.0  0.086986  0.081514  2.2e-05  0.994831  0.0
H  H53  1  0.04511666  0.53317696  0.89704495  1  0.059783  -6e-05  0.938652  0.0  0.081679  -2e-05  0.996076  0.0  0.081665  -1.8e-05  0.997597  0.0  0.087073  0.081668  -2.2e-05  0.99482  0.0
H  H54  1  0.42197907  0.56537288  0.31521718  1  0.06747  6.9e-05  0.95688  0.0  0.084576  -0.000125  1.021268  0.0  0.08548  -9e-05  1.021102  0.0  0.089035  0.083792  -0.00016  1.02167  0.0
H  H55  1  0.92188674  0.43455959  0.68472049  1  0.067069  -7.8e-05  0.956226  0.0  0.084326  0.000127  1.020573  0.0  0.085243  9.1e-05  1.02041  0.0  0.08895  0.083534  0.000163  1.020978  0.0
H  H56  1  0.25110763  0.56888223  0.23976884  1  0.06834  0.000127  0.927641  0.0  0.089956  1.8e-05  0.984619  0.0  0.090461  1.8e-05  0.985201  0.0  0.090919  0.08954  1.3e-05  0.984137  0.0
H  H57  1  0.75095762  0.43125170  0.76021112  1  0.068155  -0.000138  0.926999  0.0  0.089631  -1.8e-05  0.984233  0.0  0.090188  -1.7e-05  0.984759  0.0  0.090742  0.089216  -1.3e-05  0.983741  0.0
H  H58  1  0.53395163  0.70827326  0.21881870  1  0.0513  -5.3e-05  0.900576  0.0  0.068671  3e-06  0.954317  0.0  0.067715  3e-06  0.95607  0.0  0.113001  0.069183  -1e-06  0.953175  0.0
H  H59  1  0.03389245  0.29178885  0.78141695  1  0.051373  4.7e-05  0.900401  0.0  0.06873  -3e-06  0.954216  0.0  0.067783  -5e-06  0.95596  0.0  0.112931  0.069236  -0.0  0.953071  0.0
C  C60  1  0.03638333  0.85960790  0.00232927  1  0.033081  7.6e-05  3.522924  0.0  0.007912  7.3e-05  3.865827  0.0  0.013026  5.7e-05  3.867121  0.0  0.0017  0.001456  5.9e-05  3.86563  0.0
C  C61  1  0.53662780  0.14053352  0.99765283  1  0.033113  2e-06  3.522855  0.0  0.008085  -6.7e-05  3.86549  0.0  0.01318  -5e-05  3.866802  0.0  0.001614  0.001625  -5e-05  3.865295  0.0
C  C62  1  0.74628512  0.83861346  0.98727118  1  0.017477  6.9e-05  3.53987  0.0  -0.008216  9.6e-05  3.886948  0.0  -0.004425  7.6e-05  3.889513  0.0  -0.008898  -0.01372  7.9e-05  3.885558  0.0
C  C63  1  0.24636425  0.16147014  0.01267659  1  0.017298  -3.3e-05  3.540118  0.0  -0.00854  -9.9e-05  3.887504  0.0  -0.004754  -6.7e-05  3.890056  0.0  -0.00912  -0.014047  -8e-05  3.886117  0.0
C  C64  1  0.73787817  0.92997377  0.23953654  1  0.062239  0.002467  3.520925  0.002  0.040409  0.001955  3.861684  0.002  0.051255  0.00178  3.858224  0.002  0.00439  0.030854  0.001978  3.863397  0.002
C  C65  1  0.23811586  0.06993921  0.76036421  1  0.061989  -0.002372  3.522627  -0.002  0.040309  -0.001939  3.863152  -0.002  0.050941  -0.00176  3.859937  -0.002  0.004799  0.030806  -0.001958  3.864873  -0.002
C  C66  1  0.01590035  0.94562077  0.25083527  1  0.060278  0.00169  3.542151  0.002  0.035938  0.001413  3.887551  0.001  0.045166  0.001298  3.884759  0.001  0.002185  0.027959  0.001382  3.888051  0.001
C  C67  1  0.51613670  0.05450438  0.74927174  1  0.060337  -0.001793  3.541407  -0.002  0.035885  -0.001421  3.88676  -0.001  0.045158  -0.001301  3.88392  -0.001  0.002536  0.027865  -0.001386  3.887352  -0.001
C  C68  1  0.35974218  0.21418932  0.48931437  1  0.151691  0.000857  3.58959  0.003  0.136911  -0.000878  3.834653  0.001  0.141298  -0.00019  3.85119  0.002  0.000869  0.134055  -0.001429  3.823909  0.001
C  C69  1  0.85991116  0.78588721  0.51075463  1  0.15168  -0.000877  3.589707  -0.003  0.13718  0.00089  3.83439  -0.001  0.141554  0.000194  3.851013  -0.002  0.001231  0.134396  0.001433  3.823514  -0.001
C  C70  1  0.40306027  0.31195315  0.61987427  1  -0.158419  -0.005087  3.679237  -0.005  -0.204266  -0.003195  3.94309  -0.003  -0.205906  -0.002251  3.958163  -0.002  -0.165044  -0.203023  -0.003893  3.932457  -0.004
C  C71  1  0.90307556  0.68798306  0.38009502  1  -0.158544  0.005114  3.675821  0.005  -0.204519  0.0032  3.93959  0.003  -0.206168  0.002262  3.954643  0.002  -0.165024  -0.203329  0.003897  3.928963  0.004
C  C72  1  0.39904378  0.44560194  0.61998759  1  -0.107101  -0.001294  3.684469  -0.001  -0.146379  -0.000966  3.946398  -0.001  -0.147628  -0.000631  3.962172  -0.001  -0.164702  -0.145178  -0.001249  3.93542  -0.001
C  C73  1  0.89907583  0.55429422  0.37999162  1  -0.107257  0.001214  3.685804  0.001  -0.146375  0.000971  3.947628  0.001  -0.147678  0.000629  3.963468  0.001  -0.164841  -0.145185  0.001244  3.936675  0.001
C  C74  1  0.49416508  0.45599823  0.51193473  1  -0.101803  -0.001412  3.706224  -0.002  -0.143924  -0.001067  3.978811  -0.001  -0.144878  -0.000719  3.993744  -0.001  -0.164789  -0.143076  -0.001358  3.968634  -0.002
C  C75  1  0.99422654  0.54380012  0.48791624  1  -0.101555  0.001438  3.706858  0.002  -0.144336  0.001063  3.979942  0.001  -0.145252  0.000721  3.994893  0.001  -0.165187  -0.143522  0.001353  3.969774  0.002
C  C76  1  0.44898464  0.35860241  0.38116792  1  -0.1719  -0.004581  3.672239  -0.005  -0.216686  -0.002984  3.933496  -0.003  -0.218458  -0.002128  3.947505  -0.002  -0.165441  -0.215199  -0.003629  3.923615  -0.003
C  C77  1  0.94912718  0.64128949  0.61879766  1  -0.172115  0.004643  3.668111  0.005  -0.217013  0.003002  3.929628  0.003  -0.218834  0.002147  3.943712  0.002  -0.165277  -0.215531  0.003643  3.919715  0.003
C  C78  1  0.45486859  0.22592082  0.38230421  1  0.150596  -9e-06  3.58894  0.002  0.134439  -0.001358  3.835396  0.0  0.138922  -0.000594  3.851428  0.001  -0.001117  0.131579  -0.001952  3.824942  0.0
C  C79  1  0.95500035  0.77406910  0.61774540  1  0.151135  1.4e-05  3.587776  -0.002  0.135172  0.001369  3.833711  0.0  0.1396  0.000605  3.849827  -0.001  -0.000824  0.132362  0.00196  3.823136  0.0
C  C80  1  0.34463012  0.71660606  0.10714643  1  0.155204  0.000212  3.575374  0.002  0.138915  -0.001101  3.821135  0.0  0.14274  -0.000441  3.838881  0.001  0.001138  0.136512  -0.00162  3.809225  0.0
C  C81  1  0.84454052  0.28340601  0.89288666  1  0.155911  -0.000172  3.572635  -0.002  0.139833  0.001111  3.818353  0.0  0.143681  0.000453  3.836087  -0.001  0.00165  0.137424  0.001632  3.806472  0.0
C  C82  1  0.39071884  0.60920053  0.98358878  1  -0.175777  -0.004587  3.670806  -0.005  -0.219032  -0.002967  3.929243  -0.003  -0.220583  -0.002108  3.942478  -0.002  -0.166882  -0.217479  -0.00363  3.919346  -0.003
C  C83  1  0.89062689  0.39090383  0.01650081  1  -0.175337  0.004582  3.667163  0.005  -0.2186  0.002969  3.925624  0.003  -0.220194  0.002121  3.938924  0.002  -0.166298  -0.216999  0.003629  3.915678  0.003
C  C84  1  0.35764483  0.48004822  0.98879524  1  -0.099094  -0.001274  3.690362  -0.001  -0.141624  -0.000911  3.958651  -0.001  -0.142346  -0.000604  3.973459  -0.001  -0.165427  -0.14117  -0.001179  3.94873  -0.001
C  C85  1  0.85752844  0.52012366  0.01118234  1  -0.09978  0.001188  3.692394  0.001  -0.142391  0.00091  3.960812  0.001  -0.143109  0.000598  3.975628  0.001  -0.166253  -0.141936  0.001172  3.950858  0.001
C  C86  1  0.42329271  0.46640541  0.10803550  1  -0.112726  -0.001361  3.692551  -0.002  -0.153498  -0.001073  3.955022  -0.001  -0.154924  -0.000714  3.971209  -0.001  -0.170263  -0.15219  -0.001384  3.943598  -0.002
C  C87  1  0.92322301  0.53364447  0.89199442  1  -0.113114  0.001325  3.694124  0.002  -0.153783  0.00107  3.956404  0.001  -0.155179  0.000718  3.972618  0.001  -0.170241  -0.152468  0.00138  3.944947  0.002
C  C88  1  0.37235769  0.57378194  0.22972717  1  -0.162855  -0.00422  3.692444  -0.004  -0.207756  -0.002974  3.954332  -0.003  -0.208922  -0.002119  3.967224  -0.002  -0.165884  -0.206728  -0.003633  3.945344  -0.003
C  C89  1  0.87227712  0.42626322  0.77030574  1  -0.162023  0.004239  3.689764  0.004  -0.206936  0.002982  3.951761  0.003  -0.208148  0.002127  3.96469  0.002  -0.165446  -0.205898  0.003639  3.942758  0.003
C  C90  1  0.41262562  0.70096349  0.22461464  1  0.143722  0.000416  3.603986  0.002  0.125315  -0.000963  3.854661  0.001  0.129432  -0.000306  3.870834  0.001  -0.002556  0.122692  -0.001491  3.843786  0.0
C  C91  1  0.91254449  0.29900883  0.77545955  1  0.143483  -0.000426  3.603111  -0.002  0.124982  0.000964  3.853827  -0.001  0.129099  0.000309  3.870004  -0.001  -0.002649  0.122358  0.001489  3.842981  0.0
N  N92  1  0.13441503  0.83618693  0.92815883  1  -0.436241  -4.8e-05  2.744229  0.0  -0.396126  -5.1e-05  2.986251  0.0  -0.407522  -2.5e-05  2.997778  0.0  -0.366137  -0.386944  -4.8e-05  2.978212  0.0
N  N93  1  0.63477655  0.16389587  0.07174401  1  -0.436321  -1.6e-05  2.743808  0.0  -0.396241  5.8e-05  2.985688  0.0  -0.407649  3e-05  2.997227  0.0  -0.36596  -0.387046  5.8e-05  2.977644  0.0
N  N94  1  0.66082140  0.79938351  0.90256652  1  -0.438365  -1.9e-05  2.706848  0.0  -0.398493  -1.8e-05  2.941347  0.0  -0.409345  -0.0  2.953795  0.0  -0.376206  -0.389418  -2.4e-05  2.932551  0.0
N  N95  1  0.16083040  0.20059333  0.09734749  1  -0.438033  -1.7e-05  2.707085  0.0  -0.398162  2.2e-05  2.941683  0.0  -0.409034  -8e-06  2.954157  0.0  -0.37586  -0.38907  2.4e-05  2.932863  0.0
N  N96  1  0.64950170  0.95096904  0.32182634  1  -0.477099  0.00081  2.886023  -0.001  -0.43746  0.000931  3.163557  0.0  -0.45234  0.000816  3.170317  0.0  -0.385513  -0.426774  0.001024  3.157977  0.0
N  N97  1  0.14990499  0.04874214  0.67794677  1  -0.476866  -0.000887  2.88644  0.001  -0.437307  -0.000935  3.163737  0.0  -0.452102  -0.000824  3.170539  0.0  -0.385441  -0.426723  -0.001029  3.158112  0.0
N  N98  1  0.09548797  0.97324664  0.33995925  1  -0.484318  0.000693  2.854469  -0.001  -0.445758  0.000835  3.128437  0.0  -0.459503  0.000784  3.136502  0.0  -0.38071  -0.436031  0.000911  3.122084  0.0
N  N99  1  0.59578180  0.02690207  0.66018997  1  -0.484217  -0.000599  2.854304  0.001  -0.445464  -0.000824  3.128211  0.0  -0.459213  -0.00078  3.136229  0.0  -0.38102  -0.435803  -0.0009  3.121937  0.0
N  N100  1  0.37181016  0.08328127  0.48172583  1  -0.616692  -0.103704  3.140681  -0.124  -0.605557  -0.070733  3.408611  -0.088  -0.636571  -0.058281  3.414817  -0.077  -0.642759  -0.58655  -0.077494  3.405795  -0.093
N  N101  1  0.87176798  0.91683212  0.51846921  1  -0.616793  0.103655  3.144601  0.124  -0.605994  0.070818  3.412297  0.088  -0.636969  0.058419  3.418463  0.077  -0.643807  -0.587142  0.077562  3.409512  0.093
N  N102  1  0.40719211  0.12651213  0.26089818  1  -0.615303  -0.097261  3.119363  -0.117  -0.602767  -0.06642  3.385509  -0.083  -0.632857  -0.055147  3.390841  -0.073  -0.637058  -0.584839  -0.072478  3.383881  -0.088
N  N103  1  0.90735484  0.87369525  0.73908419  1  -0.616412  0.097381  3.12239  0.117  -0.603951  0.06661  3.387955  0.084  -0.633926  0.055357  3.393225  0.073  -0.638348  -0.58618  0.072648  3.386317  0.088
N  N104  1  0.38403758  0.84292027  0.10898171  1  -0.621275  -0.08756  3.084386  -0.106  -0.606147  -0.060793  3.345612  -0.076  -0.635424  -0.050549  3.350252  -0.067  -0.63143  -0.588039  -0.066429  3.343562  -0.08
N  N105  1  0.88382391  0.15689398  0.89077768  1  -0.621636  0.087599  3.086981  0.106  -0.606645  0.060916  3.348119  0.076  -0.635791  0.050715  3.352616  0.067  -0.632879  -0.588751  0.066505  3.346175  0.081
N  N106  1  0.36624605  0.81020164  0.33858738  1  -0.609581  -0.082322  3.151771  -0.099  -0.595656  -0.059754  3.419127  -0.074  -0.622349  -0.05012  3.420249  -0.065  -0.631133  -0.579683  -0.065141  3.419721  -0.078
N  N107  1  0.86621452  0.18975331  0.66150363  1  -0.610875  0.082607  3.153311  0.099  -0.59632  0.059963  3.420849  0.074  -0.622989  0.050342  3.421878  0.066  -0.631964  -0.580468  0.065338  3.421513  0.078
