# generated using pymatgen
data_ZnH9C14NO7
_symmetry_space_group_name_H-M   'P 1'
_cell_length_a   7.62054569
_cell_length_b   8.41227357
_cell_length_c   10.42617669
_cell_angle_alpha   96.01997604
_cell_angle_beta   98.16150699
_cell_angle_gamma   104.60625010
_symmetry_Int_Tables_number   1
_chemical_formula_structural   ZnH9C14NO7
_chemical_formula_sum   'Zn2 H18 C28 N2 O14'
_cell_volume   633.28811197
_cell_formula_units_Z   2
loop_
 _symmetry_equiv_pos_site_id
 _symmetry_equiv_pos_as_xyz
  1  'x, y, z'
loop_
 _atom_site_type_symbol
 _atom_site_label
 _atom_site_symmetry_multiplicity
 _atom_site_fract_x
 _atom_site_fract_y
 _atom_site_fract_z
 _atom_site_occupancy
 _atom_site_pbe_bader_spin_density
 _atom_site_pbe_cm5_charge
 _atom_site_pbe_ddec_charge
 _atom_site_pbe_ddec_spin_density
 _atom_site_pbe_ddec_sum_bond_order
 _atom_site_pbe_magmom
Zn  Zn0  1  0.68621133  0.99309280  0.24152066  1  0  0.682554  0.886467  0  2.225208  0
Zn  Zn1  1  0.31379222  0.00690874  0.75847779  1  0  0.682566  0.886465  0  2.225214  0
H  H2  1  0.68971040  0.17058595  0.68674437  1  0  0.298975  0.355469  0  0.99402  0
H  H3  1  0.31028806  0.82941187  0.31325613  1  0  0.298987  0.355512  0  0.993954  0
H  H4  1  0.41727108  0.11336751  0.26603594  1  0  0.293545  0.375304  0  0.966459  0
H  H5  1  0.58272737  0.88663031  0.73396455  1  0  0.293552  0.375319  0  0.966445  0
H  H6  1  0.41052344  0.08750504  0.11660682  1  0  0.302116  0.412449  0  0.911766  0
H  H7  1  0.58947671  0.91249402  0.88339300  1  0  0.302115  0.412442  0  0.911779  0
H  H8  1  0.74899685  0.72361262  0.65129611  1  0  0.113882  0.121238  0  1.020608  0
H  H9  1  0.25099971  0.27638771  0.34870251  1  0  0.113889  0.12126  0  1.020555  0
H  H10  1  0.76160419  0.44173843  0.54930767  1  0  0.11047  0.115828  0  1.013373  0
H  H11  1  0.23839937  0.55826311  0.45069175  1  0  0.110467  0.115815  0  1.013404  0
H  H12  1  0.78391490  0.39906728  0.31191217  1  0  0.115185  0.135561  0  1.005737  0
H  H13  1  0.21609131  0.60093423  0.68808751  1  0  0.115193  0.135532  0  1.005723  0
H  H14  1  0.00594232  0.86593835  0.16921655  1  0  0.108167  0.111231  0  1.033712  0
H  H15  1  0.99405291  0.13406200  0.83078098  1  0  0.108142  0.111211  0  1.033732  0
H  H16  1  0.89028108  0.57372151  0.78966068  1  0  0.1091  0.111279  0  1.028495  0
H  H17  1  0.10971643  0.42627757  0.21033888  1  0  0.109106  0.111287  0  1.028459  0
H  H18  1  0.60873235  0.38398927  0.09490281  1  0  0.109519  0.121964  0  1.022075  0
H  H19  1  0.39126970  0.61600727  0.90509888  1  0  0.109491  0.121955  0  1.022071  0
C  C20  1  0.72286067  0.98505709  0.51826152  1  0  0.223482  0.556723  0  4.176664  0
C  C21  1  0.27714156  0.01494446  0.48173681  1  0  0.223448  0.556721  0  4.176662  0
C  C22  1  0.74874482  0.81933626  0.46801949  1  0  0.106791  0.093111  0  3.990593  0
C  C23  1  0.25125400  0.18066282  0.53197923  1  0  0.106792  0.093083  0  3.990643  0
C  C24  1  0.75300460  0.69685280  0.54761843  1  0  -0.068675  -0.111104  0  3.910774  0
C  C25  1  0.24699158  0.30314630  0.45238004  1  0  -0.068691  -0.111107  0  3.91075  0
C  C26  1  0.76262366  0.54210780  0.49101380  1  0  -0.059811  -0.012875  0  3.928173  0
C  C27  1  0.23737384  0.45789129  0.50898480  1  0  -0.059795  -0.012884  0  3.928137  0
C  C28  1  0.77393589  0.51765301  0.35878950  1  0  -0.067102  -0.139102  0  3.863683  0
C  C29  1  0.22606465  0.48234729  0.64121046  1  0  -0.067084  -0.139029  0  3.8636  0
C  C30  1  0.77623698  0.64868657  0.28524434  1  0  0.131235  0.227283  0  3.954057  0
C  C31  1  0.22376224  0.35131374  0.71475645  1  0  0.13121  0.227334  0  3.954033  0
C  C32  1  0.80040262  0.62946867  0.14683049  1  0  -0.007659  0.024006  0  3.99634  0
C  C33  1  0.19959583  0.37052917  0.85316809  1  0  -0.007676  0.023993  0  3.996364  0
C  C34  1  0.92654310  0.75444390  0.10252132  1  0  -0.065869  -0.097636  0  3.897147  0
C  C35  1  0.07345402  0.24555394  0.89747713  1  0  -0.065857  -0.097657  0  3.89714  0
C  C36  1  0.95808623  0.73474970  0.97377450  1  0  -0.013777  -0.022443  0  3.967492  0
C  C37  1  0.04191259  0.26524938  0.02622422  1  0  -0.013781  -0.022441  0  3.967378  0
C  C38  1  0.86206596  0.59035298  0.88870508  1  0  -0.06937  -0.090947  0  3.911951  0
C  C39  1  0.13793325  0.40964734  0.11129380  1  0  -0.069363  -0.090958  0  3.911961  0
C  C40  1  0.73541300  0.46497965  0.93193683  1  0  -0.01937  -0.054  0  4.0035  0
C  C41  1  0.26458452  0.53501942  0.06806368  1  0  -0.019388  -0.05395  0  4.003464  0
C  C42  1  0.70488533  0.48384559  0.06132675  1  0  -0.066661  -0.105179  0  3.884306  0
C  C43  1  0.29511616  0.51615345  0.93867415  1  0  -0.066626  -0.105209  0  3.884162  0
C  C44  1  0.10155287  0.86430601  0.92962882  1  0  0.209365  0.579774  0  4.200105  0
C  C45  1  0.89844596  0.13569307  0.07036991  1  0  0.209328  0.579804  0  4.200106  0
C  C46  1  0.64098040  0.30832409  0.84285873  1  0  0.240286  0.599738  0  4.085314  0
C  C47  1  0.35901807  0.69167371  0.15714368  1  0  0.24036  0.599884  0  4.085284  0
N  N48  1  0.76093772  0.79638520  0.33993776  1  0  -0.308591  -0.314794  0  3.493416  0
N  N49  1  0.23906244  0.20361386  0.66006206  1  0  -0.308593  -0.314836  0  3.493317  0
O  O50  1  0.70450292  0.08497995  0.43784198  1  0  -0.304605  -0.509171  0  2.26953  0
O  O51  1  0.29550198  0.91502156  0.56215948  1  0  -0.304628  -0.509186  0  2.26951  0
O  O52  1  0.71933811  0.01485674  0.64040092  1  0  -0.294677  -0.521381  0  2.314892  0
O  O53  1  0.28066602  0.98514229  0.35960024  1  0  -0.294604  -0.521337  0  2.314863  0
O  O54  1  0.21247198  0.97645675  0.01219939  1  0  -0.30735  -0.549229  0  2.239038  0
O  O55  1  0.78752577  0.02354728  0.98780352  1  0  -0.307296  -0.549213  0  2.239106  0
O  O56  1  0.10183310  0.85010446  0.80470308  1  0  -0.327787  -0.559065  0  2.320371  0
O  O57  1  0.89817406  0.14989579  0.19529849  1  0  -0.327789  -0.559103  0  2.320394  0
O  O58  1  0.69884870  0.29406132  0.73028178  1  0  -0.322621  -0.495084  0  2.361012  0
O  O59  1  0.30115166  0.70593398  0.26972059  1  0  -0.322666  -0.4952  0  2.360998  0
O  O60  1  0.51640932  0.20123570  0.87670890  1  0  -0.279571  -0.507089  0  2.388324  0
O  O61  1  0.48358480  0.79876089  0.12329297  1  0  -0.279602  -0.507164  0  2.388323  0
O  O62  1  0.49708530  0.13969373  0.19967143  1  0  -0.571182  -0.738318  0  2.091226  0
O  O63  1  0.50291353  0.86030534  0.80032826  1  0  -0.5712  -0.738348  0  2.091234  0
