# generated using pymatgen
data_CuH16C16(NO)4
_symmetry_space_group_name_H-M   'P 1'
_cell_length_a   8.32021097
_cell_length_b   8.80829073
_cell_length_c   13.78271453
_cell_angle_alpha   73.45903054
_cell_angle_beta   72.41126672
_cell_angle_gamma   61.79352057
_symmetry_Int_Tables_number   1
_chemical_formula_structural   CuH16C16(NO)4
_chemical_formula_sum   'Cu2 H32 C32 N8 O8'
_cell_volume   836.34025702
_cell_formula_units_Z   2
loop_
 _symmetry_equiv_pos_site_id
 _symmetry_equiv_pos_as_xyz
  1  'x, y, z'
loop_
 _atom_site_type_symbol
 _atom_site_label
 _atom_site_symmetry_multiplicity
 _atom_site_fract_x
 _atom_site_fract_y
 _atom_site_fract_z
 _atom_site_occupancy
 _atom_site_hle17_ddec_charge
 _atom_site_hle17_ddec_spin_density
 _atom_site_hle17_ddec_sum_bond_order
 _atom_site_hle17_magmom
 _atom_site_hse06_10hf_ddec_charge
 _atom_site_hse06_10hf_ddec_spin_density
 _atom_site_hse06_10hf_ddec_sum_bond_order
 _atom_site_hse06_10hf_magmom
 _atom_site_hse06_ddec_charge
 _atom_site_hse06_ddec_spin_density
 _atom_site_hse06_ddec_sum_bond_order
 _atom_site_hse06_magmom
 _atom_site_pbe_cm5_charge
 _atom_site_pbe_ddec_charge
 _atom_site_pbe_ddec_spin_density
 _atom_site_pbe_ddec_sum_bond_order
 _atom_site_pbe_magmom
Cu  Cu0  1  0.99999897  0.00000047  0.00000301  1  0.839586  0.713738  1.774164  0.498  0.817437  0.796331  2.155348  0.609  0.907932  0.869753  2.086357  0.69  0.73624  0.761052  0.74482  2.204677  0.558
Cu  Cu1  1  0.99999988  0.49999955  0.49999789  1  0.840446  -0.713371  1.771556  -0.498  0.817236  -0.796077  2.153908  -0.609  0.908681  -0.869557  2.08365  -0.689  0.735673  0.759668  -0.744567  2.204665  -0.558
H  H2  1  0.45122917  0.13110653  0.93770715  1  0.097732  -5e-05  0.957679  0.0  0.107012  5.5e-05  1.021644  0.0  0.110716  3.6e-05  1.018942  0.0  0.101753  0.104367  7.2e-05  1.023612  0.0
H  H3  1  0.52010783  0.36865536  0.56238838  1  0.097215  7e-05  0.958515  0.0  0.106357  -3.7e-05  1.022523  0.0  0.110027  -2.4e-05  1.019915  0.0  0.101678  0.103731  -4.9e-05  1.024463  0.0
H  H4  1  0.54878717  0.86889610  0.06229178  1  0.097712  -5.5e-05  0.957614  0.0  0.106946  5.5e-05  1.021636  0.0  0.110645  3.6e-05  1.018946  0.0  0.10172  0.104301  7.2e-05  1.023602  0.0
H  H5  1  0.47990732  0.63133548  0.43760944  1  0.097274  7.2e-05  0.958426  0.0  0.106358  -3.7e-05  1.022496  0.0  0.110028  -2.4e-05  1.019889  0.0  0.10167  0.103735  -4.9e-05  1.024435  0.0
H  H6  1  0.10927018  0.04533390  0.75463881  1  0.113067  5.2e-05  0.99906  0.0  0.119747  9.7e-05  1.065054  0.0  0.12275  7.6e-05  1.061571  0.0  0.134199  0.11737  0.000112  1.067757  0.0
H  H7  1  0.90862095  0.45464654  0.74533235  1  0.113226  -4.6e-05  1.000343  0.0  0.120162  -9.5e-05  1.065993  0.0  0.123201  -7.5e-05  1.062428  0.0  0.134194  0.117767  -0.000109  1.068739  0.0
H  H8  1  0.89072282  0.95466752  0.24536643  1  0.113107  5.1e-05  0.999101  0.0  0.11982  9.7e-05  1.065041  0.0  0.122823  7.6e-05  1.061558  0.0  0.134224  0.117443  0.000112  1.067748  0.0
H  H9  1  0.09137792  0.54535088  0.25466799  1  0.113248  -4.9e-05  1.000381  0.0  0.120228  -9.5e-05  1.065977  0.0  0.12327  -7.5e-05  1.06241  0.0  0.134209  0.117835  -0.000109  1.068723  0.0
H  H10  1  0.58123669  0.56131983  0.78798445  1  0.118143  0.00059  0.992699  0.001  0.12274  0.00046  1.063127  0.001  0.125562  0.000355  1.061568  0.0  0.117575  0.120589  0.000538  1.064396  0.001
H  H11  1  0.93107444  0.93796497  0.71208800  1  0.118251  -0.000593  0.993999  -0.001  0.123425  -0.000457  1.063432  -0.001  0.126356  -0.000353  1.061758  0.0  0.11789  0.121222  -0.000534  1.064749  -0.001
H  H12  1  0.41875352  0.43867635  0.21202017  1  0.118104  0.000597  0.992762  0.001  0.122786  0.00046  1.063121  0.001  0.125617  0.000355  1.061554  0.0  0.117586  0.120636  0.000538  1.064393  0.001
H  H13  1  0.06892502  0.06203231  0.28790181  1  0.118206  -0.00059  0.993859  -0.001  0.12337  -0.000456  1.063338  -0.001  0.126304  -0.000353  1.061665  0.0  0.117881  0.121164  -0.000534  1.064661  -0.001
H  H14  1  0.37041443  0.63365417  0.98212565  1  0.106102  0.000154  0.977528  0.0  0.116924  0.000329  1.034929  0.001  0.118878  0.000244  1.034432  0.0  0.115321  0.115375  0.000397  1.035496  0.001
H  H15  1  0.98683317  0.86581680  0.51794312  1  0.106527  -0.000154  0.977013  0.0  0.117627  -0.000328  1.034054  -0.001  0.11962  -0.000244  1.033486  0.0  0.115546  0.11605  -0.000395  1.034677  -0.001
H  H16  1  0.62957930  0.36633942  0.01788067  1  0.106111  0.000155  0.977536  0.0  0.116977  0.000329  1.034864  0.001  0.118934  0.000244  1.034366  0.0  0.115345  0.115424  0.000397  1.035436  0.001
H  H17  1  0.01316394  0.13417397  0.48204884  1  0.106549  -0.000153  0.976978  0.0  0.117648  -0.000328  1.034032  -0.001  0.119642  -0.000244  1.033462  0.0  0.115565  0.116072  -0.000395  1.034652  -0.001
H  H18  1  0.20622495  0.19612029  0.84515184  1  0.088319  -0.00023  0.970557  0.0  0.092058  -0.000273  1.044564  0.0  0.094824  -0.000258  1.041906  0.0  0.098464  0.089795  -0.000269  1.046837  0.0
H  H19  1  0.24767283  0.30337830  0.65498875  1  0.089021  0.000237  0.970338  0.0  0.092175  0.000279  1.044747  0.0  0.094937  0.000262  1.042103  0.0  0.098959  0.089928  0.000278  1.047001  0.0
H  H20  1  0.79378537  0.80388238  0.15484929  1  0.088275  -0.000223  0.970537  0.0  0.091989  -0.000273  1.044587  0.0  0.094757  -0.000258  1.041928  0.0  0.098444  0.089728  -0.000269  1.046856  0.0
H  H21  1  0.75233910  0.69661648  0.34501011  1  0.089  0.000234  0.970278  0.0  0.092136  0.00028  1.044728  0.0  0.094896  0.000262  1.042087  0.0  0.098977  0.089888  0.000279  1.046988  0.0
H  H22  1  0.42863143  0.72330512  0.59987298  1  0.111097  -0.000104  0.942516  0.0  0.129604  -9.2e-05  1.00846  0.0  0.130865  -5.9e-05  1.00789  0.0  0.107416  0.128582  -0.000125  1.008988  0.0
H  H23  1  0.75110850  0.77670573  0.90000797  1  0.110749  0.000117  0.941845  0.0  0.129397  0.000109  1.007747  0.0  0.130659  7.1e-05  1.007198  0.0  0.107228  0.128353  0.000146  1.008266  0.0
H  H24  1  0.57136142  0.27669500  0.40013311  1  0.111167  -0.000107  0.942436  0.0  0.129641  -9.2e-05  1.008399  0.0  0.130903  -5.9e-05  1.007828  0.0  0.107436  0.128624  -0.000125  1.008922  0.0
H  H25  1  0.24889507  0.22329948  0.09998718  1  0.110766  0.000115  0.941923  0.0  0.129408  0.000109  1.007816  0.0  0.130665  7.1e-05  1.007274  0.0  0.107242  0.128366  0.000146  1.008334  0.0
H  H26  1  0.55582229  0.83580791  0.60416930  1  0.112001  0.00013  0.928307  0.0  0.133271  0.000106  0.986756  0.0  0.133799  7.8e-05  0.987159  0.0  0.108952  0.132755  0.000128  0.986633  0.0
H  H27  1  0.99518459  0.66410407  0.89588126  1  0.111282  -0.000117  0.928117  0.0  0.13264  -9.9e-05  0.986564  0.0  0.133176  -7.4e-05  0.986956  0.0  0.108867  0.132109  -0.000118  0.986454  0.0
H  H28  1  0.44416484  0.16419484  0.39583728  1  0.111952  0.000126  0.928375  0.0  0.133196  0.000106  0.986848  0.0  0.133724  7.8e-05  0.987252  0.0  0.108913  0.132678  0.000128  0.986725  0.0
H  H29  1  0.00482075  0.33589979  0.10411163  1  0.111257  -0.000121  0.928131  0.0  0.132645  -9.9e-05  0.986548  0.0  0.133182  -7.4e-05  0.986939  0.0  0.108844  0.132115  -0.000118  0.98644  0.0
H  H30  1  0.31480717  0.95600462  0.59491939  1  0.115219  -5.2e-05  0.932969  0.0  0.13652  -1.9e-05  0.99338  0.0  0.137187  -1.7e-05  0.993447  0.0  0.114498  0.135892  -2.1e-05  0.993473  0.0
H  H31  1  0.86511177  0.54395170  0.90518363  1  0.115343  5.4e-05  0.93329  0.0  0.13666  2e-05  0.993609  0.0  0.137321  1.7e-05  0.993697  0.0  0.114471  0.13604  2.2e-05  0.993679  0.0
H  H32  1  0.68518172  0.04399420  0.40508760  1  0.115168  -5.4e-05  0.933032  0.0  0.13646  -1.9e-05  0.993438  0.0  0.137128  -1.7e-05  0.993505  0.0  0.114501  0.135836  -2.1e-05  0.993529  0.0
H  H33  1  0.13489151  0.45605091  0.09481325  1  0.115382  5.1e-05  0.933363  0.0  0.136679  2e-05  0.993688  0.0  0.13734  1.7e-05  0.993774  0.0  0.114496  0.13606  2.2e-05  0.993757  0.0
C  C34  1  0.76159868  0.18015322  0.86477492  1  0.63102  -0.004554  3.913811  -0.008  0.585883  -0.000605  4.219435  -0.004  0.62301  -0.00109  4.211693  -0.003  0.200804  0.560742  -0.000148  4.223871  -0.004
C  C35  1  0.80674213  0.31935732  0.63520089  1  0.630966  0.004546  3.915428  0.008  0.586528  0.000599  4.220212  0.004  0.623612  0.00108  4.212461  0.003  0.200729  0.561437  0.000141  4.224613  0.004
C  C36  1  0.23840695  0.81985466  0.13522424  1  0.630942  -0.004554  3.913865  -0.008  0.585828  -0.000606  4.219455  -0.004  0.622956  -0.00109  4.211711  -0.003  0.200781  0.560684  -0.000148  4.223895  -0.004
C  C37  1  0.19326072  0.68064923  0.36479676  1  0.630753  0.004544  3.915557  0.008  0.586421  0.000598  4.220231  0.004  0.623502  0.00108  4.21248  0.003  0.200664  0.56133  0.000141  4.224637  0.004
C  C38  1  0.62280641  0.21481742  0.80314782  1  -0.074447  0.008545  3.741967  0.009  -0.057842  0.004473  3.9707  0.005  -0.063404  0.003281  3.991181  0.004  -0.014648  -0.054141  0.005338  3.956858  0.006
C  C39  1  0.64086165  0.28492687  0.69690575  1  -0.073549  -0.008572  3.740918  -0.009  -0.058247  -0.004478  3.970691  -0.005  -0.06359  -0.003281  3.990987  -0.004  -0.014902  -0.054751  -0.005343  3.957055  -0.006
C  C40  1  0.37719966  0.78518652  0.19685057  1  -0.074406  0.008496  3.742143  0.009  -0.057763  0.004471  3.970831  0.005  -0.063326  0.00328  3.991311  0.004  -0.014613  -0.054059  0.005337  3.956989  0.006
C  C41  1  0.35914338  0.71507315  0.30309331  1  -0.073535  -0.00851  3.740989  -0.009  -0.058325  -0.004477  3.970802  -0.005  -0.06366  -0.003281  3.991091  -0.004  -0.014905  -0.054821  -0.005343  3.957161  -0.006
C  C42  1  0.46585226  0.18301179  0.85525807  1  -0.079711  -0.000113  3.735405  0.0  -0.101586  -3.5e-05  3.98028  0.0  -0.102124  -0.000136  3.999592  0.0  -0.088046  -0.101094  4.3e-05  3.967102  0.0
C  C43  1  0.50418013  0.31678443  0.64484084  1  -0.07921  1.7e-05  3.735451  0.0  -0.100662  -1.2e-05  3.980267  0.0  -0.101241  0.000109  3.999492  0.0  -0.088144  -0.100159  -0.000108  3.967208  0.0
C  C44  1  0.53415937  0.81698432  0.14474160  1  -0.079701  -4.2e-05  3.735525  0.0  -0.101545  -3.5e-05  3.980388  0.0  -0.102082  -0.000137  3.999699  0.0  -0.088005  -0.101055  4.3e-05  3.967211  0.0
C  C45  1  0.49583018  0.68321033  0.35515587  1  -0.079213  -4.7e-05  3.735393  0.0  -0.100591  -1.2e-05  3.980222  0.0  -0.101171  0.000108  3.999442  0.0  -0.088068  -0.100091  -0.000109  3.967167  0.0
C  C46  1  0.20702714  0.92507208  0.79244607  1  0.137237  -0.004905  3.650704  -0.005  0.081993  -0.000954  3.914994  -0.001  0.09682  -0.001698  3.929083  -0.002  0.136938  0.072692  -0.000399  3.905384  0.0
C  C47  1  0.92419992  0.57477598  0.70759014  1  0.136531  0.004858  3.654391  0.004  0.081193  0.000948  3.918054  0.001  0.09603  0.001693  3.932198  0.002  0.136577  0.07189  0.000388  3.908376  0.0
C  C48  1  0.79296336  0.07492544  0.20756128  1  0.137157  -0.004898  3.650852  -0.005  0.081927  -0.000954  3.915075  -0.001  0.096755  -0.001697  3.92916  -0.002  0.136889  0.072624  -0.000399  3.905468  0.0
C  C49  1  0.07579778  0.42522272  0.29240816  1  0.136386  0.004874  3.654555  0.005  0.080999  0.000947  3.918227  0.001  0.095833  0.001694  3.932373  0.002  0.136483  0.071696  0.000389  3.908555  0.0
C  C50  1  0.45366856  0.67244292  0.81041893  1  -0.065576  0.003512  3.660821  0.003  -0.103685  0.002013  3.910376  0.002  -0.102132  0.001752  3.928845  0.002  -0.002576  -0.104591  0.002197  3.897937  0.002
C  C51  1  0.93679448  0.82704801  0.68965251  1  -0.066674  -0.003488  3.663467  -0.003  -0.10523  -0.002014  3.912935  -0.002  -0.10377  -0.001755  3.931312  -0.002  -0.002673  -0.106083  -0.002195  3.90057  -0.002
C  C52  1  0.54632282  0.32755198  0.18958775  1  -0.065534  0.003466  3.660943  0.003  -0.10373  0.002013  3.910452  0.002  -0.102188  0.001752  3.928935  0.002  -0.002561  -0.104636  0.002197  3.898018  0.002
C  C53  1  0.06320807  0.17295194  0.31034154  1  -0.066472  -0.003502  3.663322  -0.003  -0.105029  -0.002014  3.912803  -0.002  -0.103573  -0.001756  3.931178  -0.002  -0.002676  -0.105882  -0.002195  3.900437  -0.002
C  C54  1  0.34904543  0.70891736  0.90621149  1  -0.014437  0.000441  3.756898  0.0  -0.042959  0.001206  4.021635  0.001  -0.039681  0.000516  4.042707  0.0  -0.010796  -0.044932  0.001691  4.007625  0.002
C  C55  1  0.96458098  0.79063369  0.59385013  1  -0.013939  -0.00044  3.755542  0.0  -0.042743  -0.001205  4.020318  -0.001  -0.03946  -0.000516  4.041428  0.0  -0.01092  -0.044716  -0.001687  4.006261  -0.002
C  C56  1  0.65094742  0.29107885  0.09379551  1  -0.01436  0.000466  3.756953  0.0  -0.042898  0.001205  4.021669  0.001  -0.039623  0.000516  4.042747  0.0  -0.010788  -0.044869  0.00169  4.007659  0.002
C  C57  1  0.03541848  0.20936234  0.40614413  1  -0.014008  -0.000433  3.755545  0.0  -0.042821  -0.001206  4.020349  -0.001  -0.03954  -0.000517  4.04146  0.0  -0.010925  -0.044789  -0.001688  4.006281  -0.002
C  C58  1  0.32903619  0.21845703  0.80311581  1  -0.057796  -0.001773  3.757044  -0.002  -0.073396  -0.000598  4.009973  -0.001  -0.075144  -0.000299  4.032022  0.0  -0.09144  -0.072097  -0.000864  3.995038  -0.001
C  C59  1  0.35071719  0.28115596  0.69701131  1  -0.058673  0.001711  3.758558  0.002  -0.073737  0.000563  4.011561  0.001  -0.075449  0.000276  4.033602  0.0  -0.091477  -0.072462  0.000816  3.996621  0.001
C  C60  1  0.67097134  0.78154564  0.19688559  1  -0.057677  -0.001856  3.75734  -0.002  -0.073265  -0.000598  4.010242  -0.001  -0.075015  -0.000299  4.032287  0.0  -0.091364  -0.071964  -0.000865  3.995309  -0.001
C  C61  1  0.64929475  0.71884274  0.30298664  1  -0.058705  0.001779  3.758711  0.002  -0.073751  0.000562  4.011715  0.001  -0.075464  0.000277  4.033761  0.0  -0.091577  -0.072476  0.000816  3.996782  0.001
C  C62  1  0.41897278  0.83280777  0.62754789  1  -0.166884  0.000872  3.617346  0.001  -0.269086  0.000594  3.85735  0.001  -0.265821  0.000481  3.866267  0.001  -0.123104  -0.27098  0.000676  3.851379  0.001
C  C63  1  0.87877546  0.66708742  0.87248195  1  -0.166397  -0.000883  3.617445  -0.001  -0.268677  -0.000587  3.857036  -0.001  -0.265462  -0.000477  3.866014  -0.001  -0.122861  -0.270509  -0.000666  3.85103  -0.001
C  C64  1  0.58101611  0.16719106  0.37245910  1  -0.166813  0.000884  3.617464  0.001  -0.268937  0.000594  3.857462  0.001  -0.265672  0.000481  3.866378  0.001  -0.123048  -0.270835  0.000676  3.851486  0.001
C  C65  1  0.12122783  0.33291777  0.12751225  1  -0.166361  -0.000868  3.617577  -0.001  -0.268652  -0.000587  3.857158  -0.001  -0.265435  -0.000477  3.866136  -0.001  -0.122852  -0.270484  -0.000665  3.851153  -0.001
N  N66  1  0.19534343  0.86676223  0.89385115  1  -0.365955  0.069154  3.373185  0.085  -0.323819  0.049474  3.692184  0.064  -0.354991  0.042093  3.711181  0.057  -0.386594  -0.304835  0.053087  3.680877  0.066
N  N67  1  0.95594164  0.63302061  0.60618894  1  -0.366927  -0.06912  3.374087  -0.085  -0.324613  -0.049498  3.693378  -0.064  -0.35602  -0.042113  3.712374  -0.057  -0.386987  -0.305346  -0.053111  3.68207  -0.066
N  N68  1  0.80464620  0.13323659  0.10615511  1  -0.366037  0.069144  3.373269  0.085  -0.323941  0.04947  3.692308  0.064  -0.355113  0.04209  3.7113  0.057  -0.386655  -0.304956  0.053083  3.681002  0.066
N  N69  1  0.04405694  0.36697414  0.39380690  1  -0.36688  -0.069125  3.374042  -0.085  -0.324555  -0.049497  3.693351  -0.064  -0.355959  -0.042113  3.712346  -0.057  -0.387014  -0.30529  -0.05311  3.682048  -0.066
N  N70  1  0.36201382  0.81064527  0.73966518  1  -0.012041  0.0014  3.583584  0.002  0.090714  0.001175  3.795032  0.002  0.076697  0.00085  3.82093  0.001  -0.242425  0.0999  0.0014  3.777257  0.002
N  N71  1  0.91213648  0.68902814  0.76037926  1  -0.010628  -0.001386  3.587219  -0.002  0.091961  -0.00117  3.798878  -0.002  0.077967  -0.000846  3.824794  -0.001  -0.242112  0.101129  -0.001393  3.781103  -0.002
N  N72  1  0.63797448  0.18935095  0.26034257  1  -0.012057  0.001405  3.583647  0.002  0.090699  0.001174  3.795081  0.002  0.076681  0.000849  3.820982  0.001  -0.242413  0.099884  0.0014  3.777312  0.002
N  N73  1  0.08786372  0.31096922  0.23961605  1  -0.01072  -0.001391  3.587164  -0.002  0.091884  -0.00117  3.798794  -0.002  0.07789  -0.000846  3.824708  -0.001  -0.24202  0.101054  -0.001393  3.781023  -0.002
O  O74  1  0.80667731  0.03301434  0.92757770  1  -0.587799  0.105745  2.02785  0.137  -0.563025  0.069839  2.307954  0.099  -0.606301  0.055094  2.301868  0.082  -0.32202  -0.534072  0.078819  2.312047  0.108
O  O75  1  0.76743481  0.46669663  0.57258386  1  -0.588365  -0.105802  2.028801  -0.137  -0.563583  -0.069898  2.308676  -0.099  -0.607116  -0.055141  2.302692  -0.083  -0.322063  -0.534349  -0.078872  2.312732  -0.108
O  O76  1  0.19332847  0.96699350  0.07241883  1  -0.587806  0.105744  2.027812  0.137  -0.563055  0.069841  2.307898  0.099  -0.606331  0.055095  2.301808  0.082  -0.322067  -0.534101  0.078818  2.311995  0.108
O  O77  1  0.23256421  0.53329675  0.42740852  1  -0.588255  -0.105812  2.028693  -0.137  -0.563508  -0.069901  2.308541  -0.099  -0.607043  -0.055143  2.30256  -0.083  -0.322018  -0.534274  -0.078873  2.3126  -0.108
O  O78  1  0.82264543  0.29070797  0.85574943  1  -0.624812  -0.000843  1.953591  0.0  -0.589519  -0.000487  2.1964  0.0  -0.615234  -0.001169  2.18577  -0.001  -0.322203  -0.571536  0.000125  2.203311  0.001
O  O79  1  0.96937683  0.20848768  0.64399579  1  -0.625268  0.000842  1.954401  0.0  -0.589532  0.00048  2.195826  0.0  -0.615391  0.001164  2.185476  0.001  -0.322051  -0.571443  -0.000133  2.202521  -0.001
O  O80  1  0.17734700  0.70930784  0.14425474  1  -0.624839  -0.000847  1.953506  0.0  -0.589522  -0.000487  2.196267  0.0  -0.615238  -0.001169  2.185637  -0.001  -0.322234  -0.571548  0.000125  2.2032  0.001
O  O81  1  0.03063057  0.79152810  0.35600731  1  -0.625129  0.000843  1.954508  0.0  -0.589479  0.000481  2.195973  0.0  -0.615339  0.001165  2.185634  0.001  -0.322  -0.57139  -0.000132  2.202674  -0.001
