# generated using pymatgen
data_PrCoH18C36(NO2)6
_symmetry_space_group_name_H-M   'P 1'
_cell_length_a   18.27448569
_cell_length_b   18.27449321
_cell_length_c   21.53411145
_cell_angle_alpha   110.26272046
_cell_angle_beta   110.26270524
_cell_angle_gamma   100.59658451
_symmetry_Int_Tables_number   1
_chemical_formula_structural   PrCoH18C36(NO2)6
_chemical_formula_sum   'Pr4 Co4 H72 C144 N24 O48'
_cell_volume   5939.77052391
_cell_formula_units_Z   4
loop_
 _symmetry_equiv_pos_site_id
 _symmetry_equiv_pos_as_xyz
  1  'x, y, z'
loop_
 _atom_site_type_symbol
 _atom_site_label
 _atom_site_symmetry_multiplicity
 _atom_site_fract_x
 _atom_site_fract_y
 _atom_site_fract_z
 _atom_site_occupancy
 _atom_site_pbe_bader_charge
 _atom_site_pbe_bader_spin_density
 _atom_site_pbe_cm5_charge
 _atom_site_pbe_ddec_charge
 _atom_site_pbe_ddec_spin_density
 _atom_site_pbe_ddec_sum_bond_order
 _atom_site_pbe_magmom
Pr  Pr0  1  0.35267888  0.10269161  0.25000912  1  2.258118  0  1.455365  2.078077  0  2.094497  0
Pr  Pr1  1  0.89730899  0.64732059  0.24998974  1  2.258136  0  1.455373  2.078046  0  2.094539  0
Pr  Pr2  1  0.64732115  0.89730817  0.74999004  1  2.25811  0  1.455383  2.078072  0  2.094546  0
Pr  Pr3  1  0.10269122  0.35267878  0.75000959  1  2.25814  0  1.455386  2.078103  0  2.094463  0
Co  Co4  1  0.85839480  0.14160583  0.25000076  1  1.122937  0  0.869172  0.500171  0  3.539519  0
Co  Co5  1  0.39160189  0.60839789  0.25000010  1  1.121062  0  0.869231  0.497563  0  3.546194  0
Co  Co6  1  0.14160558  0.85839453  0.74999999  1  1.122862  0  0.869163  0.500143  0  3.539576  0
Co  Co7  1  0.60839803  0.39160200  0.75000019  1  1.121082  0  0.869211  0.49749  0  3.546254  0
H  H8  1  0.68344126  0.09230325  0.12893236  1  0.131588  0  0.125683  0.096548  0  1.002813  0
H  H9  1  0.44548564  0.53660850  0.12892040  1  0.092826  0  0.125871  0.09728  0  1.002483  0
H  H10  1  0.46339284  0.55451325  0.37107935  1  0.09283  0  0.125866  0.097228  0  1.002553  0
H  H11  1  0.90769656  0.31655974  0.37106832  1  0.131581  0  0.125704  0.096581  0  1.002858  0
H  H12  1  0.31655937  0.90769579  0.87106802  1  0.131563  0  0.1257  0.0966  0  1.002831  0
H  H13  1  0.55451304  0.46339348  0.87107928  1  0.092834  0  0.125861  0.097221  0  1.00255  0
H  H14  1  0.53660808  0.44548526  0.62892008  1  0.092814  0  0.125857  0.09727  0  1.002488  0
H  H15  1  0.09230246  0.68344142  0.62893170  1  0.131568  0  0.125679  0.096518  0  1.002871  0
H  H16  1  0.54728692  0.09422615  0.13276710  1  0.148109  0  0.126393  0.143193  0  0.968096  0
H  H17  1  0.58549227  0.53856480  0.13276470  1  0.147926  0  0.126448  0.143376  0  0.968138  0
H  H18  1  0.46143598  0.41450671  0.36723431  1  0.148284  0  0.126427  0.143378  0  0.968125  0
H  H19  1  0.90577263  0.45271341  0.36723250  1  0.148091  0  0.126383  0.143179  0  0.968108  0
H  H20  1  0.45271362  0.90577239  0.86723257  1  0.148092  0  0.126434  0.14324  0  0.968078  0
H  H21  1  0.41450662  0.46143757  0.86723455  1  0.148267  0  0.126438  0.143368  0  0.968121  0
H  H22  1  0.53856477  0.58549221  0.63276495  1  0.147932  0  0.126458  0.143388  0  0.968133  0
H  H23  1  0.09422602  0.54728638  0.63276652  1  0.148086  0  0.126381  0.143169  0  0.96814  0
H  H24  1  0.78230739  0.19566533  0.45697915  1  0.134644  0  0.122502  0.139846  0  0.992718  0
H  H25  1  0.67462660  0.76126087  0.45696264  1  0.134508  0  0.122647  0.13957  0  0.992811  0
H  H26  1  0.23873764  0.32537479  0.04303735  1  0.134549  0  0.122668  0.139611  0  0.99279  0
H  H27  1  0.80433466  0.21769074  0.04302120  1  0.134648  0  0.122503  0.139867  0  0.992739  0
H  H28  1  0.21769097  0.80433498  0.54302082  1  0.134685  0  0.1225  0.139867  0  0.992711  0
H  H29  1  0.32537453  0.23873942  0.54303762  1  0.134541  0  0.122667  0.139603  0  0.99278  0
H  H30  1  0.76126214  0.67462631  0.95696218  1  0.134516  0  0.122642  0.139554  0  0.992822  0
H  H31  1  0.19566551  0.78230784  0.95697872  1  0.134625  0  0.1225  0.139846  0  0.992726  0
H  H32  1  0.66688787  0.17023498  0.36521813  1  0.155087  0  0.127369  0.148141  0  0.977817  0
H  H33  1  0.69829586  0.69498778  0.36521690  1  0.166613  0  0.127216  0.147986  0  0.978665  0
H  H34  1  0.30501094  0.30170450  0.13478258  1  0.166595  0  0.127223  0.148004  0  0.978655  0
H  H35  1  0.82976599  0.33311213  0.13478241  1  0.155109  0  0.127378  0.148158  0  0.977796  0
H  H36  1  0.33311217  0.82976620  0.63478227  1  0.155111  0  0.12738  0.148156  0  0.977791  0
H  H37  1  0.30170431  0.30501079  0.63478302  1  0.166602  0  0.127229  0.148006  0  0.978657  0
H  H38  1  0.69498779  0.69829579  0.86521714  1  0.166606  0  0.127234  0.148027  0  0.978636  0
H  H39  1  0.17023431  0.66688774  0.86521763  1  0.155116  0  0.127383  0.148155  0  0.977794  0
H  H40  1  0.04116940  0.23578567  0.52478646  1  0.178665  0  0.136356  0.155813  0  0.961081  0
H  H41  1  0.48362912  0.78903967  0.52478653  1  0.176265  0  0.136302  0.15643  0  0.961058  0
H  H42  1  0.21096116  0.51637329  0.97521480  1  0.176243  0  0.136291  0.156428  0  0.961057  0
H  H43  1  0.76421394  0.95882937  0.97521499  1  0.178675  0  0.13636  0.155786  0  0.961091  0
H  H44  1  0.95882985  0.76421478  0.47521503  1  0.178676  0  0.136355  0.155788  0  0.961106  0
H  H45  1  0.51637247  0.21096109  0.47521420  1  0.176239  0  0.1363  0.156431  0  0.961036  0
H  H46  1  0.78904018  0.48362879  0.02478629  1  0.176292  0  0.136278  0.156394  0  0.961079  0
H  H47  1  0.23578557  0.04116977  0.02478613  1  0.178684  0  0.136369  0.155834  0  0.961051  0
H  H48  1  0.01559737  0.19464678  0.39248915  1  0.115778  0  0.12911  0.101983  0  0.993451  0
H  H49  1  0.37681950  0.69781050  0.39249079  1  0.125945  0  0.129159  0.102217  0  0.9935  0
H  H50  1  0.30219079  0.62318246  0.10751124  1  0.125981  0  0.129144  0.102153  0  0.993561  0
H  H51  1  0.80535413  0.98440218  0.10751267  1  0.115718  0  0.129153  0.102007  0  0.993521  0
H  H52  1  0.98440234  0.80535414  0.60751281  1  0.115717  0  0.129181  0.102061  0  0.993463  0
H  H53  1  0.62318151  0.30218991  0.60751060  1  0.125921  0  0.129146  0.10217  0  0.99353  0
H  H54  1  0.69781034  0.37681924  0.89249027  1  0.125938  0  0.129163  0.102203  0  0.993504  0
H  H55  1  0.19464659  0.01559735  0.89248843  1  0.115769  0  0.129113  0.102024  0  0.993502  0
H  H56  1  0.72883432  0.99205958  0.22597453  1  0.107219  0  0.124512  0.09492  0  1.007985  0
H  H57  1  0.49716580  0.73389645  0.22598172  1  0.108864  0  0.124455  0.094785  0  1.008302  0
H  H58  1  0.26610396  0.50283367  0.27401823  1  0.108856  0  0.124467  0.09481  0  1.008284  0
H  H59  1  0.00794131  0.27116608  0.27402667  1  0.107223  0  0.124498  0.09488  0  1.008004  0
H  H60  1  0.27116618  0.00794207  0.77402634  1  0.107273  0  0.124508  0.094899  0  1.007986  0
H  H61  1  0.50283365  0.26610298  0.77401811  1  0.108856  0  0.124433  0.094771  0  1.008311  0
H  H62  1  0.73389705  0.49716533  0.72598190  1  0.108876  0  0.124453  0.094786  0  1.008297  0
H  H63  1  0.99205887  0.72883390  0.72597450  1  0.107219  0  0.124503  0.094909  0  1.008017  0
H  H64  1  0.73102805  0.85249889  0.22065427  1  0.132327  0  0.121657  0.135439  0  0.97578  0
H  H65  1  0.48964290  0.86816690  0.22072796  1  0.11647  0  0.121476  0.135624  0  0.976098  0
H  H66  1  0.13183256  0.51035585  0.27927201  1  0.116433  0  0.121464  0.13562  0  0.976096  0
H  H67  1  0.14750121  0.26897141  0.27934595  1  0.132344  0  0.121639  0.135419  0  0.9758  0
H  H68  1  0.26897132  0.14750145  0.77934609  1  0.132346  0  0.121665  0.135476  0  0.975773  0
H  H69  1  0.51035592  0.13183248  0.77927122  1  0.116453  0  0.121491  0.135657  0  0.976059  0
H  H70  1  0.86816659  0.48964270  0.72072752  1  0.116467  0  0.121472  0.135618  0  0.976107  0
H  H71  1  0.85249871  0.73102848  0.72065434  1  0.132332  0  0.121658  0.13544  0  0.975772  0
H  H72  1  0.98248539  0.92285413  0.25181707  1  0.144209  0  0.138109  0.161725  0  0.955381  0
H  H73  1  0.26932348  0.82893155  0.25181321  1  0.146205  0  0.138076  0.161494  0  0.954479  0
H  H74  1  0.17106876  0.73067638  0.24818757  1  0.146452  0  0.138056  0.16142  0  0.954529  0
H  H75  1  0.07714521  0.01751358  0.24818184  1  0.144183  0  0.138114  0.161703  0  0.955424  0
H  H76  1  0.01751343  0.07714525  0.74818211  1  0.144181  0  0.138141  0.16174  0  0.955394  0
H  H77  1  0.73067597  0.17106788  0.74818661  1  0.146209  0  0.13806  0.161472  0  0.954497  0
H  H78  1  0.82893124  0.26932261  0.75181218  1  0.146421  0  0.138055  0.161487  0  0.954494  0
H  H79  1  0.92285461  0.98248582  0.75181773  1  0.144203  0  0.138116  0.161723  0  0.95541  0
C  C80  1  0.67813906  0.11011829  0.18046768  1  0.37574  0  0.049475  0.07274  0  3.935062  0
C  C81  1  0.50231971  0.57037637  0.18043935  1  0.407909  0  0.049508  0.071331  0  3.936496  0
C  C82  1  0.42962478  0.49768042  0.31956079  1  0.407901  0  0.049538  0.071474  0  3.936455  0
C  C83  1  0.88988149  0.32186217  0.31953286  1  0.375801  0  0.04946  0.072723  0  3.935134  0
C  C84  1  0.32186157  0.88988075  0.81953271  1  0.375792  0  0.049442  0.072664  0  3.935103  0
C  C85  1  0.49768036  0.42962560  0.81956047  1  0.407836  0  0.049541  0.071495  0  3.936488  0
C  C86  1  0.57037606  0.50231900  0.68043918  1  0.407905  0  0.049501  0.071289  0  3.936495  0
C  C87  1  0.11011762  0.67813808  0.68046662  1  0.375697  0  0.049506  0.072875  0  3.935123  0
C  C88  1  0.60318133  0.11085778  0.18255883  1  -0.004699  0  -0.058643  -0.1198  0  3.895457  0
C  C89  1  0.57936622  0.57173904  0.18253018  1  0.009223  0  -0.059377  -0.120566  0  3.896419  0
C  C90  1  0.42826203  0.42063368  0.31746908  1  0.008879  0  -0.059394  -0.120645  0  3.89631  0
C  C91  1  0.88914171  0.39681921  0.31744124  1  -0.004707  0  -0.058655  -0.119812  0  3.895476  0
C  C92  1  0.39681968  0.88914122  0.81744131  1  -0.004792  0  -0.058681  -0.119831  0  3.895438  0
C  C93  1  0.42063368  0.42826335  0.81746947  1  0.008982  0  -0.059397  -0.120623  0  3.89628  0
C  C94  1  0.57173817  0.57936568  0.68253025  1  0.00928  0  -0.059377  -0.12053  0  3.896375  0
C  C95  1  0.11085693  0.60318057  0.68255777  1  -0.004686  0  -0.058638  -0.119779  0  3.895526  0
C  C96  1  0.59908917  0.13350095  0.24999882  1  0.066381  0  0.029621  0.075889  0  3.867423  0
C  C97  1  0.65088443  0.61654227  0.24999257  1  0.073606  0  0.029517  0.076228  0  3.868064  0
C  C98  1  0.38345787  0.34911544  0.25000626  1  0.073521  0  0.029542  0.076222  0  3.868001  0
C  C99  1  0.86649899  0.40091008  0.25000073  1  0.066389  0  0.02966  0.075958  0  3.867411  0
C  C100  1  0.40091011  0.86649889  0.75000083  1  0.066464  0  0.029657  0.075919  0  3.867451  0
C  C101  1  0.34911572  0.38345880  0.75000671  1  0.073545  0  0.029563  0.076233  0  3.867906  0
C  C102  1  0.61654187  0.65088346  0.74999261  1  0.073465  0  0.029588  0.076232  0  3.868019  0
C  C103  1  0.13350020  0.59908927  0.74999821  1  0.066568  0  0.029604  0.075811  0  3.867468  0
C  C104  1  0.67079428  0.15391463  0.31307042  1  -0.025561  0  -0.057206  -0.149277  0  3.861485  0
C  C105  1  0.64224646  0.65920700  0.31304813  1  -0.042108  0  -0.05613  -0.148569  0  3.863353  0
C  C106  1  0.34079234  0.35775372  0.18695103  1  -0.042149  0  -0.056193  -0.148629  0  3.863292  0
C  C107  1  0.84608625  0.32920517  0.18692946  1  -0.025594  0  -0.057216  -0.149291  0  3.861538  0
C  C108  1  0.32920575  0.84608656  0.68692999  1  -0.025793  0  -0.057218  -0.149273  0  3.861533  0
C  C109  1  0.35775336  0.34079239  0.68695145  1  -0.042142  0  -0.056169  -0.14859  0  3.863339  0
C  C110  1  0.65920694  0.64224612  0.81304862  1  -0.042119  0  -0.056196  -0.148654  0  3.863301  0
C  C111  1  0.15391395  0.67079420  0.81306987  1  -0.025778  0  -0.057188  -0.149194  0  3.861608  0
C  C112  1  0.74460472  0.15322145  0.30804911  1  0.421192  0  0.117918  0.150259  0  4.009652  0
C  C113  1  0.56340784  0.65487156  0.30802871  1  0.413247  0  0.117808  0.150426  0  4.008143  0
C  C114  1  0.34512814  0.43659256  0.19197114  1  0.412885  0  0.117775  0.150361  0  4.008162  0
C  C115  1  0.84677936  0.25539549  0.19195142  1  0.421117  0  0.117857  0.150128  0  4.009792  0
C  C116  1  0.25539549  0.84677932  0.69195147  1  0.42133  0  0.117869  0.150153  0  4.009744  0
C  C117  1  0.43659246  0.34512831  0.69197133  1  0.412864  0  0.117795  0.150387  0  4.008183  0
C  C118  1  0.65487151  0.56340725  0.80802826  1  0.412864  0  0.117802  0.150414  0  4.008167  0
C  C119  1  0.15322093  0.74460437  0.80804862  1  0.421331  0  0.117835  0.150124  0  4.009816  0
C  C120  1  0.82352908  0.17528115  0.37066723  1  0.380052  0  0.113081  0.142643  0  4.015394  0
C  C121  1  0.54707556  0.69536346  0.37063918  1  0.413371  0  0.113018  0.142614  0  4.015156  0
C  C122  1  0.30463597  0.45292556  0.12936146  1  0.413871  0  0.112986  0.142618  0  4.015203  0
C  C123  1  0.82471968  0.17647067  0.12933364  1  0.380071  0  0.113081  0.142707  0  4.01542  0
C  C124  1  0.17647075  0.82471966  0.62933359  1  0.380068  0  0.113064  0.142675  0  4.015477  0
C  C125  1  0.45292528  0.30463596  0.62936079  1  0.41382  0  0.112975  0.142565  0  4.015236  0
C  C126  1  0.69536377  0.54707475  0.87063866  1  0.413869  0  0.112983  0.142546  0  4.015191  0
C  C127  1  0.17528125  0.82352925  0.87066704  1  0.380051  0  0.113092  0.142706  0  4.015374  0
C  C128  1  0.83382110  0.19581555  0.44241092  1  0.040015  0  -0.059486  -0.153711  0  3.889715  0
C  C129  1  0.60854104  0.74651389  0.44238289  1  0.016233  0  -0.059064  -0.15348  0  3.888104  0
C  C130  1  0.25348499  0.39146029  0.05761686  1  0.016226  0  -0.059095  -0.153541  0  3.888056  0
C  C131  1  0.80418481  0.16617849  0.05758926  1  0.040082  0  -0.059486  -0.153765  0  3.889717  0
C  C132  1  0.16617818  0.80418569  0.55758997  1  0.040028  0  -0.059467  -0.153757  0  3.889718  0
C  C133  1  0.39146018  0.25348550  0.55761683  1  0.016221  0  -0.059086  -0.153498  0  3.888118  0
C  C134  1  0.74651478  0.60854080  0.94238267  1  0.016212  0  -0.059064  -0.153423  0  3.888074  0
C  C135  1  0.19581501  0.83382091  0.94241032  1  0.040044  0  -0.059483  -0.153721  0  3.889732  0
C  C136  1  0.91235531  0.21787048  0.49888448  1  0.0055  0  0.027401  0.057897  0  3.864232  0
C  C137  1  0.58649357  0.78093340  0.49885345  1  0.037543  0  0.026782  0.060224  0  3.859365  0
C  C138  1  0.21906674  0.41350854  0.00114707  1  0.037647  0  0.026838  0.060268  0  3.859357  0
C  C139  1  0.78212923  0.08764290  0.00111605  1  0.005843  0  0.027388  0.057904  0  3.864217  0
C  C140  1  0.08764247  0.78212949  0.50111616  1  0.005868  0  0.02739  0.057933  0  3.864236  0
C  C141  1  0.41350840  0.21906732  0.50114702  1  0.0376  0  0.026782  0.060216  0  3.8594  0
C  C142  1  0.78093425  0.58649296  0.99885243  1  0.037611  0  0.026842  0.060257  0  3.85939  0
C  C143  1  0.21787056  0.91235571  0.99888411  1  0.005507  0  0.027392  0.057889  0  3.864208  0
C  C144  1  0.97909893  0.21785448  0.48108640  1  0.062771  0  -0.051405  -0.111329  0  3.873129  0
C  C145  1  0.50195903  0.76320750  0.48107686  1  0.023733  0  -0.051328  -0.113281  0  3.872978  0
C  C146  1  0.23679283  0.49804344  0.01892439  1  0.048083  0  -0.0514  -0.11341  0  3.873012  0
C  C147  1  0.78214597  0.02090126  0.01891558  1  0.062726  0  -0.051413  -0.111313  0  3.873158  0
C  C148  1  0.02090096  0.78214602  0.51891573  1  0.062706  0  -0.051421  -0.111351  0  3.873242  0
C  C149  1  0.49804256  0.23679326  0.51892386  1  0.023776  0  -0.051395  -0.113381  0  3.872997  0
C  C150  1  0.76320788  0.50195859  0.98107606  1  0.023739  0  -0.051364  -0.113325  0  3.87309  0
C  C151  1  0.21785428  0.97909781  0.98108505  1  0.062742  0  -0.051398  -0.11133  0  3.873137  0
C  C152  1  0.96515339  0.19563992  0.40822016  1  0.370133  0  0.051709  0.074923  0  3.916508  0
C  C153  1  0.44300543  0.71254266  0.40821351  1  0.36267  0  0.051241  0.074144  0  3.919102  0
C  C154  1  0.28745770  0.55699672  0.09178794  1  0.338244  0  0.051296  0.074304  0  3.919014  0
C  C155  1  0.80436068  0.03484651  0.09178193  1  0.370381  0  0.051672  0.074911  0  3.916576  0
C  C156  1  0.03484632  0.80436100  0.59178179  1  0.37038  0  0.051657  0.074886  0  3.916522  0
C  C157  1  0.55699596  0.28745772  0.59178763  1  0.362648  0  0.051282  0.07425  0  3.919024  0
C  C158  1  0.71254280  0.44300492  0.90821293  1  0.362645  0  0.051268  0.074199  0  3.919126  0
C  C159  1  0.19563949  0.96515347  0.90821924  1  0.370161  0  0.051694  0.074856  0  3.916583  0
C  C160  1  0.51870227  0.13483264  0.25496613  1  1.638792  0  0.183032  0.553479  0  4.296638  0
C  C161  1  0.73622280  0.62009173  0.25497575  1  1.650481  0  0.183484  0.55417  0  4.295445  0
C  C162  1  0.37990954  0.26377830  0.24502366  1  1.650551  0  0.183498  0.554214  0  4.295306  0
C  C163  1  0.86516653  0.48129705  0.24503276  1  1.63883  0  0.182995  0.55343  0  4.296646  0
C  C164  1  0.48129729  0.86516667  0.74503257  1  1.638839  0  0.183016  0.553493  0  4.296557  0
C  C165  1  0.26377697  0.37990796  0.74502252  1  1.650568  0  0.183469  0.554197  0  4.295305  0
C  C166  1  0.62009280  0.73622240  0.75497657  1  1.650568  0  0.183493  0.554225  0  4.29532  0
C  C167  1  0.13483211  0.51870134  0.75496500  1  1.638624  0  0.183015  0.553467  0  4.29674  0
C  C168  1  0.92328884  0.24293569  0.57797027  1  1.677804  0  0.212403  0.59585  0  4.250985  0
C  C169  1  0.65465689  0.83495640  0.57793303  1  1.670002  0  0.212121  0.595057  0  4.24977  0
C  C170  1  0.16504349  0.34534615  0.92206743  1  1.669355  0  0.212115  0.595181  0  4.24977  0
C  C171  1  0.75706357  0.07671185  0.92203034  1  1.6777  0  0.212363  0.595836  0  4.250971  0
C  C172  1  0.07671142  0.75706338  0.42203036  1  1.677701  0  0.212377  0.595848  0  4.250903  0
C  C173  1  0.34534485  0.16504503  0.42206598  1  1.670021  0  0.212106  0.595117  0  4.249763  0
C  C174  1  0.83495759  0.65465584  0.07793278  1  1.669619  0  0.212064  0.595011  0  4.249975  0
C  C175  1  0.24293623  0.92328676  0.07796983  1  1.678057  0  0.212347  0.595832  0  4.250947  0
C  C176  1  0.78356494  0.97460101  0.23078235  1  0.395429  0  0.04574  0.067566  0  3.952755  0
C  C177  1  0.44725876  0.75616361  0.23082308  1  0.395666  0  0.046  0.069438  0  3.952822  0
C  C178  1  0.24383654  0.55274118  0.26917782  1  0.395662  0  0.046048  0.069491  0  3.95277  0
C  C179  1  0.02539886  0.21643531  0.26921858  1  0.395625  0  0.045782  0.06769  0  3.952676  0
C  C180  1  0.21643507  0.02539938  0.76921864  1  0.395589  0  0.045769  0.067647  0  3.952605  0
C  C181  1  0.55274052  0.24383623  0.76917657  1  0.395687  0  0.046026  0.069465  0  3.95281  0
C  C182  1  0.75616363  0.44725879  0.73082334  1  0.395617  0  0.046043  0.069538  0  3.95277  0
C  C183  1  0.97460067  0.78356462  0.73078195  1  0.395418  0  0.045726  0.067535  0  3.952822  0
C  C184  1  0.78509839  0.89805972  0.22826382  1  0.00262  0  -0.063246  -0.124349  0  3.910252  0
C  C185  1  0.44321840  0.83021669  0.22836572  1  0.027902  0  -0.063226  -0.125961  0  3.911506  0
C  C186  1  0.16978253  0.55678062  0.27163423  1  0.027957  0  -0.063242  -0.126017  0  3.911582  0
C  C187  1  0.10194030  0.21490089  0.27173659  1  0.00264  0  -0.063267  -0.124439  0  3.910296  0
C  C188  1  0.21490051  0.10194015  0.77173608  1  0.002628  0  -0.06327  -0.124459  0  3.910198  0
C  C189  1  0.55678113  0.16978183  0.77163357  1  0.027838  0  -0.063207  -0.125957  0  3.911439  0
C  C190  1  0.83021709  0.44321840  0.72836576  1  0.027976  0  -0.063226  -0.12598  0  3.911507  0
C  C191  1  0.89805978  0.78509859  0.72826387  1  0.002624  0  -0.063248  -0.124348  0  3.910276  0
C  C192  1  0.85773199  0.87939851  0.23682854  1  0.049924  0  0.037255  0.084512  0  3.858764  0
C  C193  1  0.37912893  0.85743113  0.23689192  1  0.010802  0  0.037115  0.084848  0  3.858548  0
C  C194  1  0.14256969  0.62087070  0.26310868  1  0.010711  0  0.037146  0.084874  0  3.858576  0
C  C195  1  0.12060120  0.14226749  0.26317085  1  0.049908  0  0.037268  0.084558  0  3.858813  0
C  C196  1  0.14226729  0.12060133  0.76317111  1  0.049934  0  0.037264  0.084528  0  3.858749  0
C  C197  1  0.62087026  0.14256821  0.76310702  1  0.010985  0  0.037067  0.084727  0  3.858547  0
C  C198  1  0.85743030  0.37912828  0.73689107  1  0.010729  0  0.03705  0.084785  0  3.858573  0
C  C199  1  0.87939846  0.85773232  0.73682855  1  0.049941  0  0.037267  0.084532  0  3.858781  0
C  C200  1  0.92593329  0.93761435  0.24497414  1  0.054276  0  -0.043408  -0.128156  0  3.821104  0
C  C201  1  0.31905380  0.80735574  0.24500250  1  0.081892  0  -0.043346  -0.127478  0  3.817348  0
C  C202  1  0.19264467  0.68094546  0.25499865  1  0.081674  0  -0.043339  -0.127421  0  3.817365  0
C  C203  1  0.06238534  0.07406583  0.25502551  1  0.054221  0  -0.043389  -0.128116  0  3.82114  0
C  C204  1  0.07406532  0.06238464  0.75502546  1  0.054215  0  -0.043409  -0.128126  0  3.821103  0
C  C205  1  0.68094611  0.19264415  0.75499778  1  0.081768  0  -0.043335  -0.127452  0  3.817344  0
C  C206  1  0.80735512  0.31905314  0.74500152  1  0.081673  0  -0.043313  -0.127501  0  3.81739  0
C  C207  1  0.93761495  0.92593403  0.74497453  1  0.054213  0  -0.043434  -0.128208  0  3.821189  0
C  C208  1  0.92056435  0.01294481  0.24574570  1  0.435757  0  0.120531  0.146639  0  3.99058  0
C  C209  1  0.32519285  0.73278082  0.24575347  1  0.364799  0  0.120933  0.147626  0  3.990189  0
C  C210  1  0.26721929  0.67480700  0.25424750  1  0.435577  0  0.120967  0.147683  0  3.990198  0
C  C211  1  0.98705505  0.07943622  0.25425535  1  0.386021  0  0.120554  0.146705  0  3.990525  0
C  C212  1  0.07943620  0.98705513  0.75425522  1  0.43583  0  0.120527  0.14663  0  3.990581  0
C  C213  1  0.67480668  0.26721910  0.75424706  1  0.435579  0  0.120973  0.147678  0  3.990207  0
C  C214  1  0.73278089  0.32519298  0.74575367  1  0.36479  0  0.121091  0.147811  0  3.990283  0
C  C215  1  0.01294533  0.92056413  0.74574540  1  0.385997  0  0.120552  0.14671  0  3.990613  0
C  C216  1  0.86360602  0.79931134  0.24030416  1  1.655816  0  0.190051  0.547008  0  4.325133  0
C  C217  1  0.37672408  0.94098335  0.24033711  1  1.663612  0  0.190574  0.54658  0  4.325673  0
C  C218  1  0.05901750  0.62327686  0.25966363  1  1.663595  0  0.190596  0.546603  0  4.325563  0
C  C219  1  0.20068803  0.13639319  0.25969456  1  1.65587  0  0.190055  0.547039  0  4.325048  0
C  C220  1  0.13639262  0.20068845  0.75969485  1  1.655889  0  0.190108  0.547137  0  4.325005  0
C  C221  1  0.62327675  0.05901607  0.75966286  1  1.663595  0  0.190691  0.546844  0  4.325466  0
C  C222  1  0.94098299  0.37672338  0.74033599  1  1.663262  0  0.190636  0.546666  0  4.32552  0
C  C223  1  0.79931162  0.86360662  0.74030484  1  1.655869  0  0.190088  0.547134  0  4.325068  0
N  N224  1  0.74783027  0.13132775  0.24201100  1  -1.180247  0  -0.331012  -0.21494  0  3.652558  0
N  N225  1  0.49415767  0.61069794  0.24198274  1  -1.169751  0  -0.331412  -0.214367  0  3.650398  0
N  N226  1  0.38930275  0.50584276  0.25801750  1  -1.169757  0  -0.331402  -0.21436  0  3.650399  0
N  N227  1  0.86867271  0.25217012  0.25798967  1  -1.180207  0  -0.33096  -0.214876  0  3.652516  0
N  N228  1  0.25217011  0.86867260  0.75798975  1  -1.180175  0  -0.330967  -0.21487  0  3.652534  0
N  N229  1  0.50584236  0.38930324  0.75801767  1  -1.169818  0  -0.331388  -0.214344  0  3.65044  0
N  N230  1  0.61069754  0.49415710  0.74198254  1  -1.169777  0  -0.331418  -0.214315  0  3.650453  0
N  N231  1  0.13132758  0.74782974  0.74201037  1  -1.180138  0  -0.330968  -0.214981  0  3.652576  0
N  N232  1  0.88901500  0.17527515  0.35391926  1  -1.174836  0  -0.328394  -0.211509  0  3.641714  0
N  N233  1  0.46484362  0.67861992  0.35390841  1  -1.190801  0  -0.327715  -0.210169  0  3.642684  0
N  N234  1  0.32138044  0.53515767  0.14609255  1  -1.190938  0  -0.327675  -0.210154  0  3.642676  0
N  N235  1  0.82472595  0.11098512  0.14608229  1  -1.175266  0  -0.328401  -0.211563  0  3.641761  0
N  N236  1  0.11098530  0.82472612  0.64608202  1  -1.175144  0  -0.328402  -0.211556  0  3.641736  0
N  N237  1  0.53515693  0.32138002  0.64609251  1  -1.190861  0  -0.327697  -0.210131  0  3.642712  0
N  N238  1  0.67861977  0.46484310  0.85390803  1  -1.190934  0  -0.32769  -0.210106  0  3.642691  0
N  N239  1  0.17527460  0.88901482  0.85391863  1  -1.174919  0  -0.328417  -0.21154  0  3.641718  0
N  N240  1  0.84981986  0.03105461  0.23946564  1  -1.177018  0  -0.332372  -0.210436  0  3.659854  0
N  N241  1  0.38965354  0.70838827  0.23947069  1  -1.175462  0  -0.332771  -0.212155  0  3.662407  0
N  N242  1  0.29161125  0.61034613  0.26052973  1  -1.17545  0  -0.332821  -0.212215  0  3.66239  0
N  N243  1  0.96894618  0.15018070  0.26053586  1  -1.177261  0  -0.332393  -0.210503  0  3.65982  0
N  N244  1  0.15018014  0.96894578  0.76053535  1  -1.177259  0  -0.332369  -0.210432  0  3.659812  0
N  N245  1  0.61034654  0.29161121  0.76052977  1  -1.175463  0  -0.332825  -0.212213  0  3.662533  0
N  N246  1  0.70838863  0.38965297  0.73947114  1  -1.175433  0  -0.332883  -0.212325  0  3.662652  0
N  N247  1  0.03105484  0.84981971  0.73946553  1  -1.177025  0  -0.332368  -0.21044  0  3.659824  0
O  O248  1  0.45875476  0.12467166  0.19715770  1  -1.164064  0  -0.362588  -0.605162  0  2.163793  0
O  O249  1  0.73831795  0.57239586  0.19716330  1  -1.158141  0  -0.362959  -0.605681  0  2.162104  0
O  O250  1  0.42760324  0.26168211  0.30283616  1  -1.158103  0  -0.36292  -0.605651  0  2.162101  0
O  O251  1  0.87532711  0.54124494  0.30284119  1  -1.164073  0  -0.36261  -0.605177  0  2.163724  0
O  O252  1  0.54124552  0.87532679  0.80284109  1  -1.164081  0  -0.36262  -0.605211  0  2.163699  0
O  O253  1  0.26168153  0.42760436  0.80283593  1  -1.158089  0  -0.362921  -0.605677  0  2.162043  0
O  O254  1  0.57239604  0.73831773  0.69716349  1  -1.158098  0  -0.362972  -0.605708  0  2.161991  0
O  O255  1  0.12467154  0.45875485  0.69715782  1  -1.164093  0  -0.362584  -0.605157  0  2.163856  0
O  O256  1  0.51735055  0.14421930  0.31563582  1  -1.151969  0  -0.356737  -0.605004  0  2.127052  0
O  O257  1  0.79827675  0.67134109  0.31564468  1  -1.16719  0  -0.356848  -0.605521  0  2.126519  0
O  O258  1  0.32865958  0.20172336  0.18435363  1  -1.167201  0  -0.356876  -0.605558  0  2.1264  0
O  O259  1  0.85578093  0.48264826  0.18436380  1  -1.151986  0  -0.35671  -0.604979  0  2.127129  0
O  O260  1  0.48264873  0.85578054  0.68436383  1  -1.151994  0  -0.356733  -0.605003  0  2.127101  0
O  O261  1  0.20172332  0.32865948  0.68435389  1  -1.167239  0  -0.35687  -0.605549  0  2.126456  0
O  O262  1  0.67134230  0.79827547  0.81564489  1  -1.16719  0  -0.356874  -0.605564  0  2.126536  0
O  O263  1  0.14421843  0.51735068  0.81563531  1  -1.15194  0  -0.356727  -0.604994  0  2.127089  0
O  O264  1  0.85886469  0.23695584  0.58683639  1  -1.145224  0  -0.332752  -0.548301  0  2.028521  0
O  O265  1  0.72795259  0.84977306  0.58683255  1  -1.144071  0  -0.332361  -0.548293  0  2.028671  0
O  O266  1  0.15022550  0.27204983  0.91316819  1  -1.143596  0  -0.332407  -0.548399  0  2.028632  0
O  O267  1  0.76303964  0.14113387  0.91316503  1  -1.145428  0  -0.332644  -0.548205  0  2.028663  0
O  O268  1  0.14113382  0.76304078  0.41316498  1  -1.145406  0  -0.332675  -0.548255  0  2.028563  0
O  O269  1  0.27204872  0.15023010  0.41316665  1  -1.144026  0  -0.332368  -0.548336  0  2.028611  0
O  O270  1  0.84977613  0.72795172  0.08683194  1  -1.143672  0  -0.332352  -0.5483  0  2.028722  0
O  O271  1  0.23695978  0.85886477  0.08683538  1  -1.145507  0  -0.332693  -0.54827  0  2.02864  0
O  O272  1  0.99901800  0.26790539  0.62483160  1  -1.194312  0  -0.409533  -0.656219  0  2.291729  0
O  O273  1  0.62579407  0.85692570  0.62478884  1  -1.187401  0  -0.40919  -0.656027  0  2.291616  0
O  O274  1  0.14307525  0.37420815  0.87521143  1  -1.187271  0  -0.409126  -0.656004  0  2.291635  0
O  O275  1  0.73209455  0.00098060  0.87516777  1  -1.194315  0  -0.409547  -0.656223  0  2.291585  0
O  O276  1  0.00098006  0.73209405  0.37516807  1  -1.194327  0  -0.409543  -0.656193  0  2.291591  0
O  O277  1  0.37420878  0.14307625  0.37521126  1  -1.187475  0  -0.409125  -0.656005  0  2.291683  0
O  O278  1  0.85692537  0.62579338  0.12478831  1  -1.187449  0  -0.409136  -0.655961  0  2.291695  0
O  O279  1  0.26790461  0.99901796  0.12483176  1  -1.194268  0  -0.409511  -0.65619  0  2.291619  0
O  O280  1  0.79651402  0.74124858  0.21559994  1  -1.17122  0  -0.340605  -0.596215  0  2.169591  0
O  O281  1  0.41915504  0.97432500  0.21564860  1  -1.16759  0  -0.340844  -0.596453  0  2.167929  0
O  O282  1  0.02567461  0.58084610  0.28435063  1  -1.167547  0  -0.340808  -0.596416  0  2.167939  0
O  O283  1  0.25875089  0.20348493  0.28439777  1  -1.171218  0  -0.3406  -0.596217  0  2.169548  0
O  O284  1  0.20348382  0.25875156  0.78439827  1  -1.171243  0  -0.340633  -0.596268  0  2.16963  0
O  O285  1  0.58084470  0.02567390  0.78435027  1  -1.16755  0  -0.340853  -0.596528  0  2.16787  0
O  O286  1  0.97432478  0.41915362  0.71564789  1  -1.167258  0  -0.340843  -0.596473  0  2.167915  0
O  O287  1  0.74124834  0.79651521  0.71560058  1  -1.171251  0  -0.340615  -0.596258  0  2.169597  0
O  O288  1  0.93648454  0.79837026  0.27007017  1  -1.157095  0  -0.365093  -0.601778  0  2.161579  0
O  O289  1  0.33357243  0.97169305  0.27004654  1  -1.159876  0  -0.365189  -0.601233  0  2.16266  0
O  O290  1  0.02830905  0.66642913  0.22995398  1  -1.159896  0  -0.365297  -0.601327  0  2.162583  0
O  O291  1  0.20162940  0.06351394  0.22992890  1  -1.157141  0  -0.365113  -0.601823  0  2.161497  0
O  O292  1  0.06351353  0.20162918  0.72992951  1  -1.157165  0  -0.365144  -0.60187  0  2.161451  0
O  O293  1  0.66642832  0.02830728  0.72995396  1  -1.159913  0  -0.365272  -0.601339  0  2.162671  0
O  O294  1  0.97169258  0.33357242  0.77004616  1  -1.15987  0  -0.365262  -0.601284  0  2.162637  0
O  O295  1  0.79837042  0.93648546  0.77007068  1  -1.15713  0  -0.365114  -0.601843  0  2.16154  0
