# generated using pymatgen
data_ZnH2(CO2)2
_symmetry_space_group_name_H-M   'P 1'
_cell_length_a   7.70108510
_cell_length_b   12.60880776
_cell_length_c   13.66969843
_cell_angle_alpha   90.00003156
_cell_angle_beta   90.00000090
_cell_angle_gamma   101.36807841
_symmetry_Int_Tables_number   1
_chemical_formula_structural   ZnH2(CO2)2
_chemical_formula_sum   'Zn12 H24 C24 O48'
_cell_volume   1301.30719108
_cell_formula_units_Z   12
loop_
 _symmetry_equiv_pos_site_id
 _symmetry_equiv_pos_as_xyz
  1  'x, y, z'
loop_
 _atom_site_type_symbol
 _atom_site_label
 _atom_site_symmetry_multiplicity
 _atom_site_fract_x
 _atom_site_fract_y
 _atom_site_fract_z
 _atom_site_occupancy
 _atom_site_hle17_bader_spin_density
 _atom_site_hle17_ddec_charge
 _atom_site_hle17_ddec_spin_density
 _atom_site_hle17_ddec_sum_bond_order
 _atom_site_hle17_magmom
 _atom_site_hse06_10hf_bader_spin_density
 _atom_site_hse06_10hf_ddec_charge
 _atom_site_hse06_10hf_ddec_spin_density
 _atom_site_hse06_10hf_ddec_sum_bond_order
 _atom_site_hse06_10hf_magmom
 _atom_site_hse06_bader_spin_density
 _atom_site_hse06_ddec_charge
 _atom_site_hse06_ddec_spin_density
 _atom_site_hse06_ddec_sum_bond_order
 _atom_site_hse06_magmom
 _atom_site_pbe_bader_spin_density
 _atom_site_pbe_cm5_charge
 _atom_site_pbe_ddec_charge
 _atom_site_pbe_ddec_spin_density
 _atom_site_pbe_ddec_sum_bond_order
 _atom_site_pbe_magmom
Zn  Zn0  1  0.49958157  0.10325024  0.51166823  1  0  1.143534  0  1.768697  0  0  0.979345  0  2.221796  0  0  1.030232  0  2.161746  0  0  0.673122  0.943213  0  2.263191  0
Zn  Zn1  1  0.50041831  0.89674816  0.01166837  1  0  1.143501  0  1.768711  0  0  0.979322  0  2.221806  0  0  1.03021  0  2.161757  0  0  0.673107  0.943189  0  2.2632  0
Zn  Zn2  1  0.80196006  0.99846405  0.61690706  1  0  1.165319  0  1.766508  0  0  0.996844  0  2.221676  0  0  1.048402  0  2.160408  0  0  0.686243  0.960128  0  2.263962  0
Zn  Zn3  1  0.19803933  0.00153684  0.11690748  1  0  1.165279  0  1.766532  0  0  0.996807  0  2.221708  0  0  1.048359  0  2.160454  0  0  0.686218  0.960087  0  2.263993  0
Zn  Zn4  1  0.09374995  0.92459798  0.49566150  1  0  1.168869  0  1.743099  0  0  0.999741  0  2.200263  0  0  1.052017  0  2.137841  0  0  0.683989  0.96248  0  2.243382  0
Zn  Zn5  1  0.90624874  0.07540072  0.99566134  1  0  1.168851  0  1.743104  0  0  0.999717  0  2.200266  0  0  1.051995  0  2.137843  0  0  0.683974  0.962456  0  2.243385  0
Zn  Zn6  1  0.26947904  0.42577211  0.26229046  1  0  1.148461  0  1.75499  0  0  0.984133  0  2.203277  0  0  1.035229  0  2.14363  0  0  0.674193  0.947775  0  2.244398  0
Zn  Zn7  1  0.73052116  0.57422725  0.76228909  1  0  1.148423  0  1.75504  0  0  0.984108  0  2.203323  0  0  1.035207  0  2.143676  0  0  0.674182  0.947751  0  2.244443  0
Zn  Zn8  1  0.63109552  0.52332278  0.37669974  1  0  1.163201  0  1.766273  0  0  0.996433  0  2.22052  0  0  1.047623  0  2.159134  0  0  0.681994  0.960018  0  2.262923  0
Zn  Zn9  1  0.36890496  0.47667746  0.87669979  1  0  1.163179  0  1.766323  0  0  0.996409  0  2.22058  0  0  1.047601  0  2.159194  0  0  0.68199  0.959996  0  2.262985  0
Zn  Zn10  1  0.01603093  0.41505225  0.74543133  1  0  1.159353  0  1.778442  0  0  0.994117  0  2.233363  0  0  1.04486  0  2.172711  0  0  0.679241  0.958055  0  2.275221  0
Zn  Zn11  1  0.98396926  0.58494710  0.24543132  1  0  1.159332  0  1.778464  0  0  0.994093  0  2.233387  0  0  1.044835  0  2.172736  0  0  0.679246  0.958029  0  2.275245  0
H  H12  1  0.67547900  0.29228534  0.63682539  1  0  0.027291  0  0.910372  0  0  0.036509  0  0.976515  0  0  0.037061  0  0.971968  0  0  0.120166  0.035864  0  0.979892  0
H  H13  1  0.32452013  0.70771475  0.13682544  1  0  0.02729  0  0.910387  0  0  0.036508  0  0.976529  0  0  0.037059  0  0.971984  0  0  0.120168  0.035865  0  0.979904  0
H  H14  1  0.47774103  0.79547602  0.62565848  1  0  0.033112  0  0.917271  0  0  0.042568  0  0.982152  0  0  0.043129  0  0.976887  0  0  0.118717  0.041828  0  0.98619  0
H  H15  1  0.52225966  0.20452488  0.12565901  1  0  0.033131  0  0.917234  0  0  0.042552  0  0.982151  0  0  0.043114  0  0.976884  0  0  0.118706  0.041812  0  0.98619  0
H  H16  1  0.26284571  0.24857918  0.42089084  1  0  0.027826  0  0.910425  0  0  0.038694  0  0.973143  0  0  0.039407  0  0.968486  0  0  0.120081  0.037886  0  0.976695  0
H  H17  1  0.73715219  0.75142109  0.92089030  1  0  0.02783  0  0.910437  0  0  0.038697  0  0.973153  0  0  0.039411  0  0.968494  0  0  0.120085  0.037889  0  0.976705  0
H  H18  1  0.87920612  0.04507818  0.32013363  1  0  0.026647  0  0.905275  0  0  0.036953  0  0.969383  0  0  0.036736  0  0.965177  0  0  0.116184  0.036874  0  0.972556  0
H  H19  1  0.12079279  0.95492122  0.82013319  1  0  0.026643  0  0.905252  0  0  0.036948  0  0.969359  0  0  0.036732  0  0.965152  0  0  0.116183  0.036869  0  0.972534  0
H  H20  1  0.42608467  0.09153268  0.29771398  1  0  0.028668  0  0.935353  0  0  0.035956  0  1.005147  0  0  0.036624  0  1.000179  0  0  0.121556  0.035206  0  1.008861  0
H  H21  1  0.57391580  0.90846751  0.79771425  1  0  0.02868  0  0.935422  0  0  0.035991  0  1.005184  0  0  0.03666  0  1.000214  0  0  0.121552  0.035241  0  1.008899  0
H  H22  1  0.95588689  0.71106193  0.63093290  1  0  0.020384  0  0.928435  0  0  0.030321  0  0.993899  0  0  0.030796  0  0.989395  0  0  0.115897  0.029681  0  0.997311  0
H  H23  1  0.04411094  0.28893816  0.13093347  1  0  0.020401  0  0.928411  0  0  0.030308  0  0.993909  0  0  0.030785  0  0.989405  0  0  0.115902  0.029691  0  0.997297  0
H  H24  1  0.14149774  0.15690718  0.71142393  1  0  0.03357  0  0.926322  0  0  0.042341  0  0.994304  0  0  0.042306  0  0.989829  0  0  0.118961  0.042152  0  0.997619  0
H  H25  1  0.85850297  0.84309376  0.21142405  1  0  0.033593  0  0.926303  0  0  0.042364  0  0.99429  0  0  0.042327  0  0.989817  0  0  0.118966  0.042175  0  0.997603  0
H  H26  1  0.25720826  0.70522179  0.41325948  1  0  0.032768  0  0.938395  0  0  0.039988  0  1.006706  0  0  0.040292  0  1.002022  0  0  0.115525  0.039574  0  1.010134  0
H  H27  1  0.74279068  0.29477767  0.91325944  1  0  0.032776  0  0.938385  0  0  0.039995  0  1.006697  0  0  0.040299  0  1.002012  0  0  0.115527  0.03958  0  1.010126  0
H  H28  1  0.05485889  0.53899708  0.02052510  1  0  0.030129  0  0.908735  0  0  0.04066  0  0.972783  0  0  0.041511  0  0.96802  0  0  0.121633  0.039786  0  0.976363  0
H  H29  1  0.94514282  0.46100294  0.52052514  1  0  0.03013  0  0.90872  0  0  0.040661  0  0.972767  0  0  0.041513  0  0.968005  0  0  0.121625  0.039788  0  0.976347  0
H  H30  1  0.54094104  0.49614849  0.08258425  1  0  0.029153  0  0.95603  0  0  0.037042  0  1.025362  0  0  0.03691  0  1.021494  0  0  0.114942  0.036924  0  1.028241  0
H  H31  1  0.45906041  0.50385076  0.58258357  1  0  0.029134  0  0.956108  0  0  0.03704  0  1.025418  0  0  0.036907  0  1.021551  0  0  0.114955  0.036921  0  1.028294  0
H  H32  1  0.78742644  0.29797133  0.38281906  1  0  0.033497  0  0.943714  0  0  0.040537  0  1.01323  0  0  0.041146  0  1.008469  0  0  0.11468  0.039846  0  1.016777  0
H  H33  1  0.21257119  0.70202810  0.88281922  1  0  0.033468  0  0.943711  0  0  0.040498  0  1.013246  0  0  0.041104  0  1.008487  0  0  0.114651  0.039805  0  1.016794  0
H  H34  1  0.75910947  0.77103266  0.42952687  1  0  0.032406  0  0.918767  0  0  0.040969  0  0.984267  0  0  0.041681  0  0.980031  0  0  0.120747  0.040201  0  0.987428  0
H  H35  1  0.24088973  0.22896762  0.92952605  1  0  0.032381  0  0.918807  0  0  0.04098  0  0.984269  0  0  0.041693  0  0.980032  0  0  0.120761  0.040211  0  0.98743  0
C  C36  1  0.77241958  0.23844596  0.64154750  1  0  0.624424  0  3.812905  0  0  0.549394  0  4.110302  0  0  0.58405  0  4.102246  0  0  0.168571  0.525771  0  4.115285  0
C  C37  1  0.22757929  0.76155333  0.14154757  1  0  0.624412  0  3.812868  0  0  0.54939  0  4.110259  0  0  0.584045  0  4.102202  0  0  0.168556  0.525766  0  4.115242  0
C  C38  1  0.42134741  0.86011970  0.59028098  1  0  0.617697  0  3.831075  0  0  0.547866  0  4.129306  0  0  0.582678  0  4.120504  0  0  0.163967  0.524134  0  4.134664  0
C  C39  1  0.57865327  0.13988117  0.09028074  1  0  0.617659  0  3.831132  0  0  0.547865  0  4.129349  0  0  0.582677  0  4.120545  0  0  0.163945  0.524132  0  4.134709  0
C  C40  1  0.39740759  0.29913403  0.42527062  1  0  0.616564  0  3.824466  0  0  0.539484  0  4.127702  0  0  0.574076  0  4.119768  0  0  0.163166  0.515945  0  4.132485  0
C  C41  1  0.60259134  0.70086544  0.92527004  1  0  0.616541  0  3.824375  0  0  0.539469  0  4.127606  0  0  0.574062  0  4.119669  0  0  0.163119  0.51593  0  4.13239  0
C  C42  1  0.80593077  0.04348831  0.39004007  1  0  0.616319  0  3.849855  0  0  0.546053  0  4.148638  0  0  0.581059  0  4.140109  0  0  0.157407  0.522217  0  4.153651  0
C  C43  1  0.19406972  0.95651194  0.89003963  1  0  0.616374  0  3.849836  0  0  0.546118  0  4.148602  0  0  0.581124  0  4.140072  0  0  0.157416  0.522281  0  4.153617  0
C  C44  1  0.30176987  0.04114349  0.32467652  1  0  0.617692  0  3.80186  0  0  0.543375  0  4.099688  0  0  0.577983  0  4.091682  0  0  0.167699  0.519751  0  4.104657  0
C  C45  1  0.69823009  0.95885510  0.82467755  1  0  0.617558  0  3.802008  0  0  0.543224  0  4.099837  0  0  0.577832  0  4.091836  0  0  0.167644  0.5196  0  4.104804  0
C  C46  1  0.84961119  0.75752348  0.64084535  1  0  0.618696  0  3.837675  0  0  0.541833  0  4.143933  0  0  0.576943  0  4.135588  0  0  0.154768  0.517968  0  4.148975  0
C  C47  1  0.15038794  0.24247662  0.14084589  1  0  0.618616  0  3.83772  0  0  0.541763  0  4.143984  0  0  0.576871  0  4.135643  0  0  0.154742  0.517884  0  4.149028  0
C  C48  1  0.19595167  0.11537461  0.65110657  1  0  0.618917  0  3.841528  0  0  0.545584  0  4.145316  0  0  0.580852  0  4.13594  0  0  0.158022  0.521511  0  4.151097  0
C  C49  1  0.80404876  0.88462549  0.15110671  1  0  0.618919  0  3.841448  0  0  0.545572  0  4.145253  0  0  0.580841  0  4.135873  0  0  0.158018  0.521498  0  4.151035  0
C  C50  1  0.31517842  0.63669746  0.38752444  1  0  0.613431  0  3.825266  0  0  0.54339  0  4.122045  0  0  0.578238  0  4.113564  0  0  0.158426  0.519647  0  4.127166  0
C  C51  1  0.68482078  0.36330279  0.88752443  1  0  0.613411  0  3.825182  0  0  0.543371  0  4.121967  0  0  0.578221  0  4.113483  0  0  0.158416  0.51963  0  4.127088  0
C  C52  1  0.14967044  0.50045935  0.06154062  1  0  0.611105  0  3.827103  0  0  0.533262  0  4.134864  0  0  0.567346  0  4.126831  0  0  0.165146  0.510043  0  4.13978  0
C  C53  1  0.85032997  0.49954069  0.56154068  1  0  0.611047  0  3.82713  0  0  0.533199  0  4.134893  0  0  0.567281  0  4.126863  0  0  0.165123  0.509981  0  4.139805  0
C  C54  1  0.62007670  0.52009985  0.14904731  1  0  0.621178  0  3.809577  0  0  0.550023  0  4.1062  0  0  0.585018  0  4.09737  0  0  0.157508  0.526175  0  4.111545  0
C  C55  1  0.37992710  0.47989863  0.64904663  1  0  0.621107  0  3.809644  0  0  0.549939  0  4.106273  0  0  0.584933  0  4.097446  0  0  0.157439  0.526091  0  4.111617  0
C  C56  1  0.88892768  0.35849812  0.34526594  1  0  0.607193  0  3.834978  0  0  0.536371  0  4.136666  0  0  0.570877  0  4.127846  0  0  0.15468  0.512888  0  4.14206  0
C  C57  1  0.11107021  0.64150210  0.84526607  1  0  0.607277  0  3.834905  0  0  0.53646  0  4.136592  0  0  0.570969  0  4.127769  0  0  0.154724  0.512979  0  4.141983  0
C  C58  1  0.87067056  0.74547972  0.39164087  1  0  0.613445  0  3.812258  0  0  0.535036  0  4.119329  0  0  0.569332  0  4.111647  0  0  0.161151  0.511689  0  4.124049  0
C  C59  1  0.12933019  0.25452134  0.89164080  1  0  0.613528  0  3.812197  0  0  0.535084  0  4.119279  0  0  0.569379  0  4.111596  0  0  0.161126  0.511738  0  4.123999  0
O  O60  1  0.72643163  0.14625075  0.59957728  1  0  -0.634587  0  2.255197  0  0  -0.543034  0  2.540287  0  0  -0.5763  0  2.524901  0  0  -0.314222  -0.519844  0  2.550157  0
O  O61  1  0.27356750  0.85374932  0.09957667  1  0  -0.634602  0  2.255182  0  0  -0.543062  0  2.540282  0  0  -0.576326  0  2.524892  0  0  -0.314239  -0.519873  0  2.550154  0
O  O62  1  0.91687643  0.26756160  0.68506054  1  0  -0.564811  0  2.137849  0  0  -0.499549  0  2.409852  0  0  -0.527682  0  2.397857  0  0  -0.295804  -0.480079  0  2.417557  0
O  O63  1  0.08312271  0.73243852  0.18506060  1  0  -0.564766  0  2.137784  0  0  -0.499516  0  2.409794  0  0  -0.527646  0  2.397798  0  0  -0.295782  -0.480047  0  2.417499  0
O  O64  1  0.52744972  0.95163225  0.57940952  1  0  -0.651068  0  2.206591  0  0  -0.57016  0  2.495835  0  0  -0.601831  0  2.479139  0  0  -0.313541  -0.547932  0  2.506449  0
O  O65  1  0.47255096  0.04836861  0.07940923  1  0  -0.651024  0  2.206588  0  0  -0.570144  0  2.495835  0  0  -0.601815  0  2.479141  0  0  -0.313534  -0.547915  0  2.506445  0
O  O66  1  0.26166532  0.83805295  0.56441866  1  0  -0.581741  0  2.083993  0  0  -0.517677  0  2.349549  0  0  -0.546247  0  2.335531  0  0  -0.306997  -0.497776  0  2.358511  0
O  O67  1  0.73833536  0.16194791  0.06441917  1  0  -0.581738  0  2.084021  0  0  -0.517673  0  2.349561  0  0  -0.546242  0  2.335541  0  0  -0.30698  -0.497773  0  2.358526  0
O  O68  1  0.52176368  0.26368229  0.46444338  1  0  -0.576202  0  2.116967  0  0  -0.513014  0  2.388051  0  0  -0.541677  0  2.37715  0  0  -0.298452  -0.493122  0  2.39492  0
O  O69  1  0.47823656  0.73631719  0.96444356  1  0  -0.576254  0  2.11704  0  0  -0.513044  0  2.388094  0  0  -0.541708  0  2.377193  0  0  -0.298444  -0.493151  0  2.394962  0
O  O70  1  0.41463881  0.39394948  0.38791941  1  0  -0.634968  0  2.22579  0  0  -0.547825  0  2.515384  0  0  -0.579891  0  2.498988  0  0  -0.311157  -0.525365  0  2.52577  0
O  O71  1  0.58535882  0.60604996  0.88791879  1  0  -0.634892  0  2.225643  0  0  -0.547762  0  2.515239  0  0  -0.579835  0  2.498856  0  0  -0.311113  -0.525304  0  2.525629  0
O  O72  1  0.67268102  0.08739074  0.39214986  1  0  -0.593944  0  2.089167  0  0  -0.532059  0  2.350751  0  0  -0.561175  0  2.338726  0  0  -0.309311  -0.511658  0  2.358235  0
O  O73  1  0.32731948  0.91260951  0.89214940  1  0  -0.593955  0  2.089175  0  0  -0.532081  0  2.35076  0  0  -0.561197  0  2.338736  0  0  -0.309303  -0.511678  0  2.358244  0
O  O74  1  0.86529192  0.99645498  0.46190511  1  0  -0.648818  0  2.231456  0  0  -0.567356  0  2.514196  0  0  -0.599502  0  2.500414  0  0  -0.317579  -0.544763  0  2.522761  0
O  O75  1  0.13470729  0.00354532  0.96190418  1  0  -0.648842  0  2.231436  0  0  -0.567381  0  2.51418  0  0  -0.599524  0  2.500397  0  0  -0.317569  -0.544787  0  2.522745  0
O  O76  1  0.28873798  0.03109853  0.41854399  1  0  -0.645568  0  2.207093  0  0  -0.558658  0  2.503217  0  0  -0.591283  0  2.484808  0  0  -0.309063  -0.535845  0  2.515147  0
O  O77  1  0.71126225  0.96890093  0.91854429  1  0  -0.645482  0  2.207078  0  0  -0.558596  0  2.503235  0  0  -0.591221  0  2.484829  0  0  -0.309056  -0.535783  0  2.515163  0
O  O78  1  0.18327462  0.99719553  0.26669451  1  0  -0.556929  0  2.107418  0  0  -0.493792  0  2.381068  0  0  -0.521382  0  2.368217  0  0  -0.293015  -0.474686  0  2.389358  0
O  O79  1  0.81672558  0.00280383  0.76669431  1  0  -0.556863  0  2.107437  0  0  -0.493712  0  2.381076  0  0  -0.521303  0  2.368227  0  0  -0.292965  -0.474604  0  2.389363  0
O  O80  1  0.87388109  0.84862022  0.59720213  1  0  -0.646826  0  2.240741  0  0  -0.562237  0  2.527867  0  0  -0.59485  0  2.514167  0  0  -0.31322  -0.539275  0  2.536236  0
O  O81  1  0.12611830  0.15138065  0.09720189  1  0  -0.646798  0  2.240789  0  0  -0.562196  0  2.52789  0  0  -0.594807  0  2.514192  0  0  -0.313202  -0.539234  0  2.536266  0
O  O82  1  0.71579681  0.71915515  0.69229417  1  0  -0.583462  0  2.052493  0  0  -0.521826  0  2.318832  0  0  -0.550869  0  2.306468  0  0  -0.308684  -0.501615  0  2.326663  0
O  O83  1  0.28420364  0.28084498  0.19229473  1  0  -0.583429  0  2.052508  0  0  -0.521765  0  2.318812  0  0  -0.550809  0  2.30645  0  0  -0.308675  -0.501555  0  2.326651  0
O  O84  1  0.08588421  0.04042129  0.60803976  1  0  -0.65272  0  2.238833  0  0  -0.568916  0  2.529665  0  0  -0.601628  0  2.514247  0  0  -0.320227  -0.545953  0  2.53938  0
O  O85  1  0.91411752  0.95957878  0.10803994  1  0  -0.652719  0  2.238821  0  0  -0.568901  0  2.529658  0  0  -0.601619  0  2.514253  0  0  -0.32023  -0.545938  0  2.539371  0
O  O86  1  0.35673340  0.14515080  0.62987860  1  0  -0.586115  0  2.090114  0  0  -0.522964  0  2.351511  0  0  -0.551421  0  2.33853  0  0  -0.312605  -0.503155  0  2.359759  0
O  O87  1  0.64326703  0.85484929  0.12987799  1  0  -0.586134  0  2.0901  0  0  -0.522975  0  2.351511  0  0  -0.55143  0  2.338526  0  0  -0.312605  -0.503167  0  2.359761  0
O  O88  1  0.21920720  0.57091467  0.32803079  1  0  -0.655087  0  2.212588  0  0  -0.572086  0  2.49919  0  0  -0.604424  0  2.483771  0  0  -0.317013  -0.549384  0  2.508843  0
O  O89  1  0.78079327  0.42908554  0.82803008  1  0  -0.655081  0  2.212495  0  0  -0.572092  0  2.499106  0  0  -0.604433  0  2.483689  0  0  -0.316994  -0.54939  0  2.50876  0
O  O90  1  0.46622301  0.62952281  0.41841173  1  0  -0.576802  0  2.07123  0  0  -0.514711  0  2.334339  0  0  -0.543111  0  2.321291  0  0  -0.306119  -0.49491  0  2.342624  0
O  O91  1  0.53377619  0.37047746  0.91841173  1  0  -0.576787  0  2.071261  0  0  -0.514694  0  2.334369  0  0  -0.543095  0  2.321321  0  0  -0.306118  -0.494893  0  2.342654  0
O  O92  1  0.12359328  0.49132648  0.15413593  1  0  -0.645313  0  2.242567  0  0  -0.562478  0  2.538328  0  0  -0.594346  0  2.522827  0  0  -0.311348  -0.540068  0  2.547995  0
O  O93  1  0.87640846  0.50867362  0.65413527  1  0  -0.645267  0  2.242577  0  0  -0.562423  0  2.538321  0  0  -0.59429  0  2.522823  0  0  -0.311339  -0.540013  0  2.547987  0
O  O94  1  0.27257792  0.46701989  0.01880375  1  0  -0.577572  0  2.141606  0  0  -0.512875  0  2.421119  0  0  -0.540833  0  2.409035  0  0  -0.298938  -0.493455  0  2.428864  0
O  O95  1  0.72742353  0.53297932  0.51880383  1  0  -0.577533  0  2.141603  0  0  -0.51284  0  2.421127  0  0  -0.540799  0  2.409046  0  0  -0.298909  -0.493419  0  2.428869  0
O  O96  1  0.53336800  0.50805177  0.23031977  1  0  -0.655908  0  2.202971  0  0  -0.569615  0  2.487099  0  0  -0.602425  0  2.470793  0  0  -0.31877  -0.546598  0  2.497455  0
O  O97  1  0.46663479  0.49194757  0.73031982  1  0  -0.655784  0  2.203099  0  0  -0.569489  0  2.487217  0  0  -0.602299  0  2.470916  0  0  -0.318693  -0.546471  0  2.49757  0
O  O98  1  0.78308045  0.55602083  0.13972159  1  0  -0.576541  0  2.067806  0  0  -0.514891  0  2.326445  0  0  -0.543164  0  2.313834  0  0  -0.310838  -0.495188  0  2.334427  0
O  O99  1  0.21691946  0.44397765  0.63972162  1  0  -0.576571  0  2.067661  0  0  -0.514925  0  2.32631  0  0  -0.543196  0  2.313697  0  0  -0.31086  -0.495223  0  2.334293  0
O  O100  1  0.84478200  0.44922882  0.32509654  1  0  -0.659085  0  2.22675  0  0  -0.575587  0  2.513755  0  0  -0.60791  0  2.498622  0  0  -0.317718  -0.552907  0  2.523298  0
O  O101  1  0.15521692  0.55077058  0.82509662  1  0  -0.659122  0  2.22673  0  0  -0.575627  0  2.513735  0  0  -0.607953  0  2.498606  0  0  -0.317732  -0.552946  0  2.523278  0
O  O102  1  0.03533490  0.33375868  0.32595826  1  0  -0.589124  0  2.087145  0  0  -0.527741  0  2.350634  0  0  -0.556191  0  2.338362  0  0  -0.309875  -0.507894  0  2.358346  0
O  O103  1  0.96466375  0.66623991  0.82595768  1  0  -0.589144  0  2.087155  0  0  -0.527763  0  2.350644  0  0  -0.556212  0  2.338369  0  0  -0.309871  -0.507916  0  2.358353  0
O  O104  1  0.83124107  0.65901090  0.34046196  1  0  -0.637211  0  2.240094  0  0  -0.550908  0  2.530749  0  0  -0.583266  0  2.51529  0  0  -0.31395  -0.528408  0  2.540728  0
O  O105  1  0.16875967  0.34099012  0.84046194  1  0  -0.637236  0  2.24003  0  0  -0.55094  0  2.530711  0  0  -0.583296  0  2.515251  0  0  -0.313961  -0.52844  0  2.540695  0
O  O106  1  0.02554612  0.79972959  0.39982614  1  0  -0.57043  0  2.122322  0  0  -0.504843  0  2.399923  0  0  -0.532984  0  2.386807  0  0  -0.299931  -0.485336  0  2.408366  0
O  O107  1  0.97445307  0.20027067  0.89982532  1  0  -0.570467  0  2.122286  0  0  -0.504871  0  2.399909  0  0  -0.533016  0  2.386799  0  0  -0.299898  -0.485363  0  2.408351  0
