# generated using pymatgen
data_CuH26C18S2(NO2)4
_symmetry_space_group_name_H-M   'P 1'
_cell_length_a   7.03674249
_cell_length_b   8.37856220
_cell_length_c   9.41960469
_cell_angle_alpha   85.87764235
_cell_angle_beta   78.03488492
_cell_angle_gamma   82.58000823
_symmetry_Int_Tables_number   1
_chemical_formula_structural   CuH26C18S2(NO2)4
_chemical_formula_sum   'Cu1 H26 C18 S2 N4 O8'
_cell_volume   538.16096317
_cell_formula_units_Z   1
loop_
 _symmetry_equiv_pos_site_id
 _symmetry_equiv_pos_as_xyz
  1  'x, y, z'
loop_
 _atom_site_type_symbol
 _atom_site_label
 _atom_site_symmetry_multiplicity
 _atom_site_fract_x
 _atom_site_fract_y
 _atom_site_fract_z
 _atom_site_occupancy
 _atom_site_hle17_ddec_charge
 _atom_site_hle17_ddec_spin_density
 _atom_site_hle17_ddec_sum_bond_order
 _atom_site_hle17_magmom
 _atom_site_hse06_10hf_ddec_charge
 _atom_site_hse06_10hf_ddec_spin_density
 _atom_site_hse06_10hf_ddec_sum_bond_order
 _atom_site_hse06_10hf_magmom
 _atom_site_hse06_ddec_charge
 _atom_site_hse06_ddec_spin_density
 _atom_site_hse06_ddec_sum_bond_order
 _atom_site_hse06_magmom
 _atom_site_pbe_cm5_charge
 _atom_site_pbe_ddec_charge
 _atom_site_pbe_ddec_spin_density
 _atom_site_pbe_ddec_sum_bond_order
 _atom_site_pbe_magmom
Cu  Cu0  1  0.50000049  0.50000203  0.49999805  1  0.886255  -0.648533  1.610302  -0.45  0.885913  -0.761914  1.976328  -0.596  0.979114  -0.84207  1.914208  -0.693  0.71044  0.830417  -0.706884  2.019621  -0.536
H  H1  1  0.81345178  0.38404029  0.58387379  1  0.335004  0.001174  0.883864  0.001  0.32338  0.000443  0.939676  0.0  0.331301  0.000704  0.933907  0.001  0.302394  0.318006  0.000208  0.943721  0.0
H  H2  1  0.18654906  0.61596495  0.41612440  1  0.335021  0.001174  0.883832  0.001  0.323376  0.000442  0.93968  0.0  0.331295  0.000703  0.933914  0.001  0.302383  0.318005  0.000208  0.943725  0.0
H  H3  1  0.86352453  0.46535719  0.41492895  1  0.320003  0.001002  0.916965  0.002  0.305119  0.000118  0.979166  0.0  0.313185  0.000378  0.973567  0.001  0.293777  0.299522  -8.7e-05  0.983188  0.0
H  H4  1  0.13647546  0.53464325  0.58506963  1  0.319837  0.001003  0.917035  0.002  0.304927  0.000117  0.979299  0.0  0.312992  0.000378  0.973706  0.001  0.29369  0.299329  -8.7e-05  0.98332  0.0
H  H5  1  0.98483330  0.03796666  0.11133687  1  0.1009  -0.000359  0.977217  -0.001  0.107579  9.3e-05  1.046906  0.0  0.110565  9e-05  1.044262  0.0  0.104067  0.105275  9.1e-05  1.049082  0.0
H  H6  1  0.01517482  0.96202754  0.88867138  1  0.100881  -0.000358  0.977278  -0.001  0.107617  9.3e-05  1.046903  0.0  0.110603  9e-05  1.044258  0.0  0.104094  0.105339  9.1e-05  1.049031  0.0
H  H7  1  0.96307475  0.30498316  0.21295635  1  0.120596  0.001754  0.932077  0.002  0.130972  0.000259  0.989162  0.0  0.134382  0.000214  0.98787  0.0  0.1104  0.128478  0.000279  0.990283  0.0
H  H8  1  0.03693692  0.69501710  0.78704463  1  0.120564  0.001754  0.932116  0.002  0.130953  0.000259  0.989173  0.0  0.134418  0.000214  0.98781  0.0  0.110402  0.12846  0.000279  0.990295  0.0
H  H9  1  0.66488645  0.12125705  0.62701584  1  0.113163  0.001542  0.951453  0.002  0.12407  0.000168  1.010545  0.0  0.126828  0.000151  1.010314  0.0  0.106682  0.122021  0.000152  1.011042  0.0
H  H10  1  0.33510999  0.87874828  0.37297985  1  0.113151  0.001542  0.951451  0.002  0.124032  0.000168  1.010545  0.0  0.126788  0.000151  1.01032  0.0  0.106665  0.121986  0.000152  1.01104  0.0
H  H11  1  0.69130957  0.85004275  0.52578624  1  0.105292  -0.000424  0.976416  -0.001  0.109348  4.6e-05  1.046504  0.0  0.112666  6.4e-05  1.044002  0.0  0.103421  0.106875  1.2e-05  1.048477  0.0
H  H12  1  0.30868098  0.14996376  0.47421775  1  0.105287  -0.000424  0.976377  -0.001  0.109346  4.6e-05  1.046447  0.0  0.112663  6.5e-05  1.043948  0.0  0.103441  0.106874  1.2e-05  1.048421  0.0
H  H13  1  0.36970809  0.52663840  0.82478110  1  0.053249  -0.001614  0.959246  -0.002  0.059402  -0.001134  1.031851  -0.002  0.060279  -0.000606  1.027721  -0.001  0.127181  0.058452  -0.00159  1.034974  -0.002
H  H14  1  0.63030153  0.47335472  0.17521529  1  0.053143  -0.001614  0.959286  -0.002  0.059321  -0.001134  1.031875  -0.002  0.060199  -0.000606  1.027739  -0.001  0.127167  0.058367  -0.00159  1.035001  -0.002
H  H15  1  0.69916538  0.83497504  0.75081497  1  0.10698  -0.000419  0.973155  0.0  0.127181  -0.000378  1.034444  0.0  0.12844  -0.000274  1.03409  0.0  0.108323  0.126247  -0.000469  1.034682  0.0
H  H16  1  0.30083609  0.16502534  0.24918656  1  0.106999  -0.000419  0.97317  0.0  0.127194  -0.000378  1.034478  0.0  0.128454  -0.000274  1.034122  0.0  0.108297  0.126259  -0.000469  1.034722  0.0
H  H17  1  0.67193114  0.86371963  0.94007550  1  0.112956  5.2e-05  0.968941  0.0  0.131674  1e-05  1.033057  0.0  0.132682  2.1e-05  1.032694  0.0  0.105206  0.130855  -1.7e-05  1.033389  0.0
H  H18  1  0.32806322  0.13627963  0.05992723  1  0.112953  5.2e-05  0.968931  0.0  0.13168  1.1e-05  1.033046  0.0  0.132687  2.1e-05  1.032682  0.0  0.105197  0.130861  -1.7e-05  1.033377  0.0
H  H19  1  0.49650535  0.96785584  0.84031092  1  0.098681  -2.2e-05  0.937716  0.0  0.119621  -1e-06  1.001802  0.0  0.119482  2.1e-05  1.002679  0.0  0.103696  0.119508  -2.2e-05  1.00135  0.0
H  H20  1  0.50349075  0.03214101  0.15969060  1  0.098695  -2.2e-05  0.937689  0.0  0.119643  -2e-06  1.001769  0.0  0.119505  2.1e-05  1.002645  0.0  0.103693  0.119531  -2.2e-05  1.001318  0.0
H  H21  1  0.27335488  0.60917599  0.04519060  1  0.115101  1.5e-05  0.93419  0.0  0.132481  -3.1e-05  0.998635  0.0  0.134102  -1.2e-05  0.997416  0.0  0.110111  0.131197  -5.8e-05  0.999607  0.0
H  H22  1  0.72664951  0.39081239  0.95480582  1  0.115025  1.5e-05  0.934263  0.0  0.132456  -3.1e-05  0.998639  0.0  0.134069  -1.2e-05  0.997423  0.0  0.110094  0.131172  -5.8e-05  0.999616  0.0
H  H23  1  0.24449496  0.82218461  0.04285471  1  0.101019  4.6e-05  0.948649  0.0  0.122297  -1e-05  1.012273  0.0  0.122905  1.9e-05  1.01264  0.0  0.10363  0.121756  -9.9e-05  1.012234  0.0
H  H24  1  0.75550492  0.17780502  0.95714342  1  0.100976  4.6e-05  0.948733  0.0  0.122286  -1e-05  1.012317  0.0  0.122867  1.9e-05  1.012712  0.0  0.103611  0.121742  -9.9e-05  1.01228  0.0
H  H25  1  0.44203489  0.71170282  0.11423315  1  0.110379  8.2e-05  0.954914  0.0  0.128672  3.4e-05  1.019978  0.0  0.129958  3.5e-05  1.019006  0.0  0.102955  0.127531  2.2e-05  1.020905  0.0
H  H26  1  0.55796600  0.28829040  0.88576462  1  0.110396  8.2e-05  0.954899  0.0  0.12867  3.4e-05  1.019991  0.0  0.129957  3.5e-05  1.019012  0.0  0.102932  0.127528  2.2e-05  1.020921  0.0
C  C27  1  0.84001902  0.92747126  0.31267853  1  -0.135801  -0.04369  3.758646  -0.04  -0.118648  -0.013229  4.014508  -0.013  -0.130003  -0.010006  4.039716  -0.01  -0.029345  -0.111273  -0.016352  3.997461  -0.015
C  C28  1  0.15998086  0.07253033  0.68732425  1  -0.135617  -0.043693  3.7585  -0.04  -0.118451  -0.013238  4.014322  -0.013  -0.129806  -0.010002  4.039528  -0.01  -0.029282  -0.111085  -0.016353  3.997291  -0.015
C  C29  1  0.91757433  0.05434304  0.22497983  1  -0.057022  0.032293  3.76687  0.023  -0.083577  0.007178  4.024919  0.005  -0.08039  0.008606  4.046166  0.006  -0.087733  -0.085304  0.005952  4.010632  0.005
C  C30  1  0.08243025  0.94565606  0.77502552  1  -0.05703  0.032295  3.766943  0.023  -0.083659  0.007181  4.024991  0.005  -0.080476  0.008602  4.046257  0.006  -0.08774  -0.08539  0.005953  4.010701  0.005
C  C31  1  0.90447214  0.20529357  0.28210915  1  -0.164448  -0.038764  3.698445  -0.035  -0.18487  -0.013002  3.954249  -0.013  -0.193328  -0.010366  3.976304  -0.011  -0.094291  -0.179369  -0.014817  3.939173  -0.014
C  C32  1  0.09553211  0.79470797  0.71789294  1  -0.164493  -0.038761  3.698621  -0.035  -0.184876  -0.013  3.954464  -0.013  -0.193377  -0.010364  3.9765  -0.011  -0.094349  -0.17938  -0.014817  3.939397  -0.014
C  C33  1  0.81256861  0.22920725  0.42697364  1  0.286323  0.020295  3.774568  0.018  0.280077  0.009161  4.030876  0.008  0.289693  0.012582  4.054498  0.01  0.086611  0.274534  0.005364  4.014559  0.006
C  C34  1  0.18743081  0.77079795  0.57302902  1  0.286377  0.020297  3.774543  0.018  0.279999  0.009161  4.030999  0.008  0.289613  0.012584  4.054633  0.01  0.086582  0.274457  0.005365  4.014687  0.006
C  C35  1  0.74040696  0.09984097  0.51572407  1  -0.141768  -0.036138  3.684144  -0.032  -0.163645  -0.011383  3.940291  -0.011  -0.171719  -0.00936  3.963477  -0.01  -0.088731  -0.158755  -0.012841  3.924937  -0.012
C  C36  1  0.25959908  0.90016905  0.48427090  1  -0.141818  -0.036142  3.684286  -0.032  -0.163573  -0.011383  3.940332  -0.011  -0.171648  -0.00936  3.963514  -0.01  -0.088696  -0.158682  -0.012841  3.924977  -0.012
C  C37  1  0.75386503  0.94950499  0.45904896  1  -0.051021  0.033451  3.750516  0.024  -0.073446  0.007606  4.004849  0.005  -0.070834  0.008938  4.02611  0.006  -0.084894  -0.074802  0.00638  3.990449  0.005
C  C38  1  0.24612726  0.05049911  0.54095383  1  -0.051127  0.033447  3.750653  0.024  -0.073546  0.007608  4.004905  0.005  -0.070937  0.008933  4.026169  0.006  -0.084978  -0.074901  0.006379  3.990507  0.005
C  C39  1  0.46697684  0.62026932  0.78740698  1  0.378388  0.004252  3.792708  0.005  0.306762  0.000746  4.078369  0.002  0.337133  0.001247  4.081561  0.002  0.174389  0.286652  0.000163  4.075777  0.002
C  C40  1  0.53302828  0.37972503  0.21259218  1  0.378427  0.004252  3.792613  0.005  0.306789  0.000746  4.078309  0.002  0.337167  0.001245  4.081496  0.002  0.174404  0.28668  0.000163  4.075705  0.002
C  C41  1  0.59343197  0.85567978  0.85217512  1  -0.173661  -0.00033  3.615168  0.0  -0.271841  -0.000466  3.848563  0.0  -0.268074  -0.000271  3.857932  0.0  -0.135648  -0.274009  -0.000617  3.842128  0.0
C  C42  1  0.40656673  0.14431945  0.14782480  1  -0.173813  -0.00033  3.615118  0.0  -0.272019  -0.000466  3.848535  0.0  -0.268253  -0.000272  3.857906  0.0  -0.135649  -0.274184  -0.000617  3.842099  0.0
C  C43  1  0.35308806  0.71493725  0.03082276  1  -0.182128  -0.00075  3.632677  -0.001  -0.286112  -0.000713  3.882927  -0.001  -0.283112  -0.000512  3.893219  -0.001  -0.136068  -0.287911  -0.000859  3.876267  -0.001
C  C44  1  0.64691328  0.28505236  0.96917514  1  -0.182132  -0.00075  3.632943  -0.001  -0.286165  -0.000713  3.883152  -0.001  -0.283133  -0.000511  3.893467  -0.001  -0.136021  -0.287966  -0.000859  3.876484  -0.001
S  S45  1  0.83850624  0.73815936  0.23882238  1  1.286837  0.001501  5.675191  0.002  1.196786  0.000115  6.196271  0.001  1.246581  0.000159  6.169939  0.001  0.500868  1.16263  6.3e-05  6.212781  0.001
S  S46  1  0.16148313  0.26184478  0.76117981  1  1.286705  0.001501  5.675251  0.002  1.196642  0.000132  6.196339  0.001  1.246439  0.000159  6.170009  0.001  0.500869  1.162488  6.3e-05  6.212853  0.001
N  N47  1  0.78019573  0.38581137  0.48224940  1  -0.645201  -0.085915  3.170456  -0.102  -0.623687  -0.053899  3.434641  -0.07  -0.656952  -0.042658  3.434209  -0.06  -0.614121  -0.60407  -0.058622  3.436553  -0.072
N  N48  1  0.21980510  0.61419389  0.51774772  1  -0.644954  -0.085917  3.170324  -0.102  -0.623377  -0.053899  3.434559  -0.07  -0.65664  -0.042657  3.434135  -0.06  -0.613967  -0.603766  -0.058619  3.436472  -0.072
N  N49  1  0.47779572  0.72121457  0.88681211  1  -0.068793  -0.002571  3.512686  -0.003  0.038249  -0.002388  3.738185  -0.003  0.018335  -0.001472  3.76342  -0.002  -0.276031  0.051353  -0.003022  3.720784  -0.004
N  N50  1  0.52220808  0.27877862  0.11318520  1  -0.068557  -0.002571  3.512546  -0.003  0.038516  -0.002389  3.737995  -0.003  0.018601  -0.001471  3.76323  -0.002  -0.275995  0.051617  -0.003022  3.720589  -0.004
O  O51  1  0.63983316  0.69271942  0.29665382  1  -0.707525  -0.001302  2.010434  -0.003  -0.671759  2e-06  2.291432  -0.002  -0.696078  0.000813  2.273861  -0.001  -0.351416  -0.654774  -0.000919  2.303227  -0.003
O  O52  1  0.36015586  0.30728719  0.70334298  1  -0.707568  -0.001302  2.010259  -0.003  -0.671798  -2e-06  2.291302  -0.002  -0.696121  0.000814  2.273735  -0.001  -0.351483  -0.654801  -0.000919  2.30307  -0.003
O  O53  1  0.98851045  0.62296386  0.29380722  1  -0.680773  -0.003372  1.938202  -0.004  -0.623231  -0.001521  2.170089  -0.002  -0.644564  -0.000751  2.155978  -0.001  -0.349332  -0.607829  -0.002366  2.178861  -0.003
O  O54  1  0.01148110  0.37703428  0.70619177  1  -0.680657  -0.003372  1.938483  -0.004  -0.623113  -0.001519  2.17038  -0.002  -0.64445  -0.000751  2.156273  -0.001  -0.349263  -0.607712  -0.002365  2.179154  -0.003
O  O55  1  0.88195942  0.76378477  0.08083912  1  -0.661141  -0.000946  1.953661  -0.001  -0.615003  -0.000541  2.202879  -0.001  -0.635561  -0.000218  2.188887  0.0  -0.345114  -0.600468  -0.000784  2.211769  -0.001
O  O56  1  0.11803258  0.23622172  0.91916465  1  -0.661072  -0.000945  1.953682  -0.001  -0.614953  -0.000542  2.202934  -0.001  -0.635504  -0.000221  2.188926  0.0  -0.345091  -0.600416  -0.000784  2.211823  -0.001
O  O57  1  0.56245138  0.62614383  0.65751865  1  -0.518747  -0.05658  2.128175  -0.072  -0.470837  -0.046335  2.401372  -0.067  -0.507492  -0.036503  2.396085  -0.057  -0.306214  -0.447574  -0.051708  2.405526  -0.07
O  O58  1  0.43755295  0.37385660  0.34247606  1  -0.518698  -0.056571  2.12812  -0.072  -0.470844  -0.046328  2.401377  -0.067  -0.507496  -0.0365  2.396085  -0.057  -0.30622  -0.447581  -0.051703  2.405526  -0.07
