# generated using pymatgen
data_CoH28C36(NO)4
_symmetry_space_group_name_H-M   'P 1'
_cell_length_a   9.09769319
_cell_length_b   11.04478741
_cell_length_c   16.37556697
_cell_angle_alpha   71.50996148
_cell_angle_beta   76.58240047
_cell_angle_gamma   81.29811005
_symmetry_Int_Tables_number   1
_chemical_formula_structural   CoH28C36(NO)4
_chemical_formula_sum   'Co2 H56 C72 N8 O8'
_cell_volume   1512.52204818
_cell_formula_units_Z   2
loop_
 _symmetry_equiv_pos_site_id
 _symmetry_equiv_pos_as_xyz
  1  'x, y, z'
loop_
 _atom_site_type_symbol
 _atom_site_label
 _atom_site_symmetry_multiplicity
 _atom_site_fract_x
 _atom_site_fract_y
 _atom_site_fract_z
 _atom_site_occupancy
 _atom_site_hle17_ddec_charge
 _atom_site_hle17_ddec_spin_density
 _atom_site_hle17_ddec_sum_bond_order
 _atom_site_hle17_magmom
 _atom_site_hse06_10hf_ddec_charge
 _atom_site_hse06_10hf_ddec_spin_density
 _atom_site_hse06_10hf_ddec_sum_bond_order
 _atom_site_hse06_10hf_magmom
 _atom_site_hse06_ddec_charge
 _atom_site_hse06_ddec_spin_density
 _atom_site_hse06_ddec_sum_bond_order
 _atom_site_hse06_magmom
 _atom_site_pbe_cm5_charge
 _atom_site_pbe_ddec_charge
 _atom_site_pbe_ddec_spin_density
 _atom_site_pbe_ddec_sum_bond_order
 _atom_site_pbe_magmom
Co  Co0  1  0.47185310  0.63749959  0.24969381  1  0.968773  2.825087  2.01735  2.53  0.920246  2.821833  2.461721  2.586  1.011587  2.867866  2.373432  2.676  0.671325  0.849278  2.777788  2.527833  2.503
Co  Co1  1  0.52814612  0.36250331  0.75030627  1  0.968832  2.825103  2.01733  2.53  0.920261  2.821823  2.461728  2.586  1.011572  2.867851  2.373417  2.676  0.671328  0.84926  2.777773  2.527848  2.503
H  H2  1  0.61866004  0.52525917  0.39275169  1  0.144091  6.8e-05  0.951276  0.0  0.16367  0.000418  1.009673  0.0  0.165942  0.000302  1.009256  0.0  0.107024  0.161827  0.000527  1.010226  0.0
H  H3  1  0.38134266  0.47474278  0.60724876  1  0.144067  6.9e-05  0.951312  0.0  0.163663  0.000419  1.009695  0.0  0.165935  0.000302  1.009278  0.0  0.107027  0.16182  0.000528  1.010249  0.0
H  H4  1  0.79993203  0.44721489  0.41064646  1  0.121789  -0.00021  0.940624  0.0  0.144844  4.9e-05  0.995822  0.0  0.14718  3.5e-05  0.994476  0.0  0.099917  0.143211  7.4e-05  0.996754  0.0
H  H5  1  0.20006748  0.55278513  0.58935542  1  0.121816  -0.000211  0.940604  0.0  0.144872  4.9e-05  0.995795  0.0  0.147208  3.5e-05  0.99445  0.0  0.099932  0.143236  7.3e-05  0.996727  0.0
H  H6  1  0.67157828  0.36863680  0.38233213  1  0.132497  -0.000771  0.958503  -0.001  0.151928  -0.000268  1.021775  0.0  0.153711  -0.000231  1.022794  0.0  0.100765  0.150809  -0.000312  1.020908  0.0
H  H7  1  0.32841898  0.63136321  0.61766942  1  0.132497  -0.000771  0.958499  -0.001  0.151918  -0.000268  1.021791  0.0  0.153701  -0.00023  1.022811  0.0  0.100752  0.150799  -0.000312  1.020924  0.0
H  H8  1  0.65958464  0.74850454  0.04563376  1  0.115961  -0.000198  0.946944  0.0  0.126714  -0.00016  1.00661  0.0  0.130168  -0.000185  1.004626  0.0  0.109189  0.124013  -0.00012  1.008451  0.0
H  H9  1  0.34041857  0.25149262  0.95436826  1  0.115959  -0.000197  0.946927  0.0  0.126714  -0.00016  1.006582  0.0  0.130167  -0.000185  1.004599  0.0  0.109193  0.124014  -0.000121  1.008419  0.0
H  H10  1  0.88036787  0.77136921  0.91904149  1  0.086325  0.0  0.963558  0.0  0.097416  -5e-06  1.023715  0.0  0.099582  -2e-06  1.024185  0.0  0.095684  0.095891  -1.5e-05  1.023553  0.0
H  H11  1  0.11963575  0.22863466  0.08095965  1  0.08629  -1e-06  0.963621  0.0  0.097404  -5e-06  1.023744  0.0  0.099568  -2e-06  1.024218  0.0  0.09568  0.095874  -1.5e-05  1.023593  0.0
H  H12  1  0.13403564  0.66524120  0.94117679  1  0.077756  -8.1e-05  0.973387  0.0  0.088936  -1.7e-05  1.037386  0.0  0.090961  -1.6e-05  1.037425  0.0  0.094479  0.087388  -1.7e-05  1.037817  0.0
H  H13  1  0.86596623  0.33475787  0.05882499  1  0.07777  -7.8e-05  0.973345  0.0  0.088958  -1.7e-05  1.037342  0.0  0.090983  -1.5e-05  1.037381  0.0  0.094487  0.087408  -1.7e-05  1.037775  0.0
H  H14  1  0.17633835  0.52615476  0.08745090  1  0.105556  0.000151  0.945054  0.0  0.118135  0.000109  1.002058  0.0  0.121008  6.8e-05  1.001144  0.0  0.105149  0.11607  0.000169  1.002761  0.0
H  H15  1  0.82366374  0.47384240  0.91255004  1  0.105498  0.00015  0.945081  0.0  0.118116  0.000109  1.002041  0.0  0.12099  6.8e-05  1.001125  0.0  0.105133  0.11605  0.000169  1.002746  0.0
H  H16  1  0.03126828  0.41942391  0.34276715  1  0.069673  -0.000108  0.944499  0.0  0.086201  -3.3e-05  1.006904  0.0  0.085973  -2.5e-05  1.00696  0.0  0.112594  0.086227  -2.8e-05  1.007103  0.0
H  H17  1  0.96872929  0.58057323  0.65723497  1  0.069694  -0.000108  0.944413  0.0  0.086216  -3.3e-05  1.006833  0.0  0.085989  -2.5e-05  1.006885  0.0  0.112593  0.086243  -2.7e-05  1.00703  0.0
H  H18  1  0.14615984  0.42855547  0.23906641  1  0.096373  -3e-06  0.934258  0.0  0.110488  -2.3e-05  0.997491  0.0  0.111321  -3.9e-05  0.997773  0.0  0.123966  0.109926  -1e-06  0.997214  0.0
H  H19  1  0.85383873  0.57144263  0.76093783  1  0.096366  -3e-06  0.934264  0.0  0.110473  -2.3e-05  0.997511  0.0  0.111307  -3.9e-05  0.997794  0.0  0.123948  0.109911  -2e-06  0.997236  0.0
H  H20  1  0.86735708  0.31260234  0.19692614  1  0.092826  -4.8e-05  0.973989  0.0  0.102301  -5.4e-05  1.037937  0.0  0.104793  -4.4e-05  1.037723  0.0  0.103129  0.100558  -6.9e-05  1.038021  0.0
H  H21  1  0.13264942  0.68739579  0.80307526  1  0.092796  -4.8e-05  0.974046  0.0  0.10228  -5.4e-05  1.037987  0.0  0.104772  -4.4e-05  1.037774  0.0  0.103109  0.100529  -6.9e-05  1.038079  0.0
H  H22  1  0.85081276  0.08872761  0.20288133  1  0.100793  -3e-06  0.937499  0.0  0.114564  -1e-06  0.991552  0.0  0.117033  -1e-06  0.9911  0.0  0.108869  0.112662  2e-06  0.992145  0.0
H  H23  1  0.14919119  0.91127339  0.79711795  1  0.100851  -1e-06  0.937507  0.0  0.114589  -1e-06  0.991589  0.0  0.117058  -2e-06  0.991138  0.0  0.108898  0.112687  0.0  0.992181  0.0
H  H24  1  0.98545911  0.90934293  0.30372969  1  0.106337  -9e-06  0.939983  0.0  0.116784  -9e-06  0.997021  0.0  0.120364  -1.7e-05  0.995011  0.0  0.106436  0.11404  1e-06  0.998738  0.0
H  H25  1  0.01453610  0.09065516  0.69627253  1  0.106382  -9e-06  0.939955  0.0  0.116833  -9e-06  0.99699  0.0  0.120415  -1.7e-05  0.994976  0.0  0.10644  0.114089  1e-06  0.998709  0.0
H  H26  1  0.13160879  0.95952675  0.39789239  1  0.089547  -1.6e-05  0.965037  0.0  0.100623  -8e-06  1.026242  0.0  0.102869  -8e-06  1.026025  0.0  0.097767  0.098855  -2.1e-05  1.026737  0.0
H  H27  1  0.86838660  0.04046942  0.60211144  1  0.089558  -1.5e-05  0.965027  0.0  0.100613  -8e-06  1.026261  0.0  0.102859  -8e-06  1.026045  0.0  0.097738  0.09885  -2.1e-05  1.026749  0.0
H  H28  1  0.12460627  0.23098224  0.45363811  1  0.080467  -2.3e-05  0.915714  0.0  0.100962  -1e-05  0.970071  0.0  0.101194  -1.3e-05  0.969786  0.0  0.116567  0.100739  -0.0  0.970373  0.0
H  H29  1  0.87539448  0.76901683  0.54636320  1  0.080494  -2.2e-05  0.91568  0.0  0.100978  -1e-05  0.970027  0.0  0.10122  -1.3e-05  0.96974  0.0  0.116555  0.100756  -0.0  0.970331  0.0
H  H30  1  0.24265859  0.09492671  0.43749456  1  0.080812  -1.2e-05  0.958554  0.0  0.093053  3.1e-05  1.026805  0.0  0.092935  1.6e-05  1.028684  0.0  0.108507  0.093102  2.6e-05  1.025679  0.0
H  H31  1  0.75734544  0.90507334  0.56250674  1  0.080852  -1.2e-05  0.958613  0.0  0.093084  3.1e-05  1.026836  0.0  0.092971  1.7e-05  1.028718  0.0  0.108518  0.093131  2.5e-05  1.025709  0.0
H  H32  1  0.30347895  0.52341993  0.42597543  1  0.158371  -0.000544  0.953023  0.0  0.177067  -0.000304  1.011761  0.0  0.180475  -0.000309  1.00932  0.0  0.111074  0.174371  -0.000276  1.013744  0.0
H  H33  1  0.69652172  0.47658009  0.57402385  1  0.158349  -0.000544  0.953028  0.0  0.177042  -0.000304  1.011767  0.0  0.18045  -0.000309  1.009324  0.0  0.111058  0.174338  -0.000277  1.013763  0.0
H  H34  1  0.29974150  0.36033059  0.49438031  1  0.135717  -0.000538  0.925602  0.0  0.157789  -0.000102  0.979822  0.0  0.160211  -4.2e-05  0.979478  0.0  0.103808  0.155973  -0.000187  0.980194  0.0
H  H35  1  0.70025794  0.63967039  0.50561954  1  0.135698  -0.000538  0.925589  0.0  0.157771  -0.000102  0.979807  0.0  0.160192  -4.2e-05  0.979464  0.0  0.103802  0.155954  -0.000188  0.980179  0.0
H  H36  1  0.13873105  0.44050227  0.44955891  1  0.120019  -0.000586  0.936201  -0.001  0.139031  -0.000143  0.998293  0.0  0.142072  -7.9e-05  0.995955  0.0  0.098245  0.136714  -0.000272  1.000164  0.0
H  H37  1  0.86127076  0.55949776  0.55043961  1  0.120023  -0.000585  0.936136  -0.001  0.139026  -0.000143  0.99824  0.0  0.142067  -7.8e-05  0.995901  0.0  0.098255  0.136705  -0.000269  1.000111  0.0
H  H38  1  0.35328693  0.08174061  0.25260715  1  0.114764  0.000133  0.957956  0.0  0.12495  8.3e-05  1.016022  0.0  0.12744  5e-05  1.015953  0.0  0.107658  0.123089  0.000136  1.01627  0.0
H  H39  1  0.64670450  0.91826130  0.74739290  1  0.114725  0.000131  0.957974  0.0  0.124927  8.3e-05  1.016028  0.0  0.127417  5e-05  1.015958  0.0  0.10764  0.123064  0.000136  1.016276  0.0
H  H40  1  0.49377179  0.13479857  0.09959016  1  0.094731  -9.2e-05  0.959578  0.0  0.109034  3e-06  1.013239  0.0  0.111699  1e-06  1.012168  0.0  0.105604  0.107066  3e-06  1.01434  0.0
H  H41  1  0.50621985  0.86520142  0.90040966  1  0.094749  -8.9e-05  0.959493  0.0  0.109051  3e-06  1.013156  0.0  0.111715  1e-06  1.012086  0.0  0.105573  0.107082  3e-06  1.014257  0.0
H  H42  1  0.59844715  0.34454867  0.02459708  1  0.095354  -3.1e-05  0.950689  0.0  0.107777  -6.8e-05  1.008438  0.0  0.110648  -7e-05  1.007624  0.0  0.10219  0.105669  -5e-05  1.009091  0.0
H  H43  1  0.40154338  0.65545132  0.97540044  1  0.095416  -3.4e-05  0.950674  0.0  0.107822  -6.8e-05  1.008426  0.0  0.110692  -7e-05  1.007614  0.0  0.1022  0.105717  -5.2e-05  1.009075  0.0
H  H44  1  0.57257648  0.50865723  0.10440547  1  0.10774  0.000232  0.969952  0.0  0.115349  0.000484  1.037497  0.0  0.118056  0.000353  1.036687  0.0  0.105252  0.113374  0.000621  1.038321  0.0
H  H45  1  0.42741283  0.49134371  0.89559139  1  0.107815  0.000233  0.969872  0.0  0.115413  0.000484  1.037431  0.0  0.118121  0.000354  1.036622  0.0  0.105278  0.113434  0.000622  1.038262  0.0
H  H46  1  0.29322267  0.75802938  0.48372013  1  0.095177  0.000137  0.960812  0.0  0.10734  9.7e-05  1.018886  0.0  0.11078  2.8e-05  1.016595  0.0  0.101005  0.104728  0.00017  1.020636  0.0
H  H47  1  0.70678791  0.24197260  0.51628237  1  0.095119  0.000133  0.960838  0.0  0.107296  9.7e-05  1.018905  0.0  0.110735  2.9e-05  1.016616  0.0  0.100975  0.104684  0.000172  1.020658  0.0
H  H48  1  0.26039369  0.85764324  0.60515905  1  0.088079  2e-06  0.998996  0.0  0.095833  -1.1e-05  1.068046  0.0  0.09741  -1e-05  1.070108  0.0  0.094753  0.094875  -1.3e-05  1.066282  0.0
H  H49  1  0.73961467  0.14236928  0.39484026  1  0.088127  2e-06  0.999017  0.0  0.095865  -1.1e-05  1.068068  0.0  0.09744  -1e-05  1.07013  0.0  0.094773  0.094907  -1.2e-05  1.066309  0.0
H  H50  1  0.65367890  0.99233913  0.33252320  1  0.104337  2.1e-05  0.966899  0.0  0.113168  2.4e-05  1.033622  0.0  0.116646  5e-06  1.031683  0.0  0.104488  0.110477  4.3e-05  1.035342  0.0
H  H51  1  0.34632570  0.00766666  0.66747253  1  0.1044  2e-05  0.966729  0.0  0.113189  2.4e-05  1.033502  0.0  0.116699  5e-06  1.031528  0.0  0.104518  0.110496  4.2e-05  1.035235  0.0
H  H52  1  0.94810093  0.83447084  0.17080180  1  0.104531  8e-06  0.938297  0.0  0.113692  7e-06  1.001717  0.0  0.11736  -1.5e-05  0.999262  0.0  0.103593  0.111154  2.2e-05  1.003177  0.0
H  H53  1  0.05189799  0.16553493  0.82919770  1  0.104583  5e-06  0.93826  0.0  0.113719  7e-06  1.001709  0.0  0.117388  -1.5e-05  0.999252  0.0  0.103605  0.111182  2.1e-05  1.003168  0.0
H  H54  1  0.71977487  0.94419791  0.11093484  1  0.114119  -3.4e-05  0.955367  0.0  0.123892  -8.2e-05  1.017117  0.0  0.127234  -8.1e-05  1.015205  0.0  0.103707  0.121592  -8e-05  1.018475  0.0
H  H55  1  0.28022706  0.05580116  0.88906144  1  0.11406  -3.7e-05  0.955357  0.0  0.123811  -8.2e-05  1.017141  0.0  0.127153  -8e-05  1.01523  0.0  0.103677  0.121509  -8.1e-05  1.018498  0.0
H  H56  1  0.39184754  0.90994082  0.01499717  1  0.092448  0.000143  0.963758  0.0  0.105015  8.5e-05  1.022174  0.0  0.10855  9e-06  1.019682  0.0  0.099944  0.101557  0.00017  1.025921  0.0
H  H57  1  0.60815098  0.09005824  0.98500137  1  0.092437  0.000139  0.963687  0.0  0.104988  8.5e-05  1.022131  0.0  0.108504  8e-06  1.019663  0.0  0.099936  0.101533  0.000172  1.025879  0.0
C  C58  1  0.71376979  0.46193447  0.37058523  1  -0.393418  0.00053  3.701078  0.001  -0.475184  0.001129  3.938217  0.001  -0.480473  0.000931  3.943692  0.001  -0.230829  -0.471123  0.001318  3.934407  0.001
C  C59  1  0.28622974  0.53806555  0.62941542  1  -0.393392  0.000531  3.70103  0.001  -0.475179  0.001129  3.938154  0.001  -0.480468  0.00093  3.943632  0.001  -0.230827  -0.471115  0.00132  3.934348  0.001
C  C60  1  0.77586228  0.51836894  0.27607914  1  0.403291  -0.016466  3.681864  -0.011  0.382176  -0.002511  3.955727  -0.001  0.40291  -0.001912  3.967341  -0.001  0.231854  0.367706  -0.002822  3.947562  -0.001
C  C61  1  0.22413867  0.48162821  0.72392317  1  0.403249  -0.016456  3.681956  -0.011  0.382132  -0.00251  3.955773  -0.001  0.402864  -0.001908  3.96739  -0.001  0.23183  0.367655  -0.002816  3.947618  -0.001
C  C62  1  0.79563309  0.62457189  0.13673382  1  0.153175  -0.001254  3.826355  0.0  0.151811  0.001417  4.079882  0.002  0.155987  0.00093  4.103416  0.002  0.089084  0.148719  0.001904  4.064005  0.003
C  C63  1  0.20436511  0.37541950  0.86326640  1  0.153197  -0.001227  3.826176  0.0  0.151843  0.001416  4.079703  0.002  0.156016  0.00093  4.103239  0.002  0.089118  0.14875  0.001909  4.063827  0.003
C  C64  1  0.77101177  0.69989707  0.05390286  1  -0.137596  0.001456  3.739369  0.002  -0.156776  0.000379  3.989355  0.001  -0.159781  0.00024  4.009155  0.001  -0.087619  -0.154893  0.000388  3.976544  0.001
C  C65  1  0.22898838  0.30009720  0.94609772  1  -0.137611  0.001433  3.739364  0.002  -0.156801  0.000379  3.989375  0.001  -0.159808  0.00024  4.009182  0.001  -0.08762  -0.154913  0.000394  3.976562  0.001
C  C66  1  0.89495419  0.71207962  0.98439000  1  -0.073546  -0.002446  3.784369  -0.002  -0.090366  -0.000547  4.040006  0.0  -0.092524  -0.000462  4.062912  0.0  -0.096493  -0.088995  -0.000544  4.024977  0.0
C  C67  1  0.10504800  0.28791658  0.01561113  1  -0.073556  -0.0024  3.784481  -0.002  -0.090392  -0.000546  4.04014  0.0  -0.092548  -0.000461  4.063045  0.0  -0.096534  -0.089026  -0.000549  4.025108  0.0
C  C68  1  0.03916395  0.65158829  0.99685380  1  -0.060294  0.001283  3.78035  0.002  -0.0788  0.000148  4.038783  0.0  -0.080601  0.000127  4.062021  0.0  -0.093571  -0.077761  6.9e-05  4.023637  0.0
C  C69  1  0.96083805  0.34840982  0.00314573  1  -0.060245  0.00126  3.780402  0.002  -0.078765  0.000148  4.038844  0.0  -0.080566  0.000128  4.062083  0.0  -0.093535  -0.077728  6.8e-05  4.023696  0.0
C  C70  1  0.06474590  0.57402428  0.07868922  1  -0.14168  -0.001811  3.760461  -0.001  -0.161957  -0.0002  4.016757  0.0  -0.164922  -0.000235  4.03666  0.0  -0.093401  -0.159521  0.000118  4.003135  0.0
C  C71  1  0.93525547  0.42596904  0.92131202  1  -0.141679  -0.001764  3.760648  -0.001  -0.161987  -0.0002  4.016931  0.0  -0.164954  -0.000237  4.036836  0.0  -0.093365  -0.159553  0.000123  4.003312  0.0
C  C72  1  0.94017488  0.56134317  0.14808566  1  0.104025  0.002517  3.78124  0.004  0.093255  0.001199  4.02852  0.002  0.097431  0.000841  4.049509  0.001  0.093965  0.090207  0.001551  4.014406  0.002
C  C73  1  0.05982208  0.43864917  0.85191574  1  0.104061  0.002502  3.781128  0.004  0.093257  0.0012  4.028374  0.002  0.097434  0.000842  4.049364  0.001  0.093823  0.090209  0.001543  4.014259  0.002
C  C74  1  0.03424689  0.40356441  0.27948357  1  -0.018344  0.000268  3.668043  0.001  -0.084362  0.000232  3.920757  0.0  -0.079018  0.000174  3.931346  0.0  -0.041285  -0.088175  0.000413  3.913623  0.001
C  C75  1  0.96575292  0.59643274  0.72051949  1  -0.018372  0.000268  3.667958  0.001  -0.084404  0.000232  3.920656  0.0  -0.079075  0.000174  3.931248  0.0  -0.04128  -0.088209  0.000413  3.913526  0.001
C  C76  1  0.01261447  0.26471750  0.29146273  1  0.017778  1.2e-05  3.703472  0.0  0.030214  6.1e-05  3.946658  0.0  0.028606  5.2e-05  3.97149  0.0  -0.013438  0.031462  9.7e-05  3.929802  0.0
C  C77  1  0.98738761  0.73527966  0.70853943  1  0.017845  2e-06  3.703411  0.0  0.030216  6.1e-05  3.946664  0.0  0.028646  5.1e-05  3.971449  0.0  -0.013474  0.031434  9.9e-05  3.929842  0.0
C  C78  1  0.92569653  0.23514405  0.24121496  1  -0.115981  -9.7e-05  3.748676  0.0  -0.136313  -6.3e-05  3.999809  0.0  -0.138426  -7.1e-05  4.019967  0.0  -0.091157  -0.134687  -7.6e-05  3.98574  0.0
C  C79  1  0.07430545  0.76485406  0.75878640  1  -0.115938  -8.1e-05  3.748648  0.0  -0.136255  -6.3e-05  3.999779  0.0  -0.138379  -7e-05  4.019929  0.0  -0.091111  -0.134613  -8.2e-05  3.985723  0.0
C  C80  1  0.91501342  0.10854065  0.24511264  1  -0.059739  2.7e-05  3.75622  0.0  -0.073055  2e-05  4.006211  0.0  -0.073878  3.3e-05  4.025642  0.0  -0.083927  -0.072637  7.8e-05  3.99329  0.0
C  C81  1  0.08498866  0.89145650  0.75488952  1  -0.059775  1.7e-05  3.756202  0.0  -0.073055  2e-05  4.006181  0.0  -0.073882  3.3e-05  4.025619  0.0  -0.083948  -0.072642  9.3e-05  3.99326  0.0
C  C82  1  0.98858862  0.00850087  0.30192163  1  -0.061162  -4.9e-05  3.758951  0.0  -0.076805  -1.7e-05  4.009293  0.0  -0.078869  -4.2e-05  4.029841  0.0  -0.085607  -0.075474  7e-06  3.995782  0.0
C  C83  1  0.01141006  0.99149627  0.69808096  1  -0.06129  -3.3e-05  3.759124  0.0  -0.076936  -1.6e-05  4.009452  0.0  -0.079001  -4.2e-05  4.030001  0.0  -0.085684  -0.075602  5e-06  3.995943  0.0
C  C84  1  0.07156693  0.03692432  0.35430321  1  -0.11435  6.9e-05  3.76262  0.0  -0.132987  8e-05  4.00833  0.0  -0.135076  6.9e-05  4.030064  0.0  -0.091034  -0.131449  7e-05  3.993761  0.0
C  C85  1  0.92843082  0.96307091  0.64570114  1  -0.114337  6.1e-05  3.762675  0.0  -0.132972  8e-05  4.008394  0.0  -0.135062  6.9e-05  4.030131  0.0  -0.090941  -0.131438  7.4e-05  3.993819  0.0
C  C86  1  0.08608173  0.16363669  0.34945497  1  0.005093  -6.6e-05  3.732405  0.0  0.023221  4.4e-05  3.969897  0.0  0.021048  3e-06  3.99485  0.0  -0.016534  0.024451  8.5e-05  3.953046  0.0
C  C87  1  0.91391695  0.83636045  0.65054824  1  0.005125  -5e-05  3.732303  0.0  0.023276  4.5e-05  3.969776  0.0  0.021099  4e-06  3.99473  0.0  -0.016503  0.024519  6.9e-05  3.952933  0.0
C  C88  1  0.18869483  0.18690093  0.40303581  1  -0.015326  0.000542  3.642988  0.001  -0.082171  0.000446  3.894491  0.001  -0.076456  0.000347  3.904575  0.001  -0.044771  -0.086104  0.000617  3.887867  0.001
C  C89  1  0.81130489  0.81309717  0.59696583  1  -0.015538  0.000541  3.643106  0.001  -0.082286  0.000447  3.894539  0.001  -0.076602  0.000348  3.904663  0.001  -0.044819  -0.086221  0.000614  3.887914  0.001
C  C90  1  0.26366887  0.42989550  0.43620365  1  -0.398236  -0.000305  3.70334  0.001  -0.477439  -0.000132  3.941417  0.0  -0.482463  -0.000126  3.944294  0.0  -0.227316  -0.473561  -0.000149  3.939877  0.001
C  C91  1  0.73633191  0.57010357  0.56379522  1  -0.398158  -0.000305  3.703167  0.001  -0.477339  -0.000132  3.941245  0.0  -0.482361  -0.000126  3.944123  0.0  -0.227273  -0.473458  -0.000151  3.939716  0.001
C  C92  1  0.32632279  0.38849134  0.35631643  1  0.401583  -0.013018  3.688156  -0.008  0.376947  0.000621  3.972114  0.002  0.398217  0.000934  3.983944  0.002  0.23061  0.36163  -0.000724  3.9642  0.001
C  C93  1  0.67367572  0.61150772  0.64368333  1  0.401553  -0.013006  3.688156  -0.008  0.376927  0.000622  3.972164  0.002  0.398196  0.000935  3.983994  0.002  0.230541  0.361609  -0.00074  3.964246  0.001
C  C94  1  0.38264557  0.26755310  0.26471063  1  0.09316  0.002693  3.800887  0.004  0.084426  0.001336  4.044463  0.002  0.08795  0.001002  4.066675  0.002  0.085717  0.082122  0.00155  4.028778  0.002
C  C95  1  0.61734690  0.73244977  0.73528785  1  0.093119  0.002673  3.800647  0.004  0.084282  0.001336  4.044431  0.002  0.087804  0.001002  4.066648  0.002  0.085716  0.081983  0.001558  4.028745  0.002
C  C96  1  0.39880307  0.17444417  0.22141825  1  -0.137002  -0.00225  3.753499  -0.001  -0.156592  -0.000311  4.005081  0.0  -0.159069  -0.000391  4.024961  0.0  -0.092584  -0.154574  -0.000117  3.991357  0.0
C  C97  1  0.60118847  0.82555678  0.77858076  1  -0.136913  -0.002186  3.753468  -0.001  -0.15647  -0.000311  4.005082  0.0  -0.158947  -0.000391  4.024963  0.0  -0.092589  -0.15446  -0.000137  3.991358  0.0
C  C98  1  0.47837756  0.20543576  0.13500926  1  -0.054609  0.001612  3.762953  0.002  -0.070747  0.000289  4.013541  0.0  -0.071984  0.000249  4.034289  0.0  -0.088436  -0.070034  0.000431  3.999792  0.001
C  C99  1  0.52161277  0.79456614  0.86498849  1  -0.054671  0.001582  3.762923  0.002  -0.07082  0.00029  4.013505  0.0  -0.072057  0.000249  4.034253  0.0  -0.088378  -0.070104  0.000453  3.999756  0.001
C  C100  1  0.53946807  0.32454956  0.09292418  1  -0.080306  -0.003171  3.782874  -0.002  -0.093849  -0.000929  4.033453  0.0  -0.095586  -0.000836  4.054903  0.0  -0.096819  -0.092512  -0.000837  4.019287  0.0
C  C101  1  0.46052009  0.67545137  0.90707466  1  -0.080341  -0.003107  3.782928  -0.002  -0.093856  -0.000932  4.033469  0.0  -0.09559  -0.00084  4.054916  0.0  -0.096836  -0.092524  -0.000857  4.019309  0.0
C  C102  1  0.52590927  0.41629934  0.13683676  1  -0.147844  0.002206  3.746847  0.003  -0.168827  0.001236  3.999861  0.001  -0.17192  0.001  4.020282  0.001  -0.094744  -0.166797  0.001529  3.986145  0.002
C  C103  1  0.47407880  0.58370255  0.86316127  1  -0.147978  0.002176  3.746788  0.003  -0.168963  0.001237  3.999786  0.001  -0.17206  0.001001  4.02021  0.001  -0.094783  -0.166924  0.001541  3.986074  0.002
C  C104  1  0.44715622  0.38589606  0.22417133  1  0.139804  -0.003265  3.840281  -0.002  0.139019  0.000334  4.093439  0.001  0.142726  3.3e-05  4.11758  0.0  0.080139  0.136527  0.001009  4.076639  0.001
C  C105  1  0.55283636  0.61410585  0.77582613  1  0.139907  -0.003226  3.840071  -0.002  0.139183  0.000334  4.0932  0.001  0.142889  3.4e-05  4.11734  0.0  0.080185  0.136688  0.000985  4.076402  0.001
C  C106  1  0.47739006  0.86855243  0.40208447  1  -0.057242  0.002073  3.7816  0.003  -0.034941  0.000932  4.01549  0.001  -0.041176  0.000511  4.03631  0.001  -0.022208  -0.031707  0.001017  4.002993  0.002
C  C107  1  0.52261463  0.13145240  0.59791267  1  -0.057105  0.002026  3.781489  0.003  -0.034813  0.000933  4.015393  0.001  -0.041034  0.00051  4.036198  0.001  -0.022187  -0.031583  0.00102  4.0029  0.002
C  C108  1  0.36537465  0.83077462  0.47946778  1  -0.094043  -0.000187  3.785979  0.0  -0.117833  0.000193  4.038534  0.0  -0.117968  9.9e-05  4.056996  0.0  -0.095672  -0.117512  0.000547  4.026644  0.001
C  C109  1  0.63463247  0.16922831  0.52053252  1  -0.094049  -0.000102  3.786116  0.0  -0.117847  0.000193  4.038685  0.0  -0.117986  9.8e-05  4.057145  0.0  -0.09569  -0.117521  0.000545  4.026793  0.001
C  C110  1  0.34801727  0.88540847  0.54628035  1  -0.125254  -0.000239  3.7579  0.0  -0.145622  -0.000146  4.012904  0.0  -0.148056  -5.3e-05  4.033419  0.0  -0.096774  -0.144267  -0.000393  3.998999  0.0
C  C111  1  0.65199490  0.11460023  0.45371746  1  -0.125279  -0.000332  3.758025  0.0  -0.145619  -0.000146  4.013005  0.0  -0.148049  -5.1e-05  4.033517  0.0  -0.09674  -0.144265  -0.000393  3.999098  0.0
C  C112  1  0.44358505  0.98027694  0.53935137  1  0.053565  -4e-06  3.782788  0.0  0.068307  0.000119  4.015133  0.0  0.068296  8.8e-05  4.037507  0.0  -0.011263  0.068305  6.3e-05  4.000187  0.0
C  C113  1  0.55642510  0.01972983  0.46064405  1  0.053355  4.5e-05  3.782817  0.0  0.068097  0.000118  4.015178  0.0  0.068089  8.6e-05  4.037541  0.0  -0.011438  0.068097  6.2e-05  4.000232  0.0
C  C114  1  0.56979722  0.96259656  0.39289447  1  -0.113618  -0.000839  3.698342  0.0  -0.144996  0.000544  3.945401  0.001  -0.144712  0.000439  3.963534  0.001  -0.082009  -0.145501  -0.000273  3.934089  0.0
C  C115  1  0.43020944  0.03741115  0.60710059  1  -0.113731  -0.000744  3.698264  0.0  -0.145089  0.000544  3.945363  0.001  -0.144834  0.00044  3.963478  0.001  -0.08204  -0.145595  -0.00027  3.934063  0.0
C  C116  1  0.49539178  0.80746178  0.33028747  1  0.614613  -0.006763  3.93953  -0.006  0.574115  0.000454  4.233056  0.0  0.609374  0.000205  4.229036  0.0  0.193551  0.54889  0.000314  4.235137  -0.001
C  C117  1  0.50461000  0.19253825  0.66971350  1  0.614573  -0.006754  3.939662  -0.006  0.574079  0.000455  4.233187  0.0  0.609333  0.000204  4.229171  0.0  0.193532  0.548855  0.000324  4.235268  -0.001
C  C118  1  0.17573171  0.86192697  0.09923825  1  -0.066513  0.002728  3.789904  0.004  -0.042023  0.001147  4.019661  0.001  -0.0492  0.000574  4.042366  0.001  -0.024078  -0.037545  0.001676  4.004309  0.002
C  C119  1  0.82426876  0.13807497  0.90076065  1  -0.066625  0.002671  3.789948  0.004  -0.042125  0.001142  4.019704  0.001  -0.049302  0.000572  4.042406  0.001  -0.024112  -0.037643  0.001679  4.004353  0.002
C  C120  1  0.01971262  0.88465752  0.10957587  1  -0.107174  -0.000892  3.707087  0.0  -0.141141  0.000487  3.960425  0.001  -0.141872  0.000352  3.981067  0.0  -0.079322  -0.139432  0.00065  3.945559  0.001
C  C121  1  0.98029000  0.11534539  0.89042377  1  -0.107142  -0.000767  3.707091  0.0  -0.141088  0.000494  3.960403  0.001  -0.141816  0.000354  3.981045  0.0  -0.079294  -0.139378  0.000647  3.945537  0.001
C  C122  1  0.95219474  0.96935997  0.04079633  1  0.05681  0.000337  3.785654  0.001  0.07333  0.000288  4.014289  0.0  0.072663  0.000176  4.039378  0.0  -0.006229  0.073456  0.000434  3.99759  0.001
C  C123  1  0.04780665  0.03064389  0.95920204  1  0.056738  0.000288  3.785754  0.001  0.073297  0.000288  4.01435  0.0  0.072621  0.000178  4.039446  0.0  -0.006218  0.073424  0.000439  3.99765  0.001
C  C124  1  0.79220729  0.99262616  0.04937652  1  -0.12042  -0.000234  3.74608  0.0  -0.14022  -0.000134  3.999329  0.0  -0.143801  -0.000115  4.021357  0.0  -0.090415  -0.137263  -8.4e-05  3.98412  0.0
C  C125  1  0.20779472  0.00737195  0.95062239  1  -0.120294  -0.000108  3.746038  0.0  -0.140084  -0.000139  3.999282  0.0  -0.143661  -0.000119  4.021315  0.0  -0.090382  -0.137129  -7.1e-05  3.984068  0.0
C  C126  1  0.26954733  0.92643977  0.01950360  1  -0.082684  0.000171  3.766662  0.0  -0.106963  0.000498  4.016243  0.001  -0.107705  0.000301  4.037038  0.0  -0.094019  -0.106426  0.00073  4.00325  0.001
C  C127  1  0.73045335  0.07356026  0.98049446  1  -0.082591  0.00026  3.766547  0.0  -0.106856  0.000497  4.016132  0.001  -0.107583  0.0003  4.036934  0.0  -0.093991  -0.106327  0.000731  4.003141  0.001
C  C128  1  0.24617743  0.76702865  0.17022292  1  0.624324  -0.006732  3.91896  -0.006  0.586058  0.00113  4.213284  0.0  0.622433  0.000597  4.209556  0.0  0.194098  0.560156  0.001859  4.214339  0.0
C  C129  1  0.75382869  0.23297331  0.82977526  1  0.624273  -0.006725  3.918917  -0.006  0.585981  0.00113  4.21327  0.0  0.622353  0.000596  4.209545  0.0  0.194033  0.560076  0.001865  4.214326  0.0
N  N130  1  0.69670007  0.59596736  0.21788427  1  -0.47697  0.040942  3.243242  0.064  -0.443939  0.030488  3.551181  0.039  -0.474377  0.024538  3.560641  0.03  -0.359281  -0.421574  0.03578  3.544464  0.045
N  N131  1  0.30329761  0.40402882  0.78211683  1  -0.476905  0.040937  3.243347  0.064  -0.443914  0.030487  3.551317  0.039  -0.474342  0.024536  3.560772  0.03  -0.359263  -0.421542  0.035778  3.544597  0.045
N  N132  1  0.92309083  0.49459968  0.23700064  1  -0.163614  0.00033  3.493434  0.002  -0.08207  0.001319  3.712691  0.003  -0.098325  0.000995  3.733075  0.002  -0.244013  -0.07114  0.00149  3.698851  0.003
N  N133  1  0.07690922  0.50539555  0.76299914  1  -0.163709  0.000332  3.493462  0.002  -0.082034  0.001319  3.712547  0.003  -0.098287  0.000995  3.732936  0.002  -0.243943  -0.071102  0.001491  3.69871  0.003
N  N134  1  0.41122178  0.45805293  0.28353455  1  -0.48104  0.038529  3.250049  0.06  -0.447613  0.029264  3.562205  0.036  -0.477555  0.023658  3.57094  0.029  -0.360866  -0.426233  0.03416  3.556953  0.042
N  N135  1  0.58877305  0.54194899  0.71646384  1  -0.481162  0.038523  3.250075  0.06  -0.447703  0.029265  3.562203  0.036  -0.477634  0.023659  3.570925  0.029  -0.360884  -0.426312  0.034164  3.556936  0.042
N  N136  1  0.30511600  0.27250746  0.34784382  1  -0.18469  -0.000231  3.452262  0.001  -0.102192  0.001169  3.675173  0.002  -0.119853  0.000916  3.697695  0.002  -0.243952  -0.090034  0.001538  3.659689  0.003
N  N137  1  0.69488139  0.72749159  0.65215547  1  -0.184518  -0.000228  3.452142  0.001  -0.102118  0.001168  3.675214  0.002  -0.119776  0.000915  3.697756  0.002  -0.243897  -0.089956  0.001537  3.659728  0.003
O  O138  1  0.43428158  0.69865662  0.35353520  1  -0.65017  0.05469  2.075507  0.091  -0.612735  0.038786  2.350925  0.058  -0.656594  0.028453  2.33981  0.042  -0.338347  -0.577847  0.048875  2.356561  0.073
O  O139  1  0.56572162  0.30134054  0.64646804  1  -0.650142  0.054685  2.075676  0.091  -0.612701  0.038785  2.351105  0.058  -0.656551  0.028455  2.339983  0.042  -0.33833  -0.577801  0.04887  2.356734  0.073
O  O140  1  0.56464919  0.85851246  0.25449992  1  -0.582882  0.00799  1.897094  0.014  -0.54671  0.009624  2.113561  0.016  -0.572164  0.006782  2.10674  0.012  -0.308766  -0.528056  0.012989  2.117892  0.021
O  O141  1  0.43534860  0.14148276  0.74549953  1  -0.582897  0.007983  1.897081  0.014  -0.546706  0.009622  2.113526  0.016  -0.57216  0.00678  2.10671  0.012  -0.308739  -0.528053  0.012987  2.117859  0.021
O  O142  1  0.17070991  0.71653073  0.24489209  1  -0.614847  0.009968  1.849337  0.017  -0.585028  0.011237  2.061798  0.019  -0.612249  0.007758  2.054973  0.014  -0.337918  -0.564405  0.015217  2.065437  0.025
O  O143  1  0.82930011  0.28346646  0.75510540  1  -0.614855  0.009959  1.849244  0.017  -0.585029  0.011236  2.06172  0.019  -0.612248  0.007757  2.054893  0.014  -0.337949  -0.56441  0.015218  2.06536  0.025
O  O144  1  0.39276808  0.74083444  0.14814395  1  -0.631538  0.06642  2.047969  0.11  -0.599378  0.046419  2.332023  0.07  -0.646144  0.033299  2.320786  0.049  -0.336951  -0.561567  0.05906  2.33723  0.089
O  O145  1  0.60724071  0.25917424  0.85185307  1  -0.631477  0.066415  2.047989  0.11  -0.5993  0.046419  2.332072  0.07  -0.646055  0.033299  2.32083  0.049  -0.33686  -0.561474  0.059063  2.337262  0.089
