# generated using pymatgen
data_ZnH6C4(SN4)2
_symmetry_space_group_name_H-M   'P 1'
_cell_length_a   10.02886380
_cell_length_b   10.02883001
_cell_length_c   12.11468408
_cell_angle_alpha   67.75113387
_cell_angle_beta   67.75091173
_cell_angle_gamma   84.72605384
_symmetry_Int_Tables_number   1
_chemical_formula_structural   ZnH6C4(SN4)2
_chemical_formula_sum   'Zn4 H24 C16 S8 N32'
_cell_volume   1041.90170131
_cell_formula_units_Z   4
loop_
 _symmetry_equiv_pos_site_id
 _symmetry_equiv_pos_as_xyz
  1  'x, y, z'
loop_
 _atom_site_type_symbol
 _atom_site_label
 _atom_site_symmetry_multiplicity
 _atom_site_fract_x
 _atom_site_fract_y
 _atom_site_fract_z
 _atom_site_occupancy
 _atom_site_hle17_bader_spin_density
 _atom_site_hle17_ddec_charge
 _atom_site_hle17_ddec_spin_density
 _atom_site_hle17_ddec_sum_bond_order
 _atom_site_hle17_magmom
 _atom_site_hse06_10hf_bader_spin_density
 _atom_site_hse06_10hf_ddec_charge
 _atom_site_hse06_10hf_ddec_spin_density
 _atom_site_hse06_10hf_ddec_sum_bond_order
 _atom_site_hse06_10hf_magmom
 _atom_site_hse06_bader_spin_density
 _atom_site_hse06_ddec_charge
 _atom_site_hse06_ddec_spin_density
 _atom_site_hse06_ddec_sum_bond_order
 _atom_site_hse06_magmom
 _atom_site_pbe_bader_spin_density
 _atom_site_pbe_cm5_charge
 _atom_site_pbe_ddec_charge
 _atom_site_pbe_ddec_spin_density
 _atom_site_pbe_ddec_sum_bond_order
 _atom_site_pbe_magmom
Zn  Zn0  1  0.33965612  0.96765413  0.67185827  1  0  0.74059  0  2.163364  0  0  0.574925  0  2.641802  0  0  0.609452  0  2.603842  0  0  0.57176  0.550794  0  2.668301  0
Zn  Zn1  1  0.03234553  0.66034239  0.82814312  1  0  0.740574  0  2.163385  0  0  0.574941  0  2.641824  0  0  0.609428  0  2.60384  0  0  0.571766  0.550798  0  2.66832  0
Zn  Zn2  1  0.66034173  0.03234398  0.32814417  1  0  0.740593  0  2.163355  0  0  0.574955  0  2.64177  0  0  0.60947  0  2.603798  0  0  0.571768  0.550816  0  2.66826  0
Zn  Zn3  1  0.96765340  0.33965572  0.17185733  1  0  0.740577  0  2.163425  0  0  0.574945  0  2.641872  0  0  0.609429  0  2.603892  0  0  0.57176  0.550798  0  2.668369  0
H  H4  1  0.24215338  0.51168880  0.40032805  1  0  0.125592  0  0.927111  0  0  0.142772  0  0.993029  0  0  0.144413  0  0.990939  0  0  0.119692  0.141462  0  0.994375  0
H  H5  1  0.48831395  0.75784677  0.09967025  1  0  0.1256  0  0.927114  0  0  0.142781  0  0.993038  0  0  0.14442  0  0.990947  0  0  0.119706  0.141469  0  0.994385  0
H  H6  1  0.75785125  0.48831472  0.59967055  1  0  0.125578  0  0.927098  0  0  0.142762  0  0.99302  0  0  0.144402  0  0.990929  0  0  0.119696  0.141451  0  0.994366  0
H  H7  1  0.51168922  0.24215027  0.90032508  1  0  0.12554  0  0.927133  0  0  0.142726  0  0.993052  0  0  0.144367  0  0.990963  0  0  0.119674  0.141415  0  0.994399  0
H  H8  1  0.35694267  0.50216910  0.48600167  1  0  0.121178  0  0.934118  0  0  0.135106  0  1.008437  0  0  0.135736  0  1.008251  0  0  0.10848  0.133889  0  1.009663  0
H  H9  1  0.49783501  0.64305894  0.01399467  1  0  0.12117  0  0.934141  0  0  0.135103  0  1.008451  0  0  0.135734  0  1.008265  0  0  0.108475  0.133888  0  1.009679  0
H  H10  1  0.64306190  0.49783333  0.51399564  1  0  0.121191  0  0.934083  0  0  0.135116  0  1.008406  0  0  0.135745  0  1.008221  0  0  0.108479  0.1339  0  1.009631  0
H  H11  1  0.50216822  0.35693918  0.98600112  1  0  0.121167  0  0.934094  0  0  0.135099  0  1.008411  0  0  0.13573  0  1.008225  0  0  0.108481  0.133883  0  1.009636  0
H  H12  1  0.21163345  0.37003241  0.55373634  1  0  0.114707  0  0.931772  0  0  0.139628  0  0.990202  0  0  0.139328  0  0.991147  0  0  0.10989  0.139714  0  0.98954  0
H  H13  1  0.62997284  0.78836738  0.94626244  1  0  0.11467  0  0.931741  0  0  0.139587  0  0.990186  0  0  0.139284  0  0.991132  0  0  0.109865  0.139681  0  0.989515  0
H  H14  1  0.78836922  0.62997435  0.44626187  1  0  0.114639  0  0.931781  0  0  0.139582  0  0.990194  0  0  0.139278  0  0.99114  0  0  0.10985  0.139661  0  0.98954  0
H  H15  1  0.37002932  0.21163073  0.05373452  1  0  0.114673  0  0.931777  0  0  0.139597  0  0.990204  0  0  0.139296  0  0.991151  0  0  0.109863  0.139691  0  0.989533  0
H  H16  1  0.23843744  0.94026808  0.23321274  1  0  0.118393  0  0.963071  0  0  0.129909  0  1.039612  0  0  0.132115  0  1.03722  0  0  0.112532  0.12829  0  1.041171  0
H  H17  1  0.05973029  0.76156431  0.26678731  1  0  0.118383  0  0.963104  0  0  0.129907  0  1.039645  0  0  0.132113  0  1.037254  0  0  0.11253  0.128288  0  1.041203  0
H  H18  1  0.76156289  0.05973543  0.76678805  1  0  0.118411  0  0.963039  0  0  0.129929  0  1.039582  0  0  0.132138  0  1.037187  0  0  0.112528  0.128312  0  1.041137  0
H  H19  1  0.94026668  0.23843704  0.73321273  1  0  0.118375  0  0.963095  0  0  0.129884  0  1.039641  0  0  0.132092  0  1.037248  0  0  0.112519  0.128267  0  1.041196  0
H  H20  1  0.33573289  0.02035909  0.29255967  1  0  0.114754  0  0.949542  0  0  0.130503  0  1.021193  0  0  0.131271  0  1.021029  0  0  0.104076  0.129714  0  1.021755  0
H  H21  1  0.97964061  0.66426801  0.20744230  1  0  0.114709  0  0.949585  0  0  0.130475  0  1.021233  0  0  0.131234  0  1.021079  0  0  0.104053  0.129686  0  1.021796  0
H  H22  1  0.66426624  0.97964226  0.70744217  1  0  0.114747  0  0.949535  0  0  0.130488  0  1.0212  0  0  0.131253  0  1.02104  0  0  0.104069  0.1297  0  1.021761  0
H  H23  1  0.02035851  0.33573334  0.79255955  1  0  0.114757  0  0.94955  0  0  0.130502  0  1.021201  0  0  0.131276  0  1.021032  0  0  0.104071  0.129714  0  1.021762  0
H  H24  1  0.16031391  0.07765499  0.29550835  1  0  0.109715  0  0.944023  0  0  0.12668  0  1.014406  0  0  0.127285  0  1.014641  0  0  0.100377  0.126076  0  1.01443  0
H  H25  1  0.92234607  0.83968653  0.20449133  1  0  0.109704  0  0.944036  0  0  0.126675  0  1.014424  0  0  0.127281  0  1.014656  0  0  0.100379  0.126071  0  1.014445  0
H  H26  1  0.83968635  0.92234745  0.70449362  1  0  0.109685  0  0.944074  0  0  0.126654  0  1.014458  0  0  0.127258  0  1.014694  0  0  0.100388  0.126052  0  1.014477  0
H  H27  1  0.07765286  0.16031159  0.79550911  1  0  0.109678  0  0.94407  0  0  0.126646  0  1.014454  0  0  0.127251  0  1.014689  0  0  0.10038  0.126043  0  1.014476  0
C  C28  1  0.46791779  0.24395367  0.44125283  1  0  0.283731  0  3.83627  0  0  0.232567  0  4.125079  0  0  0.252111  0  4.138217  0  0  0.217631  0.220466  0  4.116043  0
C  C29  1  0.75604628  0.53208081  0.05874749  1  0  0.283685  0  3.836306  0  0  0.232497  0  4.125143  0  0  0.252048  0  4.138277  0  0  0.217596  0.220396  0  4.116104  0
C  C30  1  0.53208019  0.75604661  0.55874971  1  0  0.283737  0  3.836371  0  0  0.232577  0  4.125138  0  0  0.252126  0  4.138271  0  0  0.217624  0.220475  0  4.116101  0
C  C31  1  0.24395366  0.46791622  0.94125215  1  0  0.283643  0  3.836423  0  0  0.232506  0  4.125166  0  0  0.252047  0  4.138301  0  0  0.217598  0.220406  0  4.11613  0
C  C32  1  0.29357747  0.43950644  0.46386487  1  0  -0.181304  0  3.635234  0  0  -0.304606  0  3.886941  0  0  -0.298973  0  3.895001  0  0  -0.123996  -0.306532  0  3.881842  0
C  C33  1  0.56049731  0.70642255  0.03613373  1  0  -0.181278  0  3.635273  0  0  -0.304586  0  3.886982  0  0  -0.298941  0  3.895043  0  0  -0.12398  -0.306515  0  3.881878  0
C  C34  1  0.70642507  0.56049816  0.53613405  1  0  -0.181232  0  3.635283  0  0  -0.304563  0  3.88697  0  0  -0.298924  0  3.895041  0  0  -0.123974  -0.30648  0  3.88187  0
C  C35  1  0.43950478  0.29357449  0.96386276  1  0  -0.181158  0  3.635198  0  0  -0.304484  0  3.886918  0  0  -0.298847  0  3.894966  0  0  -0.123924  -0.306414  0  3.881813  0
C  C36  1  0.14529227  0.87917950  0.54674243  1  0  0.29021  0  3.815566  0  0  0.237066  0  4.109335  0  0  0.254881  0  4.122171  0  0  0.220112  0.224819  0  4.101698  0
C  C37  1  0.12082224  0.85470482  0.95325730  1  0  0.290134  0  3.815632  0  0  0.237063  0  4.109256  0  0  0.254877  0  4.122098  0  0  0.220153  0.224817  0  4.101618  0
C  C38  1  0.85470685  0.12082185  0.45325776  1  0  0.290122  0  3.815596  0  0  0.23703  0  4.109258  0  0  0.254844  0  4.122098  0  0  0.220148  0.224788  0  4.101615  0
C  C39  1  0.87917668  0.14529329  0.04674397  1  0  0.290124  0  3.815565  0  0  0.237009  0  4.10927  0  0  0.254824  0  4.122108  0  0  0.220107  0.224766  0  4.101627  0
C  C40  1  0.22882306  0.98547273  0.30493380  1  0  -0.183236  0  3.623388  0  0  -0.298539  0  3.865165  0  0  -0.2954  0  3.872423  0  0  -0.130687  -0.300163  0  3.860641  0
C  C41  1  0.01452491  0.77117562  0.19507002  1  0  -0.183113  0  3.623366  0  0  -0.298488  0  3.865196  0  0  -0.295338  0  3.872455  0  0  -0.130664  -0.30011  0  3.860669  0
C  C42  1  0.77117499  0.01452863  0.69506838  1  0  -0.183166  0  3.623304  0  0  -0.298503  0  3.865092  0  0  -0.295358  0  3.872345  0  0  -0.130669  -0.300124  0  3.860563  0
C  C43  1  0.98547307  0.22882465  0.80493252  1  0  -0.183156  0  3.62338  0  0  -0.298466  0  3.86513  0  0  -0.295335  0  3.872385  0  0  -0.130669  -0.30009  0  3.860603  0
S  S44  1  0.47653439  0.18377055  0.59062507  1  0  -0.388251  0  2.09402  0  0  -0.363558  0  2.459238  0  0  -0.378337  0  2.447891  0  0  -0.187457  -0.353409  0  2.4679  0
S  S45  1  0.81622931  0.52346515  0.90937407  1  0  -0.388212  0  2.094006  0  0  -0.36352  0  2.459237  0  0  -0.378289  0  2.447877  0  0  -0.18743  -0.353368  0  2.467897  0
S  S46  1  0.52346347  0.81622756  0.40937736  1  0  -0.388219  0  2.093999  0  0  -0.363553  0  2.459233  0  0  -0.37833  0  2.447883  0  0  -0.187445  -0.353408  0  2.467894  0
S  S47  1  0.18377171  0.47653188  0.09062523  1  0  -0.388227  0  2.093997  0  0  -0.36356  0  2.459209  0  0  -0.378329  0  2.447851  0  0  -0.18746  -0.353407  0  2.46787  0
S  S48  1  0.17941308  0.03010838  0.56720017  1  0  -0.404318  0  2.187109  0  0  -0.383783  0  2.575168  0  0  -0.39896  0  2.566549  0  0  -0.193576  -0.372398  0  2.581595  0
S  S49  1  0.96989101  0.82058355  0.93280279  1  0  -0.404286  0  2.187158  0  0  -0.383793  0  2.575182  0  0  -0.398954  0  2.566547  0  0  -0.193567  -0.372407  0  2.581618  0
S  S50  1  0.82058699  0.96989081  0.43280123  1  0  -0.404303  0  2.187093  0  0  -0.383805  0  2.575133  0  0  -0.398973  0  2.566506  0  0  -0.193576  -0.372418  0  2.581563  0
S  S51  1  0.03010791  0.17941456  0.06719848  1  0  -0.404268  0  2.187086  0  0  -0.383755  0  2.575137  0  0  -0.398916  0  2.566504  0  0  -0.193551  -0.372364  0  2.581566  0
N  N52  1  0.38653321  0.35171506  0.39802233  1  0  0.023846  0  3.544988  0  0  0.150474  0  3.72963  0  0  0.132634  0  3.758277  0  0  -0.124507  0.15902  0  3.713692  0
N  N53  1  0.64828746  0.61346857  0.10197574  1  0  0.02386  0  3.544943  0  0  0.150516  0  3.729555  0  0  0.132656  0  3.758222  0  0  -0.124496  0.15906  0  3.713619  0
N  N54  1  0.61346908  0.64828522  0.60197803  1  0  0.023802  0  3.54504  0  0  0.150486  0  3.729594  0  0  0.132635  0  3.758247  0  0  -0.124479  0.159033  0  3.713652  0
N  N55  1  0.35171261  0.38653062  0.89802071  1  0  0.023904  0  3.545085  0  0  0.150566  0  3.729653  0  0  0.13273  0  3.7583  0  0  -0.124442  0.15911  0  3.713719  0
N  N56  1  0.40314449  0.37112528  0.27667593  1  0  -0.081358  0  2.870625  0  0  -0.098492  0  3.156602  0  0  -0.094045  0  3.166292  0  0  -0.069494  -0.099676  0  3.150138  0
N  N57  1  0.62887619  0.59685780  0.22332232  1  0  -0.081362  0  2.870615  0  0  -0.098507  0  3.156591  0  0  -0.094051  0  3.166283  0  0  -0.069519  -0.099689  0  3.150126  0
N  N58  1  0.59685565  0.62887499  0.72332594  1  0  -0.081342  0  2.870664  0  0  -0.098508  0  3.156639  0  0  -0.094056  0  3.166329  0  0  -0.069499  -0.099691  0  3.150175  0
N  N59  1  0.37112394  0.40314247  0.77667459  1  0  -0.081409  0  2.87064  0  0  -0.098573  0  3.156624  0  0  -0.094127  0  3.166313  0  0  -0.069543  -0.099754  0  3.150159  0
N  N60  1  0.49248857  0.27870406  0.24411787  1  0  -0.043326  0  2.934401  0  0  -0.046751  0  3.245979  0  0  -0.043976  0  3.256031  0  0  -0.079604  -0.048111  0  3.238786  0
N  N61  1  0.72129588  0.50751244  0.25588172  1  0  -0.043297  0  2.934355  0  0  -0.046715  0  3.245932  0  0  -0.043941  0  3.255979  0  0  -0.079578  -0.048075  0  3.238739  0
N  N62  1  0.50750929  0.72129406  0.75588539  1  0  -0.043349  0  2.93457  0  0  -0.046766  0  3.246146  0  0  -0.043992  0  3.256197  0  0  -0.079625  -0.048124  0  3.238954  0
N  N63  1  0.27870210  0.49248783  0.74411752  1  0  -0.043347  0  2.934461  0  0  -0.046761  0  3.246036  0  0  -0.043987  0  3.256087  0  0  -0.079618  -0.048119  0  3.238841  0
N  N64  1  0.53536207  0.19918293  0.34280578  1  0  -0.337151  0  3.252874  0  0  -0.266465  0  3.57109  0  0  -0.285961  0  3.582228  0  0  -0.249798  -0.253408  0  3.563338  0
N  N65  1  0.80081735  0.46463693  0.15719408  1  0  -0.337161  0  3.252883  0  0  -0.266481  0  3.571115  0  0  -0.285967  0  3.582238  0  0  -0.249799  -0.25342  0  3.563362  0
N  N66  1  0.46463571  0.80081411  0.65719784  1  0  -0.337138  0  3.253097  0  0  -0.266462  0  3.571298  0  0  -0.285962  0  3.582443  0  0  -0.249798  -0.253407  0  3.56355  0
N  N67  1  0.19918367  0.53536011  0.84280604  1  0  -0.337119  0  3.252946  0  0  -0.266454  0  3.571155  0  0  -0.285941  0  3.582281  0  0  -0.249793  -0.253395  0  3.563401  0
N  N68  1  0.16504367  0.87374541  0.43131913  1  0  0.0234  0  3.548039  0  0  0.149986  0  3.731066  0  0  0.137092  0  3.755481  0  0  -0.125504  0.157305  0  3.717484  0
N  N69  1  0.12625465  0.83495300  0.06868447  1  0  0.023363  0  3.547935  0  0  0.149986  0  3.730891  0  0  0.137093  0  3.755304  0  0  -0.125505  0.157302  0  3.717319  0
N  N70  1  0.83495552  0.12625702  0.56868153  1  0  0.023433  0  3.547952  0  0  0.150065  0  3.730875  0  0  0.137173  0  3.75529  0  0  -0.125463  0.15736  0  3.71734  0
N  N71  1  0.87374206  0.16504404  0.93131866  1  0  0.023445  0  3.547882  0  0  0.150066  0  3.730836  0  0  0.137172  0  3.755256  0  0  -0.125457  0.157366  0  3.717294  0
N  N72  1  0.11915828  0.74173123  0.44883812  1  0  -0.092436  0  2.882791  0  0  -0.100896  0  3.158334  0  0  -0.099817  0  3.167822  0  0  -0.063154  -0.101327  0  3.152823  0
N  N73  1  0.25826998  0.88084059  0.05116178  1  0  -0.092395  0  2.882761  0  0  -0.100891  0  3.15832  0  0  -0.09981  0  3.167803  0  0  -0.063142  -0.10132  0  3.152807  0
N  N74  1  0.88083983  0.25827120  0.55116205  1  0  -0.092454  0  2.882789  0  0  -0.10095  0  3.158353  0  0  -0.09987  0  3.167839  0  0  -0.063168  -0.101374  0  3.152842  0
N  N75  1  0.74172794  0.11915860  0.94883947  1  0  -0.092464  0  2.882738  0  0  -0.100946  0  3.158297  0  0  -0.099868  0  3.167787  0  0  -0.063157  -0.101372  0  3.152784  0
N  N76  1  0.07296408  0.66630147  0.57103386  1  0  -0.032164  0  2.912931  0  0  -0.034307  0  3.210048  0  0  -0.030423  0  3.219069  0  0  -0.074108  -0.036654  0  3.204243  0
N  N77  1  0.33370014  0.92703501  0.92896583  1  0  -0.032179  0  2.912948  0  0  -0.034325  0  3.210069  0  0  -0.03044  0  3.219091  0  0  -0.074092  -0.036669  0  3.204262  0
N  N78  1  0.92703511  0.33370097  0.42896597  1  0  -0.032169  0  2.912907  0  0  -0.034313  0  3.210037  0  0  -0.030428  0  3.219057  0  0  -0.074104  -0.036659  0  3.204228  0
N  N79  1  0.66629885  0.07296419  0.07103425  1  0  -0.032149  0  2.912882  0  0  -0.034296  0  3.210013  0  0  -0.030412  0  3.219038  0  0  -0.074114  -0.036641  0  3.204203  0
N  N80  1  0.08704246  0.74749248  0.63437269  1  0  -0.32258  0  3.222005  0  0  -0.252228  0  3.534328  0  0  -0.270429  0  3.543993  0  0  -0.242674  -0.239878  0  3.527937  0
N  N81  1  0.25250893  0.91295559  0.86562753  1  0  -0.322567  0  3.222099  0  0  -0.252221  0  3.534372  0  0  -0.270435  0  3.54406  0  0  -0.242738  -0.239873  0  3.527985  0
N  N82  1  0.91295774  0.25250888  0.36562799  1  0  -0.322577  0  3.222054  0  0  -0.25224  0  3.534353  0  0  -0.270446  0  3.544025  0  0  -0.242758  -0.239889  0  3.527958  0
N  N83  1  0.74748993  0.08704145  0.13437327  1  0  -0.322569  0  3.221976  0  0  -0.252229  0  3.534286  0  0  -0.270439  0  3.543964  0  0  -0.242716  -0.239878  0  3.527891  0
