# generated using pymatgen
data_Zn3H8C16(NO7)2
_symmetry_space_group_name_H-M   'P 1'
_cell_length_a   6.21393404
_cell_length_b   8.88554940
_cell_length_c   8.88548837
_cell_angle_alpha   70.49647806
_cell_angle_beta   88.07247866
_cell_angle_gamma   88.07341495
_symmetry_Int_Tables_number   1
_chemical_formula_structural   Zn3H8C16(NO7)2
_chemical_formula_sum   'Zn3 H8 C16 N2 O14'
_cell_volume   462.06262399
_cell_formula_units_Z   1
loop_
 _symmetry_equiv_pos_site_id
 _symmetry_equiv_pos_as_xyz
  1  'x, y, z'
loop_
 _atom_site_type_symbol
 _atom_site_label
 _atom_site_symmetry_multiplicity
 _atom_site_fract_x
 _atom_site_fract_y
 _atom_site_fract_z
 _atom_site_occupancy
 _atom_site_hle17_bader_spin_density
 _atom_site_hle17_ddec_charge
 _atom_site_hle17_ddec_spin_density
 _atom_site_hle17_ddec_sum_bond_order
 _atom_site_hle17_magmom
 _atom_site_hse06_10hf_bader_spin_density
 _atom_site_hse06_10hf_ddec_charge
 _atom_site_hse06_10hf_ddec_spin_density
 _atom_site_hse06_10hf_ddec_sum_bond_order
 _atom_site_hse06_10hf_magmom
 _atom_site_hse06_bader_spin_density
 _atom_site_hse06_ddec_charge
 _atom_site_hse06_ddec_spin_density
 _atom_site_hse06_ddec_sum_bond_order
 _atom_site_hse06_magmom
 _atom_site_pbe_bader_spin_density
 _atom_site_pbe_cm5_charge
 _atom_site_pbe_ddec_charge
 _atom_site_pbe_ddec_spin_density
 _atom_site_pbe_ddec_sum_bond_order
 _atom_site_pbe_magmom
Zn  Zn0  1  0.50001083  0.14531705  0.85467926  1  0  1.209416  0  1.705434  0  0  1.039353  0  2.181376  0  0  1.08926  0  2.114803  0  0  0.682853  1.003833  0  2.227762  0
Zn  Zn1  1  0.49999363  0.85468329  0.14531760  1  0  1.20937  0  1.705386  0  0  1.039341  0  2.181331  0  0  1.089251  0  2.114756  0  0  0.682806  1.003812  0  2.227718  0
Zn  Zn2  1  0.99999801  0.00000037  0.99999811  1  0  1.219261  0  1.716776  0  0  1.074726  0  2.155635  0  0  1.122269  0  2.093315  0  0  0.665789  1.040951  0  2.198713  0
H  H3  1  0.29487394  0.11692194  0.11691551  1  0  0.431099  0  0.848549  0  0  0.397116  0  0.92817  0  0  0.408618  0  0.911016  0  0  0.3001  0.388783  0  0.938883  0
H  H4  1  0.70512094  0.88307600  0.88308012  1  0  0.431035  0  0.848628  0  0  0.397053  0  0.928252  0  0  0.408556  0  0.911098  0  0  0.30011  0.388721  0  0.938958  0
H  H5  1  0.77175741  0.09640910  0.51765829  1  0  0.134727  0  0.936919  0  0  0.13794  0  1.006718  0  0  0.142203  0  1.00222  0  0  0.119794  0.13483  0  1.009968  0
H  H6  1  0.77175013  0.51763363  0.09643123  1  0  0.134791  0  0.936772  0  0  0.13797  0  1.006611  0  0  0.142232  0  1.002094  0  0  0.119795  0.134867  0  1.009862  0
H  H7  1  0.22824563  0.90358295  0.48234708  1  0  0.13481  0  0.936852  0  0  0.137977  0  1.006695  0  0  0.142236  0  1.002204  0  0  0.119822  0.134868  0  1.009945  0
H  H8  1  0.22824465  0.48236563  0.90357409  1  0  0.134773  0  0.936807  0  0  0.137927  0  1.00669  0  0  0.142198  0  1.002152  0  0  0.119797  0.134822  0  1.009944  0
H  H9  1  0.28471034  0.43116376  0.43116691  1  0  0.123393  0  0.933637  0  0  0.131976  0  0.993864  0  0  0.136166  0  0.99023  0  0  0.115269  0.128847  0  0.996638  0
H  H10  1  0.71528939  0.56883301  0.56883128  1  0  0.123417  0  0.933574  0  0  0.132003  0  0.993811  0  0  0.136194  0  0.990175  0  0  0.115266  0.128875  0  0.996585  0
C  C11  1  0.14581650  0.16079495  0.64618635  1  0  0.673539  0  3.889432  0  0  0.618339  0  4.183964  0  0  0.65373  0  4.178153  0  0  0.218799  0.594326  0  4.187108  0
C  C12  1  0.14580028  0.64618843  0.16079263  1  0  0.673632  0  3.889366  0  0  0.618534  0  4.183767  0  0  0.653919  0  4.177962  0  0  0.218918  0.594518  0  4.186914  0
C  C13  1  0.85420399  0.83920888  0.35380335  1  0  0.673538  0  3.88924  0  0  0.618467  0  4.183595  0  0  0.653853  0  4.17779  0  0  0.218898  0.594451  0  4.186737  0
C  C14  1  0.85418625  0.35381800  0.83920926  1  0  0.673652  0  3.889263  0  0  0.61847  0  4.183762  0  0  0.653864  0  4.177945  0  0  0.218888  0.594459  0  4.186907  0
C  C15  1  0.04111763  0.25323982  0.49129069  1  0  -0.066572  0  3.722386  0  0  -0.038864  0  3.961356  0  0  -0.051661  0  3.985741  0  0  -0.011239  -0.030878  0  3.94508  0
C  C16  1  0.04109962  0.49128921  0.25324318  1  0  -0.066459  0  3.722143  0  0  -0.038796  0  3.961098  0  0  -0.051582  0  3.985478  0  0  -0.011297  -0.030819  0  3.944843  0
C  C17  1  0.95889312  0.74676531  0.50870665  1  0  -0.066565  0  3.722151  0  0  -0.038879  0  3.961055  0  0  -0.051671  0  3.985437  0  0  -0.011255  -0.030886  0  3.944771  0
C  C18  1  0.95888865  0.50871358  0.74675542  1  0  -0.066805  0  3.722252  0  0  -0.039104  0  3.961246  0  0  -0.051911  0  3.985634  0  0  -0.011363  -0.031118  0  3.944973  0
C  C19  1  0.84966431  0.20546342  0.44491145  1  0  -0.046476  0  3.617139  0  0  -0.08801  0  3.873014  0  0  -0.08121  0  3.887716  0  0  -0.054191  -0.09195  0  3.862958  0
C  C20  1  0.84965788  0.44489778  0.20547502  1  0  -0.04664  0  3.616718  0  0  -0.088154  0  3.872647  0  0  -0.081346  0  3.887338  0  0  -0.054174  -0.092091  0  3.862592  0
C  C21  1  0.15034004  0.79453939  0.55509131  1  0  -0.046557  0  3.617028  0  0  -0.088038  0  3.872947  0  0  -0.081239  0  3.887649  0  0  -0.054218  -0.091977  0  3.862881  0
C  C22  1  0.15033354  0.55510626  0.79452872  1  0  -0.046502  0  3.61678  0  0  -0.087979  0  3.872702  0  0  -0.081161  0  3.887394  0  0  -0.054187  -0.091921  0  3.862655  0
C  C23  1  0.76036735  0.30139005  0.30141829  1  0  0.082103  0  3.670076  0  0  0.070602  0  3.922301  0  0  0.064162  0  3.943986  0  0  0.084867  0.074307  0  3.907852  0
C  C24  1  0.23962432  0.69860447  0.69859097  1  0  0.08217  0  3.670138  0  0  0.070568  0  3.92246  0  0  0.064123  0  3.944153  0  0  0.08487  0.074272  0  3.908012  0
C  C25  1  0.13602244  0.39424786  0.39424816  1  0  -0.020477  0  3.642936  0  0  -0.069416  0  3.89991  0  0  -0.063232  0  3.917444  0  0  -0.061266  -0.073001  0  3.887909  0
C  C26  1  0.86397864  0.60575731  0.60575049  1  0  -0.020341  0  3.642865  0  0  -0.069305  0  3.899837  0  0  -0.063115  0  3.91737  0  0  -0.061221  -0.072893  0  3.887832  0
N  N27  1  0.56694702  0.24739523  0.24741460  1  0  0.472806  0  3.932558  0  0  0.530292  0  4.180131  0  0  0.552099  0  4.189184  0  0  0.058015  0.515805  0  4.174017  0
N  N28  1  0.43305256  0.75260520  0.75258909  1  0  0.472758  0  3.932606  0  0  0.53037  0  4.180043  0  0  0.552173  0  4.189101  0  0  0.058062  0.515884  0  4.173929  0
O  O29  1  0.31087461  0.04945873  0.04944985  1  0  -1.004953  0  2.004238  0  0  -0.897459  0  2.33516  0  0  -0.931768  0  2.287528  0  0  -0.559635  -0.872925  0  2.366344  0
O  O30  1  0.68912501  0.95054278  0.95054333  1  0  -1.004883  0  2.0043  0  0  -0.89739  0  2.335231  0  0  -0.931703  0  2.287602  0  0  -0.559652  -0.872856  0  2.366407  0
O  O31  1  0.33225848  0.20987512  0.66279328  1  0  -0.64547  0  2.090801  0  0  -0.572981  0  2.374658  0  0  -0.603268  0  2.358748  0  0  -0.31675  -0.55177  0  2.38494  0
O  O32  1  0.33224734  0.66279201  0.20987905  1  0  -0.645534  0  2.090564  0  0  -0.573126  0  2.374441  0  0  -0.603412  0  2.358529  0  0  -0.316805  -0.551892  0  2.384708  0
O  O33  1  0.66774769  0.79012276  0.33719877  1  0  -0.645548  0  2.090399  0  0  -0.573124  0  2.374219  0  0  -0.603415  0  2.358311  0  0  -0.31678  -0.551913  0  2.384503  0
O  O34  1  0.66774577  0.33721076  0.79011834  1  0  -0.645574  0  2.090679  0  0  -0.573065  0  2.374521  0  0  -0.603352  0  2.358603  0  0  -0.316763  -0.551849  0  2.384802  0
O  O35  1  0.04652881  0.04808114  0.74752318  1  0  -0.644606  0  2.047686  0  0  -0.583769  0  2.30786  0  0  -0.611795  0  2.296765  0  0  -0.314196  -0.564189  0  2.314902  0
O  O36  1  0.04651034  0.74751995  0.04809085  1  0  -0.644684  0  2.047862  0  0  -0.583895  0  2.308012  0  0  -0.611918  0  2.296919  0  0  -0.314216  -0.564317  0  2.315057  0
O  O37  1  0.95348555  0.95191080  0.25247525  1  0  -0.644525  0  2.048  0  0  -0.583714  0  2.308089  0  0  -0.611735  0  2.296995  0  0  -0.314184  -0.56414  0  2.315134  0
O  O38  1  0.95347304  0.25248410  0.95191192  1  0  -0.644635  0  2.047744  0  0  -0.583834  0  2.307919  0  0  -0.611857  0  2.29682  0  0  -0.314237  -0.564255  0  2.314963  0
O  O39  1  0.48947385  0.11830202  0.33167480  1  0  -0.356641  0  1.808219  0  0  -0.342584  0  2.012401  0  0  -0.356224  0  2.008323  0  0  -0.118787  -0.333445  0  2.015304  0
O  O40  1  0.48946407  0.33165681  0.11834241  1  0  -0.356593  0  1.808386  0  0  -0.342428  0  2.012407  0  0  -0.356118  0  2.008383  0  0  -0.118734  -0.333303  0  2.015329  0
O  O41  1  0.51052915  0.88169238  0.66832639  1  0  -0.356656  0  1.808403  0  0  -0.342642  0  2.01255  0  0  -0.356283  0  2.008468  0  0  -0.118815  -0.333507  0  2.015455  0
O  O42  1  0.51053557  0.66834126  0.88166434  1  0  -0.356595  0  1.808335  0  0  -0.342466  0  2.012321  0  0  -0.35613  0  2.00827  0  0  -0.118756  -0.333337  0  2.015239  0
