# generated using pymatgen
data_CuH8C18N2(OF)4
_symmetry_space_group_name_H-M   'P 1'
_cell_length_a   8.17842383
_cell_length_b   9.52229186
_cell_length_c   11.32088829
_cell_angle_alpha   74.36994965
_cell_angle_beta   70.45357032
_cell_angle_gamma   75.08063291
_symmetry_Int_Tables_number   1
_chemical_formula_structural   CuH8C18N2(OF)4
_chemical_formula_sum   'Cu2 H16 C36 N4 O8 F8'
_cell_volume   786.39330940
_cell_formula_units_Z   2
loop_
 _symmetry_equiv_pos_site_id
 _symmetry_equiv_pos_as_xyz
  1  'x, y, z'
loop_
 _atom_site_type_symbol
 _atom_site_label
 _atom_site_symmetry_multiplicity
 _atom_site_fract_x
 _atom_site_fract_y
 _atom_site_fract_z
 _atom_site_occupancy
 _atom_site_hle17_ddec_charge
 _atom_site_hle17_ddec_spin_density
 _atom_site_hle17_ddec_sum_bond_order
 _atom_site_hle17_magmom
 _atom_site_hse06_10hf_ddec_charge
 _atom_site_hse06_10hf_ddec_spin_density
 _atom_site_hse06_10hf_ddec_sum_bond_order
 _atom_site_hse06_10hf_magmom
 _atom_site_hse06_ddec_charge
 _atom_site_hse06_ddec_spin_density
 _atom_site_hse06_ddec_sum_bond_order
 _atom_site_hse06_magmom
 _atom_site_pbe_cm5_charge
 _atom_site_pbe_ddec_charge
 _atom_site_pbe_ddec_spin_density
 _atom_site_pbe_ddec_sum_bond_order
 _atom_site_pbe_magmom
Cu  Cu0  1  0.53236716  0.80866544  0.57388059  1  0.88075  -0.691817  1.76594  -0.512  0.853532  -0.774476  2.160514  -0.622  0.942878  -0.839191  2.092071  -0.705  0.749959  0.798215  -0.729155  2.209512  -0.567
Cu  Cu1  1  0.46763782  0.19133050  0.42612003  1  0.880684  -0.691823  1.766064  -0.512  0.853421  -0.77448  2.160677  -0.622  0.942808  -0.839191  2.092187  -0.705  0.749914  0.798054  -0.729157  2.209768  -0.567
H  H2  1  0.44721442  0.70692953  0.86428703  1  0.086653  -0.001333  0.956559  -0.002  0.091459  -0.001179  1.023442  -0.002  0.0936  -0.000843  1.021163  -0.001  0.116888  0.089565  -0.001465  1.02547  -0.002
H  H3  1  0.55280373  0.29305301  0.13571521  1  0.086601  -0.001334  0.95653  -0.002  0.091429  -0.001179  1.023418  -0.002  0.093569  -0.000843  1.021145  -0.001  0.116867  0.089534  -0.001465  1.025438  -0.002
H  H4  1  0.27131916  0.52055292  0.02701208  1  0.120264  -0.000591  0.951825  -0.001  0.129354  -0.000538  1.009951  -0.001  0.132812  -0.000395  1.00892  0.0  0.109009  0.126647  -0.000656  1.01117  -0.001
H  H5  1  0.72869745  0.47943073  0.97298587  1  0.120262  -0.000592  0.951812  -0.001  0.129335  -0.000538  1.009955  -0.001  0.13279  -0.000395  1.008926  0.0  0.109028  0.126625  -0.000656  1.011178  -0.001
H  H6  1  0.11375498  0.38641448  0.94972164  1  0.094716  -0.000163  0.945554  0.0  0.104484  5.5e-05  1.007432  0.0  0.106427  8.1e-05  1.006487  0.0  0.10559  0.103021  2.9e-05  1.008259  0.0
H  H7  1  0.88625588  0.61357808  0.05027391  1  0.094741  -0.000163  0.945563  0.0  0.104497  5.5e-05  1.007452  0.0  0.106441  8.1e-05  1.006507  0.0  0.105583  0.103037  2.9e-05  1.008276  0.0
H  H8  1  0.13340016  0.44043635  0.71797585  1  0.131267  -0.000734  0.952794  -0.001  0.138526  -0.000618  1.014852  -0.001  0.14212  -0.000437  1.012775  -0.001  0.114298  0.13571  -0.000785  1.01676  -0.001
H  H9  1  0.86660367  0.55956513  0.28202025  1  0.131261  -0.000735  0.952731  -0.001  0.138509  -0.000618  1.014829  -0.001  0.142103  -0.000437  1.012751  -0.001  0.114279  0.135694  -0.000785  1.016729  -0.001
H  H10  1  0.16426126  0.49876262  0.52119468  1  0.13673  -0.000784  0.961432  -0.001  0.148171  -0.000577  1.016913  -0.001  0.151333  -0.000388  1.015615  -0.001  0.118092  0.145682  -0.00079  1.018355  -0.001
H  H11  1  0.83573432  0.50124116  0.47880907  1  0.136698  -0.000786  0.96146  -0.001  0.148142  -0.000577  1.01692  -0.001  0.151305  -0.000388  1.015624  -0.001  0.118082  0.145653  -0.00079  1.018358  -0.001
H  H12  1  0.22592442  0.57330350  0.28614797  1  0.114367  -0.000249  0.945267  0.0  0.124753  7e-06  1.003025  0.0  0.12823  4.4e-05  0.999437  0.0  0.111008  0.121893  -4.1e-05  1.006326  0.0
H  H13  1  0.77406435  0.42670809  0.71385742  1  0.1144  -0.000248  0.945154  0.0  0.12475  7e-06  1.002959  0.0  0.128228  4.4e-05  0.999373  0.0  0.110959  0.121893  -4.1e-05  1.006261  0.0
H  H14  1  0.42347548  0.76285282  0.16671596  1  0.101019  -0.000533  0.977421  -0.001  0.107027  -0.00047  1.042082  -0.001  0.109219  -0.000343  1.042732  0.0  0.098337  0.105181  -0.000641  1.042214  -0.001
H  H15  1  0.57651267  0.23715544  0.83328505  1  0.101029  -0.000533  0.977426  -0.001  0.107023  -0.00047  1.042107  -0.001  0.10921  -0.000343  1.042763  0.0  0.098317  0.105181  -0.000641  1.042234  -0.001
H  H16  1  0.54396709  0.87028331  0.29175669  1  0.094767  -0.001432  0.936552  -0.002  0.101773  -0.001195  0.998502  -0.002  0.10425  -0.000841  0.995446  -0.002  0.119288  0.099826  -0.001508  1.000669  -0.002
H  H17  1  0.45602871  0.12971936  0.70824374  1  0.094748  -0.00143  0.936569  -0.002  0.101742  -0.001194  0.998523  -0.002  0.104219  -0.000841  0.995468  -0.002  0.119256  0.099792  -0.001508  1.00069  -0.002
C  C18  1  0.37574725  0.64512102  0.83691509  1  0.141883  0.011101  3.69665  0.008  0.112652  0.00315  3.954567  0.002  0.122611  0.00463  3.973089  0.003  0.050274  0.106255  0.002032  3.942552  0.002
C  C19  1  0.62427021  0.35486485  0.16308656  1  0.141993  0.011091  3.696588  0.008  0.112684  0.00315  3.954577  0.002  0.122638  0.004634  3.973102  0.003  0.050326  0.106294  0.002032  3.942567  0.002
C  C20  1  0.27820389  0.54250397  0.92598943  1  -0.122271  -0.008532  3.705253  -0.009  -0.134529  -0.003962  3.953812  -0.005  -0.142195  -0.003553  3.973661  -0.004  -0.081388  -0.12966  -0.004288  3.940888  -0.005
C  C21  1  0.72181249  0.45748079  0.07400920  1  -0.122238  -0.008524  3.705361  -0.009  -0.134458  -0.00396  3.953928  -0.005  -0.14212  -0.003557  3.973774  -0.004  -0.081374  -0.129586  -0.004288  3.941002  -0.005
C  C22  1  0.19040330  0.46785083  0.88275770  1  0.009982  0.01165  3.707581  0.007  -0.012093  0.004729  3.963173  0.003  -0.006928  0.00518  3.979665  0.003  -0.062502  -0.015624  0.004313  3.952103  0.002
C  C23  1  0.80960213  0.53214289  0.11724066  1  0.009888  0.011637  3.707649  0.007  -0.012163  0.004726  3.963242  0.003  -0.006998  0.005186  3.979738  0.003  -0.062517  -0.015701  0.004313  3.952177  0.002
C  C24  1  0.20082038  0.49775572  0.75338422  1  -0.117221  -0.006339  3.656424  -0.007  -0.136373  -0.002725  3.902308  -0.003  -0.142484  -0.002482  3.920857  -0.003  -0.069284  -0.132389  -0.002905  3.890077  -0.003
C  C25  1  0.79918345  0.50224577  0.24661452  1  -0.117109  -0.006335  3.656311  -0.007  -0.136332  -0.002725  3.902203  -0.003  -0.142449  -0.002484  3.920756  -0.003  -0.069273  -0.132348  -0.002905  3.889965  -0.003
C  C26  1  0.30191951  0.60136320  0.66918231  1  0.176863  0.006123  3.755158  0.004  0.174667  0.001212  3.998609  0.0  0.182361  0.002617  4.020127  0.001  0.12106  0.16963  0.000155  3.984267  -0.001
C  C27  1  0.69808394  0.39863386  0.33081842  1  0.176731  0.006118  3.755361  0.004  0.174702  0.001213  3.998649  0.0  0.182402  0.002619  4.020171  0.001  0.121104  0.169666  0.000156  3.984301  -0.001
C  C28  1  0.32562461  0.64084556  0.53048049  1  0.170045  0.005123  3.765461  0.003  0.163941  0.000754  4.01621  0.0  0.172088  0.002221  4.037217  0.001  0.115566  0.158645  -0.000365  4.002081  -0.001
C  C29  1  0.67437992  0.35915260  0.46952149  1  0.170058  0.005094  3.76541  0.003  0.163814  0.000752  4.016273  0.0  0.171959  0.002221  4.037285  0.001  0.115591  0.158524  -0.000366  4.002138  -0.001
C  C30  1  0.24758119  0.58065227  0.46813742  1  -0.115808  -0.005831  3.634351  -0.006  -0.140532  -0.002303  3.88776  -0.003  -0.147408  -0.002038  3.905898  -0.003  -0.070574  -0.136456  -0.002566  3.876192  -0.003
C  C31  1  0.75241898  0.41934815  0.53186688  1  -0.115716  -0.005803  3.634277  -0.006  -0.140396  -0.002302  3.887736  -0.003  -0.147262  -0.002036  3.905854  -0.003  -0.070563  -0.136324  -0.002566  3.876169  -0.003
C  C32  1  0.28208010  0.62370882  0.33564106  1  0.020208  0.01175  3.678623  0.007  -0.001503  0.004763  3.933816  0.003  0.004365  0.005223  3.949099  0.003  -0.06189  -0.005433  0.00437  3.924222  0.002
C  C33  1  0.71791242  0.37629720  0.66436205  1  0.020141  0.011709  3.678573  0.007  -0.001564  0.004759  3.933754  0.003  0.0043  0.005222  3.949042  0.003  -0.061902  -0.005499  0.004369  3.924171  0.002
C  C34  1  0.39091777  0.72757026  0.27004243  1  -0.133573  -0.008862  3.73463  -0.01  -0.145891  -0.004053  3.987782  -0.005  -0.155902  -0.003552  4.012727  -0.005  -0.087864  -0.139235  -0.004397  3.97125  -0.005
C  C35  1  0.60907688  0.27243796  0.72995877  1  -0.133557  -0.008839  3.734662  -0.01  -0.145851  -0.004052  3.98778  -0.005  -0.15586  -0.003552  4.01273  -0.005  -0.08777  -0.1392  -0.004398  3.97125  -0.005
C  C36  1  0.46165331  0.78629307  0.33828783  1  0.157996  0.011561  3.663187  0.008  0.129597  0.003187  3.919505  0.002  0.140721  0.004686  3.936869  0.003  0.055378  0.122518  0.002118  3.907924  0.002
C  C37  1  0.53834380  0.21370958  0.66171405  1  0.158052  0.011524  3.663344  0.008  0.12968  0.003186  3.919619  0.002  0.140804  0.004687  3.936987  0.003  0.055428  0.122609  0.002118  3.908031  0.002
C  C38  1  0.82388437  0.86625040  0.37446805  1  0.679907  0.007113  3.892634  0.007  0.635714  0.002367  4.201266  0.003  0.6743  0.002612  4.190374  0.003  0.207033  0.60975  0.001889  4.207233  0.003
C  C39  1  0.17611648  0.13374668  0.62553331  1  0.679885  0.007122  3.892515  0.007  0.63567  0.002369  4.201166  0.003  0.674255  0.002612  4.190279  0.003  0.206995  0.609716  0.001889  4.207118  0.003
C  C40  1  0.95719592  0.95278570  0.27422243  1  -0.233087  -0.004754  3.73331  -0.006  -0.245323  -0.003627  4.010326  -0.004  -0.253454  -0.001981  4.02431  -0.003  -0.03205  -0.240188  -0.004918  4.001152  -0.005
C  C41  1  0.04279574  0.04721810  0.72577609  1  -0.232998  -0.004817  3.73334  -0.006  -0.245196  -0.003626  4.010307  -0.004  -0.253324  -0.001987  4.024283  -0.003  -0.032039  -0.240075  -0.004918  4.00115  -0.005
C  C42  1  0.01715986  0.06330738  0.29948189  1  0.327839  -0.004124  3.720482  -0.004  0.28811  -0.002444  4.019641  -0.002  0.30226  -0.001818  4.026973  -0.002  0.107756  0.278323  -0.00317  4.014967  -0.003
C  C43  1  0.98284313  0.93669189  0.70051668  1  0.327734  -0.004072  3.720647  -0.004  0.288019  -0.002445  4.019761  -0.002  0.30217  -0.001814  4.027096  -0.002  0.107754  0.278231  -0.00317  4.015092  -0.003
C  C44  1  0.15947016  0.12862405  0.21723176  1  -0.228984  -0.00635  3.747576  -0.007  -0.240245  -0.00387  4.025405  -0.005  -0.247632  -0.001934  4.039187  -0.003  -0.031177  -0.23541  -0.005619  4.016304  -0.006
C  C45  1  0.84052649  0.87138083  0.78277061  1  -0.228978  -0.006414  3.747626  -0.008  -0.240267  -0.00387  4.025507  -0.005  -0.247658  -0.00194  4.039293  -0.003  -0.031229  -0.235432  -0.00562  4.016403  -0.006
C  C46  1  0.23685699  0.08644830  0.09976797  1  0.228184  -0.004376  3.800033  -0.004  0.188611  -0.002401  4.110779  -0.002  0.200311  -0.001731  4.11733  -0.002  0.093383  0.180548  -0.003227  4.106589  -0.003
C  C47  1  0.76313858  0.91355547  0.90023050  1  0.228291  -0.004324  3.799786  -0.004  0.188691  -0.002404  4.110638  -0.002  0.200391  -0.001728  4.117189  -0.002  0.09343  0.180631  -0.003227  4.106439  -0.003
C  C48  1  0.18075113  0.97950115  0.06723631  1  0.075382  0.002994  3.836072  0.002  0.033695  0.000919  4.160372  0.001  0.039136  0.001283  4.166949  0.001  0.069116  0.02962  0.000524  4.156551  0.001
C  C49  1  0.81924069  0.02050819  0.93276268  1  0.075404  0.002915  3.835695  0.002  0.033645  0.000932  4.160101  0.001  0.039085  0.00128  4.166678  0.001  0.06909  0.029572  0.000524  4.156272  0.001
C  C50  1  0.04461546  0.91179421  0.15597662  1  0.22393  -0.005433  3.800733  -0.005  0.188422  -0.002916  4.105611  -0.003  0.199497  -0.002046  4.114168  -0.002  0.093546  0.180584  -0.004029  4.100465  -0.004
C  C51  1  0.95538108  0.08821729  0.84401454  1  0.223859  -0.00538  3.800711  -0.005  0.188365  -0.00292  4.105581  -0.003  0.19944  -0.002043  4.114137  -0.002  0.093547  0.180532  -0.004029  4.10043  -0.004
C  C52  1  0.24177894  0.22541530  0.26077744  1  0.681936  0.004382  3.913348  0.005  0.635008  -0.000242  4.229836  0.0  0.673477  0.000236  4.21825  0.0  0.20875  0.608811  -0.000743  4.236775  0.0
C  C53  1  0.75822183  0.77458843  0.73922154  1  0.6819  0.00439  3.91352  0.005  0.634981  -0.000241  4.230008  0.0  0.673452  0.000239  4.218421  0.0  0.208759  0.608781  -0.000743  4.236954  0.0
N  N54  1  0.38751303  0.67307261  0.71194718  1  -0.344027  -0.081127  3.337129  -0.105  -0.303974  -0.057569  3.638381  -0.079  -0.335179  -0.047225  3.659112  -0.07  -0.344781  -0.285353  -0.063186  3.626614  -0.083
N  N55  1  0.61249632  0.32692108  0.28805465  1  -0.344045  -0.081121  3.33729  -0.105  -0.303968  -0.05757  3.638485  -0.079  -0.335192  -0.047227  3.65924  -0.07  -0.344857  -0.285349  -0.063187  3.626731  -0.083
N  N56  1  0.43101112  0.74253451  0.46523363  1  -0.334102  -0.082548  3.325076  -0.106  -0.294926  -0.057647  3.626449  -0.079  -0.326245  -0.047132  3.646907  -0.069  -0.345576  -0.276197  -0.063212  3.614703  -0.082
N  N57  1  0.56899210  0.25746366  0.53476691  1  -0.334148  -0.082527  3.325248  -0.106  -0.294927  -0.057646  3.626632  -0.079  -0.326251  -0.047132  3.647086  -0.069  -0.345604  -0.276193  -0.063211  3.614893  -0.082
O  O58  1  0.67352142  0.94222769  0.42669004  1  -0.601547  -0.081948  2.077767  -0.113  -0.584935  -0.052414  2.382164  -0.079  -0.628703  -0.039045  2.370486  -0.064  -0.321297  -0.5556  -0.061299  2.39056  -0.087
O  O59  1  0.32647836  0.05776829  0.57331094  1  -0.601538  -0.081948  2.077668  -0.113  -0.584919  -0.052412  2.382071  -0.079  -0.628692  -0.039045  2.370399  -0.064  -0.321309  -0.55558  -0.061298  2.390462  -0.087
O  O60  1  0.86743817  0.72885459  0.40077594  1  -0.58357  0.00151  1.933398  -0.001  -0.555488  0.001085  2.170398  -0.001  -0.58034  0.002216  2.161026  0.0  -0.301681  -0.537251  5e-05  2.175774  -0.002
O  O61  1  0.13256437  0.27114691  0.59922665  1  -0.583553  0.001503  1.933309  -0.001  -0.555477  0.001083  2.17034  -0.001  -0.580334  0.002215  2.160972  0.0  -0.301641  -0.537239  4.9e-05  2.175709  -0.002
O  O62  1  0.19866135  0.36237830  0.23789331  1  -0.578103  0.001117  1.906378  0.0  -0.544582  0.000488  2.128014  0.0  -0.56907  0.001335  2.119927  0.001  -0.304509  -0.526892  -0.000249  2.13306  -0.001
O  O63  1  0.80134179  0.63762651  0.76210484  1  -0.578075  0.001116  1.906501  0.0  -0.54455  0.000487  2.128135  0.0  -0.569039  0.001335  2.120047  0.001  -0.304472  -0.526855  -0.000249  2.133182  -0.001
O  O64  1  0.35579766  0.14211531  0.31805901  1  -0.585927  -0.075632  2.057972  -0.104  -0.563949  -0.046471  2.352304  -0.069  -0.606152  -0.034861  2.341785  -0.056  -0.32651  -0.535212  -0.054456  2.359151  -0.077
O  O65  1  0.64420549  0.85788951  0.68194091  1  -0.585932  -0.075637  2.058006  -0.104  -0.563948  -0.046474  2.352311  -0.069  -0.606142  -0.034862  2.341792  -0.056  -0.326523  -0.535222  -0.054458  2.359152  -0.077
F  F66  1  0.93963831  0.10517376  0.41385822  1  -0.174904  -0.00019  1.267754  0.0  -0.110412  -0.000251  1.424058  0.0  -0.119927  -0.000137  1.415864  0.0  -0.077461  -0.103512  -0.000404  1.429564  -0.001
F  F67  1  0.06037066  0.89481550  0.58614472  1  -0.174904  -0.000188  1.267866  0.0  -0.110387  -0.000251  1.42413  0.0  -0.119901  -0.000136  1.415937  0.0  -0.07746  -0.103487  -0.000405  1.429636  -0.001
F  F68  1  0.37566934  0.14648818  0.01483227  1  -0.177509  -0.000346  1.251877  -0.001  -0.11768  -0.000348  1.415766  -0.001  -0.126091  -0.000205  1.405309  0.0  -0.080772  -0.111505  -0.000554  1.422985  -0.001
F  F69  1  0.62433473  0.85351221  0.98517285  1  -0.177519  -0.000344  1.25187  -0.001  -0.117661  -0.00035  1.41576  -0.001  -0.126073  -0.000205  1.405303  0.0  -0.080735  -0.111488  -0.000554  1.422978  -0.001
F  F70  1  0.26173894  0.93864507  0.95268097  1  -0.152337  0.00012  1.266336  0.0  -0.104149  3.1e-05  1.43937  0.0  -0.111884  9e-05  1.429933  0.0  -0.085054  -0.09842  -0.00013  1.445904  0.0
F  F71  1  0.73825692  0.06136976  0.04731400  1  -0.152386  0.000118  1.266327  0.0  -0.104153  3.1e-05  1.439372  0.0  -0.111886  9e-05  1.429935  0.0  -0.085086  -0.098426  -0.00013  1.445903  0.0
F  F72  1  0.99836180  0.80305854  0.12401288  1  -0.171672  -0.000468  1.244005  -0.001  -0.11288  -0.000447  1.404906  -0.001  -0.122374  -0.000277  1.396599  0.0  -0.079952  -0.106034  -0.000717  1.410799  -0.001
F  F73  1  0.00162894  0.19694969  0.87598308  1  -0.171708  -0.000467  1.244073  -0.001  -0.112915  -0.000447  1.404981  -0.001  -0.122409  -0.000276  1.396673  0.0  -0.079968  -0.106067  -0.000717  1.41087  -0.001
