# generated using pymatgen
data_ZnH12C15N3O4
_symmetry_space_group_name_H-M   'P 1'
_cell_length_a   11.14705497
_cell_length_b   14.06900082
_cell_length_c   15.26377341
_cell_angle_alpha   93.19411963
_cell_angle_beta   89.25836763
_cell_angle_gamma   87.22424052
_symmetry_Int_Tables_number   1
_chemical_formula_structural   ZnH12C15N3O4
_chemical_formula_sum   'Zn2 H24 C30 N6 O8'
_cell_volume   2386.96925349
_cell_formula_units_Z   2
loop_
 _symmetry_equiv_pos_site_id
 _symmetry_equiv_pos_as_xyz
  1  'x, y, z'
loop_
 _atom_site_type_symbol
 _atom_site_label
 _atom_site_symmetry_multiplicity
 _atom_site_fract_x
 _atom_site_fract_y
 _atom_site_fract_z
 _atom_site_occupancy
 _atom_site_pbe_bader_charge
 _atom_site_pbe_bader_spin_density
 _atom_site_pbe_cm5_charge
 _atom_site_pbe_ddec_charge
 _atom_site_pbe_ddec_spin_density
 _atom_site_pbe_ddec_sum_bond_order
 _atom_site_pbe_magmom
Zn  Zn0  1  0.49201292  0.60549203  0.50095632  1  1.288541  0  0.666038  0.820493  0  2.40727  0
Zn  Zn1  1  0.49764206  0.40314113  0.48772905  1  1.278616  0  0.66746  0.837196  0  2.34593  0
H  H2  1  0.31213155  0.76548855  0.53304857  1  0.121529  0  0.127342  0.105053  0  0.985497  0
H  H3  1  0.67647838  0.74779306  0.47893880  1  0.15329  0  0.126528  0.103525  0  0.984024  0
H  H4  1  0.08035238  0.58510232  0.47372852  1  0.075229  0  0.098594  0.135263  0  1.024984  0
H  H5  1  0.90171305  0.54642547  0.53818390  1  0.096447  0  0.103726  0.141581  0  1.015587  0
H  H6  1  0.57028681  0.63741871  0.06114006  1  0.051993  0  0.099149  0.097728  0  1.008403  0
H  H7  1  0.45265984  0.64452668  0.94321042  1  0.065663  0  0.098893  0.096861  0  1.009638  0
H  H8  1  0.55639322  0.64031158  0.22432148  1  0.095649  0  0.102804  0.107791  0  0.999288  0
H  H9  1  0.45620618  0.64665489  0.78020462  1  0.079196  0  0.103651  0.109377  0  1.000393  0
H  H10  1  0.43458610  0.35558843  0.21010552  1  0.094618  0  0.102199  0.109375  0  1.001547  0
H  H11  1  0.56683688  0.35003481  0.76023721  1  0.080516  0  0.101993  0.108577  0  0.999883  0
H  H12  1  0.44235907  0.35279096  0.04659638  1  0.050127  0  0.09802  0.096856  0  1.009488  0
H  H13  1  0.56715169  0.34697797  0.92342312  1  0.034061  0  0.097585  0.096156  0  1.009433  0
H  H14  1  0.63221033  0.05372607  0.39973517  1  0.051672  0  0.100847  0.120549  0  1.02092  0
H  H15  1  0.35668509  0.08490162  0.60286142  1  0.058396  0  0.1004  0.119443  0  1.022865  0
H  H16  1  0.30371605  0.94419039  0.53389304  1  0.062172  0  0.110406  0.116402  0  0.996936  0
H  H17  1  0.68513391  0.92565897  0.47705602  1  0.086025  0  0.111076  0.116812  0  0.996945  0
H  H18  1  0.21510524  0.34299340  0.46047754  1  0.491617  0  0.29884  0.31327  0  0.9777  0
H  H19  1  0.07765326  0.28912173  0.44586794  1  0.450362  0  0.306146  0.294796  0  0.956455  0
H  H20  1  0.96062133  0.35633792  0.32555221  1  0.466684  0  0.308447  0.298926  0  0.939721  0
H  H21  1  0.81488220  0.37898395  0.36217721  1  0.464201  0  0.301549  0.304604  0  0.965459  0
H  H22  1  0.66662800  0.30869716  0.40375355  1  0.526309  0  0.297723  0.3103  0  1.016436  0
H  H23  1  0.71525361  0.19738137  0.36091098  1  0.446548  0  0.313213  0.308644  0  0.930121  0
H  H24  1  0.32841440  0.34242314  0.58963538  1  0.52812  0  0.307144  0.327854  0  0.979392  0
H  H25  1  0.28143212  0.24198443  0.63957799  1  0.451375  0  0.32155  0.318081  0  0.920295  0
C  C26  1  0.48780592  0.49979176  0.32503895  1  1.519496  0  0.209314  0.587797  0  4.177024  0
C  C27  1  0.50882139  0.50172005  0.66255620  1  1.531371  0  0.211792  0.588599  0  4.176474  0
C  C28  1  0.50639798  0.49518115  0.04190804  1  -0.068718  0  -0.006262  0.073409  0  4.006439  0
C  C29  1  0.50949419  0.49551312  0.94524083  1  -0.042361  0  -0.006607  0.072339  0  4.006066  0
C  C30  1  0.57204575  0.09695499  0.44430136  1  0.029653  0  -0.130288  -0.35847  0  3.971624  0
C  C31  1  0.41638899  0.11423347  0.55541053  1  -0.007018  0  -0.131261  -0.362231  0  3.972134  0
C  C32  1  0.57101263  0.19680962  0.44292704  1  0.948757  0  0.225576  0.478127  0  4.100454  0
C  C33  1  0.41743625  0.21388334  0.54988049  1  0.972792  0  0.227018  0.478717  0  4.101192  0
C  C34  1  0.49406305  0.05542494  0.50160881  1  -0.042245  0  -0.003662  0.134743  0  4.100325  0
C  C35  1  0.38885237  0.90388803  0.52215348  1  -0.067572  0  -0.080611  -0.179222  0  3.949594  0
C  C36  1  0.59997337  0.89343258  0.48896489  1  -0.006365  0  -0.079985  -0.177392  0  3.949569  0
C  C37  1  0.39215492  0.80503634  0.52178033  1  0.507225  0  0.059026  0.104908  0  3.920307  0
C  C38  1  0.59650904  0.79498143  0.49014576  1  0.465901  0  0.059136  0.103985  0  3.92531  0
C  C39  1  0.49427945  0.95058643  0.50462463  1  0.002233  0  0.018524  0.12024  0  3.965216  0
C  C40  1  0.73230126  0.50335655  0.48339629  1  1.51037  0  0.201349  0.657776  0  4.169462  0
C  C41  1  0.25728849  0.51914066  0.49440147  1  1.505811  0  0.198592  0.660234  0  4.16361  0
C  C42  1  0.07092840  0.43518370  0.45532359  1  0.401491  0  0.10856  0.269485  0  4.080741  0
C  C43  1  0.93967529  0.43757297  0.43978013  1  0.306538  0  0.10184  0.254469  0  4.073696  0
C  C44  1  0.12942280  0.51675787  0.47659062  1  0.009282  0  -0.147388  -0.433095  0  3.926309  0
C  C45  1  0.86338202  0.49793171  0.48941824  1  0.032905  0  -0.135472  -0.408248  0  3.911433  0
C  C46  1  0.53833086  0.57593425  0.09338787  1  -0.038095  0  -0.095001  -0.14117  0  3.998202  0
C  C47  1  0.47965507  0.57997870  0.90348611  1  -0.08547  0  -0.093889  -0.137856  0  3.998259  0
C  C48  1  0.53179409  0.57774092  0.18449217  1  -0.039365  0  -0.087574  -0.088343  0  3.994013  0
C  C49  1  0.48052963  0.58156623  0.81258786  1  -0.0175  0  -0.085864  -0.086822  0  3.993967  0
C  C50  1  0.49415265  0.49830059  0.22696539  1  0.041015  0  -0.021843  -0.035247  0  3.970602  0
C  C51  1  0.51122697  0.49861726  0.76038392  1  0.047814  0  -0.021233  -0.035313  0  3.969444  0
C  C52  1  0.46377236  0.41694448  0.17636569  1  -0.043893  0  -0.08813  -0.09264  0  3.996462  0
C  C53  1  0.54189828  0.41411815  0.80114544  1  -0.070202  0  -0.087179  -0.090525  0  3.994536  0
C  C54  1  0.46948628  0.41555498  0.08517575  1  -0.027943  0  -0.096567  -0.142382  0  4.001155  0
C  C55  1  0.54103305  0.41269354  0.89232765  1  0.007069  0  -0.095618  -0.1424  0  3.997396  0
N  N56  1  0.49354935  0.25464217  0.49387079  1  -1.232837  0  -0.339798  -0.421888  0  3.308547  0
N  N57  1  0.49416629  0.75147263  0.50572995  1  -1.219703  0  -0.318231  -0.195346  0  3.513349  0
N  N58  1  0.12752979  0.34701244  0.44190263  1  -1.247672  0  -0.589036  -0.596992  0  3.339928  0
N  N59  1  0.90321769  0.37027212  0.37741853  1  -1.247253  0  -0.594356  -0.607522  0  3.316377  0
N  N60  1  0.64716075  0.23927861  0.38860542  1  -1.291887  0  -0.587497  -0.636084  0  3.306057  0
N  N61  1  0.34229273  0.27199908  0.60162492  1  -1.297994  0  -0.579108  -0.632047  0  3.321446  0
O  O62  1  0.50874787  0.57779000  0.36714298  1  -1.168271  0  -0.319163  -0.551256  0  2.32734  0
O  O63  1  0.47776169  0.58108575  0.63159905  1  -1.160355  0  -0.317098  -0.541289  0  2.335521  0
O  O64  1  0.46262208  0.42209332  0.35900614  1  -1.167765  0  -0.324911  -0.550104  0  2.328918  0
O  O65  1  0.53690683  0.42447381  0.61715736  1  -1.170328  0  -0.324567  -0.558391  0  2.334586  0
O  O66  1  0.67720111  0.58026377  0.51270661  1  -1.162482  0  -0.320054  -0.550447  0  2.276009  0
O  O67  1  0.30694076  0.59871055  0.49170201  1  -1.168891  0  -0.323904  -0.551567  0  2.271967  0
O  O68  1  0.67844606  0.43030590  0.45048281  1  -1.195189  0  -0.32708  -0.590622  0  2.307653  0
O  O69  1  0.31564384  0.44006729  0.51150045  1  -1.201302  0  -0.332813  -0.605432  0  2.348968  0
