# generated using pymatgen
data_CuH14C16S2(N2Cl)2
_symmetry_space_group_name_H-M   'P 1'
_cell_length_a   8.75700961
_cell_length_b   9.92769264
_cell_length_c   10.26411192
_cell_angle_alpha   90.00032356
_cell_angle_beta   98.72776296
_cell_angle_gamma   89.99988917
_symmetry_Int_Tables_number   1
_chemical_formula_structural   CuH14C16S2(N2Cl)2
_chemical_formula_sum   'Cu2 H28 C32 S4 N8 Cl4'
_cell_volume   881.99731371
_cell_formula_units_Z   2
loop_
 _symmetry_equiv_pos_site_id
 _symmetry_equiv_pos_as_xyz
  1  'x, y, z'
loop_
 _atom_site_type_symbol
 _atom_site_label
 _atom_site_symmetry_multiplicity
 _atom_site_fract_x
 _atom_site_fract_y
 _atom_site_fract_z
 _atom_site_occupancy
 _atom_site_hle17_ddec_charge
 _atom_site_hle17_ddec_spin_density
 _atom_site_hle17_ddec_sum_bond_order
 _atom_site_hle17_magmom
 _atom_site_hse06_10hf_ddec_charge
 _atom_site_hse06_10hf_ddec_spin_density
 _atom_site_hse06_10hf_ddec_sum_bond_order
 _atom_site_hse06_10hf_magmom
 _atom_site_hse06_ddec_charge
 _atom_site_hse06_ddec_spin_density
 _atom_site_hse06_ddec_sum_bond_order
 _atom_site_hse06_magmom
 _atom_site_pbe_cm5_charge
 _atom_site_pbe_ddec_charge
 _atom_site_pbe_ddec_spin_density
 _atom_site_pbe_ddec_sum_bond_order
 _atom_site_pbe_magmom
Cu  Cu0  1  0.50000051  0.50000141  0.49999942  1  0.714069  -0.601849  1.962849  -0.419  0.681763  -0.69522  2.387503  -0.525  0.768205  -0.763997  2.309025  -0.604  0.601518  0.634559  -0.651409  2.437446  -0.479
Cu  Cu1  1  0.99999932  0.00000106  0.99999878  1  0.714047  -0.601859  1.962896  -0.419  0.681722  -0.695225  2.387566  -0.525  0.768128  -0.763999  2.309096  -0.604  0.601492  0.634515  -0.651412  2.43751  -0.479
H  H2  1  0.38349674  0.41139705  0.22905640  1  0.088334  -0.001232  0.942029  -0.002  0.095204  -0.00104  1.009315  -0.002  0.096196  -0.000693  1.008426  -0.001  0.120644  0.0942  -0.001336  1.010262  -0.002
H  H3  1  0.11650444  0.91139877  0.27094050  1  0.088278  -0.001229  0.941948  -0.002  0.095168  -0.001041  1.009259  -0.002  0.096157  -0.000693  1.008372  -0.001  0.120605  0.094167  -0.001337  1.010197  -0.002
H  H4  1  0.61650195  0.58860174  0.77094309  1  0.088325  -0.001224  0.942045  -0.002  0.0952  -0.00104  1.009322  -0.002  0.09619  -0.000693  1.008435  -0.001  0.120647  0.094195  -0.001336  1.010269  -0.002
H  H5  1  0.88349429  0.08860102  0.72905607  1  0.088292  -0.001227  0.941943  -0.002  0.095159  -0.00104  1.009265  -0.002  0.096146  -0.000693  1.00838  -0.001  0.120618  0.094158  -0.001336  1.010206  -0.002
H  H6  1  0.14524221  0.45513905  0.06406598  1  0.118478  -0.000329  0.962176  0.0  0.127259  -0.000627  1.023416  0.0  0.130477  -0.000511  1.022773  0.0  0.106899  0.124958  -0.00069  1.024113  0.0
H  H7  1  0.35475544  0.95514033  0.43593165  1  0.118452  -0.000337  0.96218  0.0  0.127239  -0.000627  1.023429  0.0  0.130456  -0.000511  1.022787  0.0  0.106905  0.12494  -0.00069  1.024127  0.0
H  H8  1  0.85475648  0.54486174  0.93593449  1  0.118427  -0.00033  0.962163  0.0  0.12721  -0.000627  1.023413  0.0  0.130424  -0.000511  1.022773  0.0  0.106883  0.124911  -0.00069  1.02411  0.0
H  H9  1  0.64523981  0.04486047  0.56406542  1  0.11847  -0.000327  0.962112  0.0  0.127234  -0.000627  1.023374  0.0  0.130451  -0.000511  1.022732  0.0  0.106912  0.124934  -0.00069  1.024074  0.0
H  H10  1  0.94025068  0.60814092  0.13783111  1  0.068286  -0.000552  0.954914  -0.001  0.072529  -0.000281  1.028197  0.0  0.075298  -0.000114  1.024231  0.0  0.108567  0.070675  -0.000451  1.030809  -0.001
H  H11  1  0.55975207  0.10813850  0.36217061  1  0.068202  -0.000555  0.954984  -0.001  0.072482  -0.000281  1.028213  0.0  0.075252  -0.000114  1.024244  0.0  0.108548  0.07063  -0.000451  1.030825  -0.001
H  H12  1  0.05975260  0.39186290  0.86217290  1  0.068252  -0.000557  0.954938  -0.001  0.072505  -0.000281  1.028183  0.0  0.075275  -0.000114  1.024216  0.0  0.108548  0.070653  -0.000451  1.030796  -0.001
H  H13  1  0.44024663  0.89185827  0.63782790  1  0.068211  -0.000555  0.954904  -0.001  0.072477  -0.000281  1.028161  0.0  0.075247  -0.000114  1.024192  0.0  0.10855  0.070624  -0.000451  1.030774  -0.001
H  H14  1  0.92900907  0.65932818  0.52994357  1  0.114422  0.000117  0.949831  0.0  0.121413  9.3e-05  1.02194  0.0  0.123742  9.7e-05  1.020369  0.0  0.098543  0.119665  5.9e-05  1.023258  0.0
H  H15  1  0.57099286  0.15932939  0.97005676  1  0.114429  0.000118  0.949821  0.0  0.121429  9.4e-05  1.02193  0.0  0.123757  9.7e-05  1.02036  0.0  0.09853  0.119681  5.9e-05  1.023248  0.0
H  H16  1  0.07099193  0.34066858  0.47005721  1  0.114445  0.000119  0.94985  0.0  0.121408  9.3e-05  1.021956  0.0  0.123736  9.7e-05  1.020385  0.0  0.098521  0.119661  5.9e-05  1.023277  0.0
H  H17  1  0.42900700  0.84067040  0.02994289  1  0.114439  0.000121  0.949855  0.0  0.121428  9.4e-05  1.021964  0.0  0.123755  9.7e-05  1.020395  0.0  0.098533  0.119679  5.9e-05  1.023282  0.0
H  H18  1  0.01228809  0.71446006  0.69227218  1  0.112133  -0.000217  0.947236  0.0  0.128274  -0.000339  1.00584  0.0  0.130071  -0.000262  1.005105  0.0  0.092303  0.127272  -0.000412  1.006008  0.0
H  H19  1  0.48771254  0.21445963  0.80772686  1  0.112152  -0.000217  0.94717  0.0  0.128308  -0.00034  1.005761  0.0  0.130105  -0.000262  1.005025  0.0  0.092317  0.127304  -0.000412  1.005934  0.0
H  H20  1  0.98771059  0.28553671  0.30772925  1  0.112158  -0.000217  0.94722  0.0  0.128269  -0.000339  1.005838  0.0  0.130067  -0.000262  1.005101  0.0  0.092292  0.127287  -0.000412  1.005987  0.0
H  H21  1  0.51228733  0.78554117  0.19227181  1  0.112161  -0.000216  0.947218  0.0  0.128303  -0.00034  1.005809  0.0  0.1301  -0.000262  1.005072  0.0  0.09231  0.127297  -0.000412  1.005984  0.0
H  H22  1  0.83536467  0.82546209  0.37496718  1  0.097205  -0.000556  0.977302  0.0  0.105214  -0.000687  1.044841  0.0  0.109029  -0.000542  1.041728  0.0  0.087095  0.102586  -0.000858  1.046902  0.0
H  H23  1  0.66463783  0.32546315  0.12503278  1  0.097227  -0.000552  0.977285  0.0  0.105232  -0.000688  1.044831  0.0  0.109047  -0.000542  1.041718  0.0  0.087096  0.102597  -0.000858  1.0469  0.0
H  H24  1  0.16463634  0.17453468  0.62503263  1  0.09726  -0.000555  0.97721  0.0  0.105239  -0.000687  1.04479  0.0  0.109063  -0.000542  1.041666  0.0  0.087093  0.102604  -0.000858  1.04686  0.0
H  H25  1  0.33536431  0.67453463  0.87496913  1  0.097247  -0.000553  0.977269  0.0  0.105259  -0.000688  1.0448  0.0  0.109074  -0.000542  1.041687  0.0  0.087111  0.102625  -0.000858  1.046868  0.0
H  H26  1  0.18216464  0.93540050  0.70003186  1  0.0887  0.000208  0.976049  0.0  0.094149  0.00015  1.050294  0.0  0.096827  0.000143  1.049675  0.0  0.088549  0.092018  0.000121  1.051275  0.0
H  H27  1  0.31783571  0.43539930  0.79996837  1  0.088699  0.000202  0.976055  0.0  0.094162  0.00015  1.050282  0.0  0.09684  0.000143  1.049662  0.0  0.088567  0.092032  0.000121  1.051263  0.0
H  H28  1  0.81783519  0.06459727  0.29997071  1  0.088705  0.000207  0.976179  0.0  0.094127  0.00015  1.050431  0.0  0.096803  0.000144  1.049815  0.0  0.088555  0.091997  0.000121  1.051411  0.0
H  H29  1  0.68216296  0.56459948  0.20003404  1  0.088747  0.000207  0.976108  0.0  0.094194  0.00015  1.050348  0.0  0.096874  0.000143  1.049728  0.0  0.088588  0.09206  0.000121  1.051326  0.0
C  C30  1  0.28805775  0.47198731  0.25342499  1  0.19743  0.010818  3.641346  0.008  0.163053  0.002759  3.891969  0.002  0.17639  0.004503  3.908453  0.003  0.068666  0.15469  0.000515  3.881416  0.001
C  C31  1  0.21194683  0.97198974  0.24657271  1  0.197433  0.01081  3.641349  0.008  0.162993  0.002758  3.892045  0.002  0.176332  0.004504  3.90853  0.003  0.068647  0.154631  0.000515  3.88149  0.001
C  C32  1  0.71194441  0.52801550  0.74657595  1  0.197475  0.010792  3.6415  0.008  0.163082  0.002758  3.892108  0.002  0.176424  0.004502  3.908581  0.003  0.068686  0.154723  0.000515  3.881556  0.001
C  C33  1  0.78805191  0.02801408  0.75342289  1  0.19748  0.010802  3.64131  0.008  0.163063  0.002759  3.891944  0.002  0.176403  0.004502  3.908426  0.003  0.068673  0.154706  0.000515  3.881394  0.001
C  C34  1  0.15674148  0.49680863  0.16271038  1  -0.163389  -0.011005  3.693338  -0.011  -0.17516  -0.005291  3.940368  -0.005  -0.184765  -0.004804  3.958002  -0.005  -0.085125  -0.169433  -0.005434  3.92879  -0.005
C  C35  1  0.34325843  0.99680935  0.33728778  1  -0.163295  -0.010992  3.693345  -0.011  -0.175055  -0.00529  3.940401  -0.005  -0.184658  -0.004805  3.958034  -0.005  -0.085085  -0.169331  -0.005434  3.928824  -0.005
C  C36  1  0.84325840  0.50319317  0.83728635  1  -0.163377  -0.011004  3.693515  -0.011  -0.175145  -0.005291  3.940546  -0.005  -0.184745  -0.004804  3.958177  -0.005  -0.085137  -0.169418  -0.005434  3.928966  -0.005
C  C37  1  0.65673793  0.00319144  0.66271431  1  -0.163339  -0.011006  3.693415  -0.011  -0.175077  -0.005292  3.940451  -0.005  -0.18468  -0.004804  3.958083  -0.005  -0.085106  -0.169352  -0.005434  3.928873  -0.005
C  C38  1  0.04405942  0.57846025  0.20439027  1  0.19445  0.011472  3.688641  0.008  0.164032  0.003753  3.949027  0.003  0.177177  0.004816  3.95976  0.003  0.069259  0.155388  0.002873  3.941222  0.002
C  C39  1  0.45594444  0.07846383  0.29561198  1  0.194486  0.011489  3.688533  0.008  0.164032  0.003754  3.948973  0.003  0.17718  0.004816  3.959705  0.003  0.069249  0.155389  0.002873  3.941169  0.002
C  C40  1  0.95594156  0.42154055  0.79561245  1  0.194476  0.011496  3.6887  0.008  0.164058  0.003753  3.949108  0.003  0.177203  0.004816  3.959842  0.003  0.069261  0.155414  0.002873  3.941304  0.002
C  C41  1  0.54405542  0.92153697  0.70438767  1  0.194491  0.011484  3.688572  0.008  0.164044  0.003754  3.948983  0.003  0.17719  0.004815  3.959715  0.003  0.069262  0.155401  0.002873  3.941178  0.002
C  C42  1  0.18406945  0.59468605  0.41049143  1  0.337931  0.009218  3.794927  0.007  0.321839  0.001948  4.073864  0.002  0.342323  0.003561  4.086215  0.003  0.241227  0.308604  0.000293  4.064886  0.0
C  C43  1  0.31593673  0.09468766  0.08950830  1  0.337819  0.009219  3.795174  0.007  0.321816  0.001948  4.073981  0.002  0.3423  0.003561  4.08633  0.003  0.241209  0.308578  0.000292  4.065003  0.0
C  C44  1  0.81593155  0.40531575  0.58950935  1  0.337947  0.009222  3.795033  0.007  0.321882  0.001949  4.073904  0.002  0.342366  0.003559  4.086254  0.003  0.241239  0.308648  0.000293  4.064927  0.0
C  C45  1  0.68406659  0.90531415  0.91049182  1  0.337861  0.009222  3.795135  0.007  0.321783  0.001949  4.074013  0.002  0.342265  0.00356  4.086364  0.003  0.2412  0.30855  0.000293  4.065035  0.0
C  C46  1  0.01996533  0.72081570  0.58631792  1  -0.173338  0.000402  3.629653  0.0  -0.208409  0.000268  3.872338  0.0  -0.206131  0.000415  3.880429  0.0  -0.142559  -0.209522  0.000144  3.866006  0.0
C  C47  1  0.48003759  0.22081791  0.91368245  1  -0.173327  0.000413  3.629545  0.0  -0.208423  0.000269  3.872245  0.0  -0.206145  0.000415  3.880335  0.0  -0.142519  -0.209538  0.000144  3.865915  0.0
C  C48  1  0.98003566  0.27918006  0.41368383  1  -0.173435  0.000403  3.629811  0.0  -0.208389  0.000268  3.872332  0.0  -0.20611  0.000415  3.880421  0.0  -0.142504  -0.20952  0.000144  3.865993  0.0
C  C49  1  0.51996227  0.77918288  0.08631720  1  -0.173422  0.000412  3.62968  0.0  -0.208464  0.000269  3.872315  0.0  -0.206186  0.000414  3.880404  0.0  -0.14253  -0.209577  0.000144  3.865982  0.0
C  C50  1  0.01098043  0.86455895  0.54091917  1  0.098723  -0.000597  3.763988  -0.001  0.11975  -0.000171  3.996399  0.0  0.118909  -4.8e-05  4.022098  0.0  -0.01904  0.120217  -0.000249  3.978749  0.0
C  C51  1  0.48902001  0.36456040  0.95907970  1  0.098706  -0.000595  3.763938  -0.001  0.119748  -0.000168  3.996352  0.0  0.118907  -4.9e-05  4.022051  0.0  -0.019048  0.120216  -0.000249  3.978702  0.0
C  C52  1  0.98901828  0.13543681  0.45907935  1  0.098739  -0.000621  3.764029  -0.001  0.119783  -0.000172  3.996374  0.0  0.118942  -4.9e-05  4.022075  0.0  -0.019067  0.12025  -0.000249  3.978727  0.0
C  C53  1  0.51097983  0.63543939  0.04092092  1  0.098782  -0.000608  3.763896  -0.001  0.119802  -0.000168  3.996311  0.0  0.118961  -5e-05  4.022011  0.0  -0.019038  0.120269  -0.000249  3.978658  0.0
C  C54  1  0.90740940  0.90243173  0.42918970  1  -0.118432  -0.002324  3.761576  -0.002  -0.138706  -0.001466  4.010898  -0.001  -0.141046  -0.001014  4.03195  -0.001  -0.099111  -0.136833  -0.001832  3.996267  -0.001
C  C55  1  0.59258953  0.40243360  0.07081117  1  -0.118453  -0.002325  3.761528  -0.002  -0.138727  -0.001466  4.010845  -0.001  -0.141068  -0.001013  4.0319  -0.001  -0.099124  -0.136846  -0.001832  3.996215  -0.001
C  C56  1  0.09258930  0.09756403  0.57080979  1  -0.118572  -0.0023  3.76152  -0.002  -0.138843  -0.001464  4.010847  -0.001  -0.14119  -0.001013  4.031895  -0.001  -0.099174  -0.136963  -0.001832  3.996222  -0.001
C  C57  1  0.40741029  0.59756619  0.92919140  1  -0.118552  -0.002308  3.761515  -0.002  -0.138836  -0.001466  4.010876  -0.001  -0.141178  -0.001012  4.03193  -0.001  -0.099189  -0.136957  -0.001832  3.996249  -0.001
C  C58  1  0.10362335  0.96344207  0.61115005  1  -0.141553  -0.0003  3.777273  0.0  -0.161276  -0.000266  4.030689  0.0  -0.165256  -9.3e-05  4.054206  0.0  -0.103504  -0.158699  -0.00032  4.01523  0.0
C  C59  1  0.39637813  0.46344327  0.88884853  1  -0.141591  -0.00029  3.777204  0.0  -0.16133  -0.000267  4.030642  0.0  -0.16531  -9.4e-05  4.054156  0.0  -0.103542  -0.158753  -0.00032  4.015185  0.0
C  C60  1  0.89637534  0.03655469  0.38884944  1  -0.141533  -0.000272  3.777445  0.0  -0.161243  -0.000264  4.030873  0.0  -0.165224  -9.3e-05  4.054389  0.0  -0.103479  -0.158667  -0.00032  4.015417  0.0
C  C61  1  0.60362518  0.53655652  0.11115256  1  -0.141611  -0.000288  3.777319  0.0  -0.161336  -0.000268  4.030734  0.0  -0.16532  -9.2e-05  4.054253  0.0  -0.103538  -0.158751  -0.00032  4.015268  0.0
S  S62  1  0.20558701  0.64072541  0.57618582  1  -0.002257  0.003555  2.368661  0.001  -0.010523  0.002358  2.718088  0.0  -0.020699  0.002783  2.71596  0.0  0.046068  -0.003907  0.001592  2.719727  0.0
S  S63  1  0.29441601  0.14072698  0.92381412  1  -0.002228  0.00355  2.368703  0.001  -0.010513  0.002358  2.718118  0.0  -0.020685  0.002783  2.715985  0.0  0.046074  -0.003897  0.001593  2.719757  0.0
S  S64  1  0.79441398  0.35927438  0.42381593  1  -0.002224  0.003556  2.368756  0.001  -0.010528  0.002357  2.718141  0.0  -0.020706  0.002783  2.716013  0.0  0.046071  -0.003912  0.001592  2.719786  0.0
S  S65  1  0.70558503  0.85927583  0.07618277  1  -0.00223  0.003543  2.368768  0.001  -0.010508  0.002358  2.718176  0.0  -0.020679  0.002783  2.71604  0.0  0.046062  -0.003892  0.001592  2.719811  0.0
N  N66  1  0.30354903  0.52305390  0.37586931  1  -0.374197  -0.080017  3.356936  -0.1  -0.312789  -0.059108  3.636115  -0.078  -0.34692  -0.050997  3.654804  -0.072  -0.354209  -0.292959  -0.063159  3.625278  -0.08
N  N67  1  0.19645263  0.02305490  0.12412844  1  -0.374075  -0.080024  3.356772  -0.1  -0.312676  -0.059108  3.635932  -0.078  -0.346801  -0.050997  3.654612  -0.072  -0.354135  -0.292843  -0.063158  3.625089  -0.08
N  N68  1  0.69645312  0.47694791  0.62413259  1  -0.374229  -0.080024  3.356922  -0.1  -0.312792  -0.059109  3.636049  -0.078  -0.346923  -0.050997  3.654739  -0.072  -0.354205  -0.292972  -0.06316  3.625225  -0.08
N  N69  1  0.80354610  0.97694590  0.87586814  1  -0.374182  -0.080025  3.356887  -0.1  -0.312719  -0.059111  3.636003  -0.078  -0.346842  -0.050998  3.65468  -0.072  -0.354172  -0.292903  -0.063162  3.625182  -0.08
N  N70  1  0.05601103  0.62572032  0.32772491  1  -0.36578  -0.015648  3.051095  -0.018  -0.326743  -0.008035  3.31711  -0.01  -0.345174  -0.005766  3.330711  -0.008  -0.308442  -0.313601  -0.010112  3.306798  -0.012
N  N71  1  0.44399277  0.12572018  0.17227662  1  -0.365792  -0.015652  3.051232  -0.018  -0.326781  -0.008035  3.317245  -0.01  -0.345213  -0.005765  3.330846  -0.008  -0.308472  -0.313639  -0.010111  3.306933  -0.012
N  N72  1  0.94399228  0.37428149  0.67227618  1  -0.365778  -0.015651  3.051104  -0.018  -0.32676  -0.008035  3.317108  -0.01  -0.345191  -0.005766  3.330709  -0.008  -0.308426  -0.313618  -0.010112  3.306796  -0.012
N  N73  1  0.55600824  0.87428062  0.82772319  1  -0.365758  -0.01565  3.051088  -0.018  -0.326739  -0.008036  3.31711  -0.01  -0.345171  -0.005766  3.330713  -0.008  -0.308444  -0.313597  -0.010112  3.306795  -0.012
Cl  Cl74  1  0.57648452  0.70732831  0.44432705  1  -0.534114  -0.122102  0.916738  -0.144  -0.519942  -0.086407  1.191955  -0.108  -0.550501  -0.069474  1.172046  -0.094  -0.316562  -0.502549  -0.095036  1.206537  -0.113
Cl  Cl75  1  0.92351583  0.20732752  0.05567196  1  -0.534127  -0.1221  0.916793  -0.144  -0.51995  -0.086408  1.192005  -0.108  -0.550498  -0.069474  1.172091  -0.094  -0.316562  -0.502559  -0.095036  1.206591  -0.113
Cl  Cl76  1  0.42351764  0.29267450  0.55567388  1  -0.534146  -0.122104  0.916771  -0.144  -0.519971  -0.086409  1.191979  -0.108  -0.550531  -0.069476  1.17207  -0.094  -0.316579  -0.502577  -0.095038  1.206559  -0.113
Cl  Cl77  1  0.07648403  0.79267227  0.94432768  1  -0.534147  -0.122101  0.916766  -0.144  -0.519964  -0.086408  1.191978  -0.108  -0.550512  -0.069475  1.172065  -0.094  -0.316571  -0.502571  -0.095038  1.206558  -0.113
