# generated using pymatgen
data_ZnH18C24SN2O7
_symmetry_space_group_name_H-M   'P 1'
_cell_length_a   6.77995380
_cell_length_b   16.32470203
_cell_length_c   23.84828087
_cell_angle_alpha   90.00004804
_cell_angle_beta   90.45710583
_cell_angle_gamma   90.00005714
_symmetry_Int_Tables_number   1
_chemical_formula_structural   ZnH18C24SN2O7
_chemical_formula_sum   'Zn4 H72 C96 S4 N8 O28'
_cell_volume   2639.46102898
_cell_formula_units_Z   4
loop_
 _symmetry_equiv_pos_site_id
 _symmetry_equiv_pos_as_xyz
  1  'x, y, z'
loop_
 _atom_site_type_symbol
 _atom_site_label
 _atom_site_symmetry_multiplicity
 _atom_site_fract_x
 _atom_site_fract_y
 _atom_site_fract_z
 _atom_site_occupancy
 _atom_site_pbe_bader_charge
 _atom_site_pbe_bader_spin_density
 _atom_site_pbe_cm5_charge
 _atom_site_pbe_ddec_charge
 _atom_site_pbe_ddec_spin_density
 _atom_site_pbe_ddec_sum_bond_order
 _atom_site_pbe_magmom
Zn  Zn0  1  0.28625934  0.87478118  0.10727703  1  1.299678  0  0.68562  0.831702  0  2.329431  0
Zn  Zn1  1  0.21373672  0.37477466  0.39272396  1  1.299644  0  0.685598  0.831658  0  2.32947  0
Zn  Zn2  1  0.71373254  0.12522198  0.89272410  1  1.299596  0  0.685593  0.831637  0  2.32953  0
Zn  Zn3  1  0.78626108  0.62522115  0.60727593  1  1.299588  0  0.685609  0.831648  0  2.329515  0
H  H4  1  0.67300147  0.83046193  0.12088807  1  0.660974  0  0.292506  0.398547  0  0.932225  0
H  H5  1  0.82698594  0.33046035  0.37911001  1  0.661072  0  0.292568  0.398644  0  0.932047  0
H  H6  1  0.32699042  0.16954000  0.87911264  1  0.660943  0  0.292564  0.39864  0  0.932065  0
H  H7  1  0.17300745  0.66953913  0.62088735  1  0.66095  0  0.29257  0.398661  0  0.932046  0
H  H8  1  0.53585390  0.84179385  0.17814120  1  0.662867  0  0.284203  0.379385  0  0.963798  0
H  H9  1  0.96414385  0.34179348  0.32185818  1  0.662819  0  0.284153  0.379282  0  0.963937  0
H  H10  1  0.46414242  0.15821054  0.82185994  1  0.662836  0  0.284187  0.379331  0  0.963866  0
H  H11  1  0.03585543  0.65820907  0.67814087  1  0.662826  0  0.284168  0.379311  0  0.963893  0
H  H12  1  0.85297138  0.88018362  0.23314204  1  0.107607  0  0.109924  0.120841  0  1.001286  0
H  H13  1  0.64702646  0.38019040  0.26685652  1  0.107653  0  0.109999  0.120891  0  1.001321  0
H  H14  1  0.14701315  0.11981157  0.76685739  1  0.107987  0  0.109947  0.120842  0  1.001326  0
H  H15  1  0.35299345  0.61980786  0.73314510  1  0.108087  0  0.109938  0.120821  0  1.001364  0
H  H16  1  0.63484140  0.89289749  0.31593535  1  0.130843  0  0.106359  0.111979  0  1.024292  0
H  H17  1  0.86514764  0.39290242  0.18406067  1  0.130915  0  0.10643  0.112043  0  1.024215  0
H  H18  1  0.36513281  0.10709710  0.68406279  1  0.130838  0  0.106433  0.112067  0  1.024262  0
H  H19  1  0.13487228  0.60709523  0.81593969  1  0.130894  0  0.106474  0.112136  0  1.024158  0
H  H20  1  0.13836454  0.85497332  0.42558779  1  0.095633  0  0.108689  0.117187  0  1.016041  0
H  H21  1  0.36161674  0.35497873  0.07441146  1  0.095531  0  0.108736  0.117272  0  1.01598  0
H  H22  1  0.86160670  0.14502922  0.57441286  1  0.095563  0  0.108725  0.117189  0  1.01613  0
H  H23  1  0.63839727  0.64502994  0.92559015  1  0.095442  0  0.108727  0.117233  0  1.015998  0
H  H24  1  0.35110956  0.83483696  0.34136721  1  0.131601  0  0.104069  0.105734  0  1.043511  0
H  H25  1  0.14887313  0.33485218  0.15863414  1  0.132319  0  0.104073  0.105703  0  1.043624  0
H  H26  1  0.64886461  0.16515762  0.65863597  1  0.132008  0  0.104006  0.10566  0  1.043636  0
H  H27  1  0.85113942  0.66516323  0.84136579  1  0.131855  0  0.104077  0.105781  0  1.043691  0
H  H28  1  0.36850563  0.96725228  0.39798970  1  0.123955  0  0.10213  0.105212  0  1.047235  0
H  H29  1  0.13149067  0.46725395  0.10200882  1  0.124081  0  0.10211  0.105217  0  1.047213  0
H  H30  1  0.63149511  0.03274598  0.60201145  1  0.123981  0  0.1021  0.105149  0  1.047191  0
H  H31  1  0.86851305  0.53274615  0.89798857  1  0.124032  0  0.102097  0.105137  0  1.047269  0
H  H32  1  0.27540685  0.11546397  0.38852476  1  0.121251  0  0.110765  0.12015  0  0.987536  0
H  H33  1  0.22459893  0.61546679  0.11147737  1  0.121187  0  0.110749  0.120109  0  0.987455  0
H  H34  1  0.72460272  0.88453490  0.61147852  1  0.121229  0  0.110724  0.120092  0  0.987483  0
H  H35  1  0.77539886  0.38453515  0.88852294  1  0.121183  0  0.11076  0.120146  0  0.987448  0
H  H36  1  0.84811010  0.18585255  0.45051246  1  0.092732  0  0.108012  0.114289  0  1.00163  0
H  H37  1  0.65190351  0.68586139  0.04948771  1  0.09209  0  0.108008  0.114266  0  1.001548  0
H  H38  1  0.15191427  0.81414019  0.54948457  1  0.092139  0  0.107983  0.114192  0  1.001621  0
H  H39  1  0.34809874  0.31413932  0.95050841  1  0.092387  0  0.108003  0.114266  0  1.001606  0
H  H40  1  0.94055147  0.03992220  0.46202827  1  0.138643  0  0.106788  0.116462  0  1.029009  0
H  H41  1  0.55944114  0.53993159  0.03797427  1  0.138784  0  0.106738  0.116417  0  1.029038  0
H  H42  1  0.05945815  0.96006932  0.53796871  1  0.138866  0  0.106768  0.116409  0  1.028999  0
H  H43  1  0.44056110  0.46006850  0.96202185  1  0.138765  0  0.106745  0.116374  0  1.02907  0
H  H44  1  0.35190232  0.77323379  0.99711461  1  0.165837  0  0.119179  0.096035  0  1.012005  0
H  H45  1  0.14810463  0.27322861  0.50288672  1  0.165726  0  0.119194  0.096019  0  1.012268  0
H  H46  1  0.64809401  0.22676875  0.00288359  1  0.165736  0  0.119197  0.096058  0  1.012212  0
H  H47  1  0.85190939  0.72677027  0.49711364  1  0.165711  0  0.119209  0.09605  0  1.012242  0
H  H48  1  0.34858431  0.80043361  0.89351702  1  0.08946  0  0.108303  0.11396  0  1.005513  0
H  H49  1  0.15141238  0.30042917  0.60648345  1  0.089388  0  0.108284  0.113867  0  1.005563  0
H  H50  1  0.65140612  0.19956893  0.10648158  1  0.089459  0  0.108316  0.113908  0  1.005518  0
H  H51  1  0.84860754  0.69956848  0.39351692  1  0.089371  0  0.108274  0.113856  0  1.005563  0
H  H52  1  0.28574280  0.94522948  0.86024602  1  0.08125  0  0.116988  0.115355  0  0.964094  0
H  H53  1  0.21424980  0.44522449  0.63975453  1  0.081225  0  0.11701  0.115406  0  0.96408  0
H  H54  1  0.71425648  0.05477368  0.13975220  1  0.081285  0  0.117028  0.115424  0  0.964045  0
H  H55  1  0.78574209  0.55477499  0.36024534  1  0.081209  0  0.117004  0.115417  0  0.964045  0
H  H56  1  0.22310852  0.05372963  0.93038963  1  0.14777  0  0.115088  0.134791  0  1.018236  0
H  H57  1  0.27687875  0.55372568  0.56961152  1  0.147881  0  0.115092  0.134782  0  1.018362  0
H  H58  1  0.77689814  0.94627353  0.06960860  1  0.147775  0  0.115078  0.134774  0  1.018338  0
H  H59  1  0.72308364  0.44627626  0.43038869  1  0.147816  0  0.115089  0.134834  0  1.018224  0
H  H60  1  0.18723410  0.13922647  0.99330650  1  0.168226  0  0.108923  0.129522  0  1.050569  0
H  H61  1  0.31275633  0.63922246  0.50669429  1  0.168196  0  0.10896  0.129537  0  1.050508  0
H  H62  1  0.81275485  0.86077669  0.00669294  1  0.168229  0  0.108968  0.129573  0  1.050523  0
H  H63  1  0.68722968  0.36077764  0.49330473  1  0.16814  0  0.108958  0.129563  0  1.050567  0
H  H64  1  0.13769930  0.23237553  0.07386046  1  0.156317  0  0.111623  0.122989  0  1.01881  0
H  H65  1  0.36230234  0.73237144  0.42614089  1  0.156344  0  0.111643  0.123033  0  1.01876  0
H  H66  1  0.86231029  0.76762702  0.92614072  1  0.156383  0  0.111616  0.122975  0  1.018795  0
H  H67  1  0.63770285  0.26762620  0.57385651  1  0.156444  0  0.111619  0.122991  0  1.018773  0
H  H68  1  0.15647558  0.17598436  0.17213300  1  0.098629  0  0.114447  0.123891  0  0.988845  0
H  H69  1  0.34354510  0.67597709  0.32786836  1  0.098613  0  0.114477  0.123918  0  0.98885  0
H  H70  1  0.84355909  0.82402002  0.82786741  1  0.098954  0  0.114486  0.123979  0  0.988702  0
H  H71  1  0.65647188  0.32401443  0.67213032  1  0.099066  0  0.114445  0.1239  0  0.988875  0
H  H72  1  0.21173215  0.02382234  0.18385633  1  0.128335  0  0.12242  0.097442  0  0.991752  0
H  H73  1  0.28828227  0.52381564  0.31614576  1  0.128258  0  0.122339  0.09739  0  0.991834  0
H  H74  1  0.78828482  0.97618082  0.81614361  1  0.128245  0  0.122353  0.097369  0  0.991746  0
H  H75  1  0.71173321  0.47617772  0.68385585  1  0.128347  0  0.122454  0.097543  0  0.991695  0
C  C76  1  0.24700031  0.85406356  0.23172314  1  1.584801  0  0.206492  0.569886  0  4.214303  0
C  C77  1  0.25298981  0.35406733  0.26827782  1  1.584565  0  0.20662  0.570082  0  4.214137  0
C  C78  1  0.75299010  0.14593592  0.76827882  1  1.585251  0  0.206533  0.570148  0  4.214147  0
C  C79  1  0.74701684  0.64593583  0.73172252  1  1.585429  0  0.206581  0.570126  0  4.214222  0
C  C80  1  0.11536756  0.85767588  0.28234167  1  -0.022637  0  -0.010149  -0.020076  0  3.946855  0
C  C81  1  0.38462994  0.35768699  0.21765889  1  -0.022867  0  -0.010091  -0.020146  0  3.946955  0
C  C82  1  0.88461843  0.14231931  0.71765986  1  -0.023507  0  -0.010089  -0.020109  0  3.947058  0
C  C83  1  0.61538703  0.64231617  0.78234105  1  -0.022899  0  -0.010066  -0.02008  0  3.947108  0
C  C84  1  0.91321695  0.87370942  0.27539519  1  -0.016635  0  -0.076383  -0.075067  0  3.921833  0
C  C85  1  0.58677793  0.37371674  0.22460294  1  -0.017323  0  -0.076507  -0.075128  0  3.922115  0
C  C86  1  0.08676757  0.12628577  0.72460508  1  -0.017026  0  -0.076519  -0.075074  0  3.921962  0
C  C87  1  0.41323905  0.62628397  0.77539700  1  -0.017592  0  -0.076492  -0.075059  0  3.921966  0
C  C88  1  0.79213943  0.88177083  0.32186336  1  -0.068744  0  -0.081044  -0.08596  0  3.970441  0
C  C89  1  0.70785104  0.38177875  0.17813559  1  -0.068069  0  -0.081034  -0.085915  0  3.970476  0
C  C90  1  0.20783918  0.11822314  0.67813773  1  -0.068465  0  -0.081065  -0.086011  0  3.970315  0
C  C91  1  0.29216741  0.61821951  0.82186393  1  -0.068371  0  -0.081162  -0.086187  0  3.970419  0
C  C92  1  0.87613175  0.87552881  0.37552063  1  -0.232722  0  -0.02504  -0.090817  0  4.005806  0
C  C93  1  0.62385723  0.37553785  0.12447874  1  -0.232924  0  -0.025082  -0.090834  0  4.00608  0
C  C94  1  0.12384392  0.12446516  0.62448045  1  -0.232831  0  -0.025096  -0.090998  0  4.005658  0
C  C95  1  0.37616122  0.62446409  0.87552120  1  -0.232503  0  -0.02505  -0.090804  0  4.005674  0
C  C96  1  0.07662042  0.85896111  0.38332459  1  -0.003248  0  -0.086691  -0.103876  0  3.994587  0
C  C97  1  0.42336825  0.35897088  0.11667385  1  -0.002943  0  -0.086751  -0.104017  0  3.994473  0
C  C98  1  0.92335672  0.14103654  0.61667607  1  -0.002997  0  -0.086687  -0.103783  0  3.994451  0
C  C99  1  0.57664725  0.64103534  0.88332609  1  -0.002673  0  -0.086659  -0.103809  0  3.994155  0
C  C100  1  0.19487991  0.84854866  0.33628584  1  -0.055  0  -0.084967  -0.101435  0  3.976967  0
C  C101  1  0.30510577  0.34856028  0.16371468  1  -0.05589  0  -0.085038  -0.101443  0  3.976716  0
C  C102  1  0.80510017  0.15144653  0.66371651  1  -0.055369  0  -0.08492  -0.101407  0  3.976874  0
C  C103  1  0.69490678  0.65144900  0.83628483  1  -0.055593  0  -0.085057  -0.101604  0  3.976991  0
C  C104  1  0.65888358  0.99558060  0.43031604  1  -0.246849  0  -0.021786  -0.079896  0  3.998931  0
C  C105  1  0.84110419  0.49558722  0.06968465  1  -0.247168  0  -0.021721  -0.079742  0  3.998689  0
C  C106  1  0.34111273  0.00441459  0.56968635  1  -0.246873  0  -0.021825  -0.079902  0  3.998886  0
C  C107  1  0.15889805  0.50441349  0.93031273  1  -0.246945  0  -0.021727  -0.079796  0  3.998826  0
C  C108  1  0.47205146  0.01552529  0.40926577  1  -0.015344  0  -0.085652  -0.095543  0  3.985893  0
C  C109  1  0.02794083  0.51553351  0.09073500  1  -0.015193  0  -0.085619  -0.09559  0  3.985996  0
C  C110  1  0.52794927  0.98447052  0.59073622  1  -0.015291  0  -0.085525  -0.095415  0  3.985874  0
C  C111  1  0.97205404  0.48446903  0.90926194  1  -0.015254  0  -0.085566  -0.09546  0  3.985864  0
C  C112  1  0.42105761  0.09766154  0.40374637  1  0.000323  0  -0.076038  -0.071863  0  3.941158  0
C  C113  1  0.07893782  0.59766612  0.09625404  1  0.000235  0  -0.075971  -0.071709  0  3.941158  0
C  C114  1  0.57894460  0.90233611  0.59625521  1  0.000214  0  -0.076064  -0.071899  0  3.941258  0
C  C115  1  0.92106292  0.40233521  0.90374627  1  0.0003  0  -0.076055  -0.071901  0  3.9414  0
C  C116  1  0.55622121  0.15922779  0.41826997  1  -0.071432  0  -0.008384  -0.021868  0  3.938638  0
C  C117  1  0.94377905  0.65923495  0.08173267  1  -0.071406  0  -0.0084  -0.021918  0  3.938501  0
C  C118  1  0.44378838  0.84076925  0.58173163  1  -0.071199  0  -0.008388  -0.02182  0  3.938549  0
C  C119  1  0.05621138  0.34076821  0.91826594  1  -0.071179  0  -0.008367  -0.02179  0  3.938455  0
C  C120  1  0.74342141  0.13796558  0.43901488  1  0.008876  0  -0.075838  -0.074717  0  3.928621  0
C  C121  1  0.75657734  0.63797203  0.06098606  1  0.009827  0  -0.075976  -0.074807  0  3.928337  0
C  C122  1  0.25658672  0.86202961  0.56098378  1  0.009687  0  -0.0759  -0.074759  0  3.928441  0
C  C123  1  0.24342637  0.36202868  0.93901216  1  0.009384  0  -0.075941  -0.074804  0  3.928196  0
C  C124  1  0.79569915  0.05592490  0.44535469  1  -0.049813  0  -0.084146  -0.094405  0  3.966793  0
C  C125  1  0.70429350  0.55593560  0.05464744  1  -0.050047  0  -0.084034  -0.094328  0  3.966652  0
C  C126  1  0.20430602  0.94406907  0.55464438  1  -0.050345  0  -0.084009  -0.09419  0  3.966601  0
C  C127  1  0.29570432  0.44406878  0.94534951  1  -0.05027  0  -0.084024  -0.094222  0  3.966751  0
C  C128  1  0.49571204  0.24759141  0.41252823  1  1.572983  0  0.214204  0.583528  0  4.190902  0
C  C129  1  0.00429112  0.74759594  0.08747061  1  1.57279  0  0.214121  0.583453  0  4.190953  0
C  C130  1  0.50429167  0.75240379  0.58747000  1  1.572872  0  0.214074  0.583311  0  4.190926  0
C  C131  1  0.99569928  0.25240477  0.91253219  1  1.572609  0  0.214102  0.583298  0  4.190967  0
C  C132  1  0.32795623  0.83472035  0.98046723  1  0.403609  0  0.055551  0.109589  0  3.923908  0
C  C133  1  0.17203907  0.33471397  0.51953368  1  0.40338  0  0.055565  0.109641  0  3.924034  0
C  C134  1  0.67204010  0.16528403  0.01953182  1  0.403603  0  0.055495  0.109449  0  3.924024  0
C  C135  1  0.82795872  0.66528490  0.48046788  1  0.40346  0  0.055576  0.109573  0  3.923976  0
C  C136  1  0.32425102  0.85030529  0.92297720  1  -0.046754  0  -0.078842  -0.122613  0  3.965812  0
C  C137  1  0.17574136  0.35030020  0.57702371  1  -0.046516  0  -0.078856  -0.122549  0  3.965857  0
C  C138  1  0.67574236  0.14969604  0.07702184  1  -0.046827  0  -0.078917  -0.12256  0  3.965948  0
C  C139  1  0.82426381  0.64969806  0.42297577  1  -0.04656  0  -0.078905  -0.122536  0  3.965702  0
C  C140  1  0.28880401  0.93014011  0.90476768  1  0.091963  0  -0.061337  -0.017814  0  3.956173  0
C  C141  1  0.21118560  0.43013506  0.59523411  1  0.091781  0  -0.061274  -0.017756  0  3.956276  0
C  C142  1  0.71119526  0.06986489  0.09523179  1  0.092003  0  -0.061279  -0.017844  0  3.95611  0
C  C143  1  0.78880039  0.56986442  0.40476700  1  0.092001  0  -0.061228  -0.017789  0  3.956339  0
C  C144  1  0.25524878  0.99152869  0.94414881  1  -0.047823  0  -0.07568  -0.145564  0  3.899093  0
C  C145  1  0.24473803  0.49152483  0.55585175  1  -0.048601  0  -0.075725  -0.145634  0  3.899372  0
C  C146  1  0.74475345  0.00847386  0.05585025  1  -0.048335  0  -0.075728  -0.14553  0  3.899155  0
C  C147  1  0.75523765  0.50847710  0.44414724  1  -0.04797  0  -0.075793  -0.145733  0  3.899488  0
C  C148  1  0.26245199  0.97139788  0.00116432  1  0.44815  0  0.117385  0.157913  0  4.000103  0
C  C149  1  0.23753692  0.47139273  0.49883670  1  0.449026  0  0.117323  0.157815  0  4.000206  0
C  C150  1  0.73754728  0.02860528  0.99883473  1  0.448561  0  0.117323  0.157715  0  4.000352  0
C  C151  1  0.76244023  0.52860675  0.50116355  1  0.448138  0  0.117372  0.157895  0  4.000238  0
C  C152  1  0.22973011  0.03211889  0.04635127  1  0.461785  0  0.119468  0.161151  0  4.002973  0
C  C153  1  0.27026222  0.53211296  0.45364951  1  0.461518  0  0.119509  0.161123  0  4.003015  0
C  C154  1  0.77027212  0.96788488  0.95364821  1  0.461773  0  0.119482  0.161209  0  4.003096  0
C  C155  1  0.72971788  0.46788407  0.54634948  1  0.461639  0  0.119511  0.161156  0  4.003006  0
C  C156  1  0.19560319  0.11527874  0.03596655  1  -0.010178  0  -0.079419  -0.15349  0  3.910078  0
C  C157  1  0.30439375  0.61527468  0.46403471  1  -0.00992  0  -0.07949  -0.153459  0  3.910028  0
C  C158  1  0.80439460  0.88472381  0.96403376  1  -0.009982  0  -0.079507  -0.153589  0  3.909987  0
C  C159  1  0.69559668  0.38472542  0.53596348  1  -0.010214  0  -0.079556  -0.15362  0  3.910081  0
C  C160  1  0.16852801  0.16781632  0.08127099  1  -0.03898  0  -0.063425  -0.021365  0  3.940113  0
C  C161  1  0.33147642  0.66780915  0.41873074  1  -0.039059  0  -0.063508  -0.021491  0  3.940321  0
C  C162  1  0.83148305  0.83218868  0.91872935  1  -0.03912  0  -0.063477  -0.021372  0  3.940164  0
C  C163  1  0.66852286  0.33218605  0.58126747  1  -0.039033  0  -0.063443  -0.021358  0  3.939913  0
C  C164  1  0.17696248  0.13662069  0.13570940  1  -0.041967  0  -0.078592  -0.130331  0  3.960005  0
C  C165  1  0.32305368  0.63661651  0.36429319  1  -0.042519  0  -0.078561  -0.130248  0  3.959958  0
C  C166  1  0.82306038  0.86338186  0.86429224  1  -0.042868  0  -0.078608  -0.13044  0  3.960008  0
C  C167  1  0.67695740  0.36337930  0.63570506  1  -0.042274  0  -0.078546  -0.130262  0  3.959961  0
C  C168  1  0.20875543  0.05292545  0.14272216  1  0.439308  0  0.05453  0.103266  0  3.947637  0
C  C169  1  0.29125317  0.55291757  0.35727868  1  0.440015  0  0.054556  0.10323  0  3.947553  0
C  C170  1  0.79126154  0.94707832  0.85727778  1  0.440026  0  0.054678  0.103495  0  3.947449  0
C  C171  1  0.70874905  0.44707395  0.64272080  1  0.439428  0  0.054443  0.103049  0  3.947544  0
S  S172  1  0.72532114  0.89067089  0.43531072  1  2.470101  0  0.476989  0.964719  0  5.741029  0
S  S173  1  0.77466639  0.39067564  0.06468950  1  2.469896  0  0.476959  0.964486  0  5.741397  0
S  S174  1  0.27467515  0.10932614  0.56469336  1  2.47047  0  0.477072  0.964779  0  5.74048  0
S  S175  1  0.22533584  0.60932385  0.93530873  1  2.4701  0  0.477051  0.964664  0  5.741074  0
N  N176  1  0.29999392  0.89407336  0.01839134  1  -1.24743  0  -0.319622  -0.279986  0  3.531067  0
N  N177  1  0.19999924  0.39406879  0.48160881  1  -1.247229  0  -0.319637  -0.279946  0  3.530879  0
N  N178  1  0.70000094  0.10592796  0.98160686  1  -1.247277  0  -0.319539  -0.279775  0  3.530959  0
N  N179  1  0.79999118  0.60592947  0.51839106  1  -1.247196  0  -0.31961  -0.27995  0  3.531064  0
N  N180  1  0.23396550  0.00220230  0.09913718  1  -1.237712  0  -0.320663  -0.275767  0  3.54866  0
N  N181  1  0.26603708  0.50219691  0.40086487  1  -1.237679  0  -0.320567  -0.27563  0  3.548574  0
N  N182  1  0.76604115  0.99780025  0.90086273  1  -1.237821  0  -0.320631  -0.275792  0  3.548686  0
N  N183  1  0.73396072  0.49780073  0.59913502  1  -1.237687  0  -0.32054  -0.275581  0  3.548252  0
O  O184  1  0.16777928  0.88089096  0.18640516  1  -1.180082  0  -0.324983  -0.559466  0  2.34324  0
O  O185  1  0.33223301  0.38088930  0.31359797  1  -1.17969  0  -0.324993  -0.559551  0  2.343031  0
O  O186  1  0.83221998  0.11911404  0.81359767  1  -1.180193  0  -0.32493  -0.559515  0  2.343171  0
O  O187  1  0.66778247  0.61911080  0.68640448  1  -1.180396  0  -0.324973  -0.55949  0  2.34316  0
O  O188  1  0.42182077  0.82794429  0.23752051  1  -1.176303  0  -0.324804  -0.552815  0  2.136682  0
O  O189  1  0.07817962  0.32794797  0.26247921  1  -1.176269  0  -0.324884  -0.552816  0  2.136689  0
O  O190  1  0.57816963  0.17205458  0.76248355  1  -1.176419  0  -0.324889  -0.552975  0  2.136678  0
O  O191  1  0.92183884  0.67205335  0.73751906  1  -1.176555  0  -0.324891  -0.55297  0  2.136722  0
O  O192  1  0.54677498  0.84224730  0.42809446  1  -1.315742  0  -0.311632  -0.529997  0  2.22602  0
O  O193  1  0.95321979  0.34225520  0.07190910  1  -1.315468  0  -0.311703  -0.529929  0  2.225985  0
O  O194  1  0.45321831  0.15774851  0.57191841  1  -1.315882  0  -0.311664  -0.52996  0  2.225978  0
O  O195  1  0.04679721  0.65774858  0.92808539  1  -1.315806  0  -0.311707  -0.529934  0  2.226084  0
O  O196  1  0.84785741  0.87781865  0.48474341  1  -1.304701  0  -0.303338  -0.518473  0  2.226448  0
O  O197  1  0.65214043  0.37782451  0.01525431  1  -1.304564  0  -0.303263  -0.518394  0  2.2267  0
O  O198  1  0.15215514  0.12218329  0.51525526  1  -1.304583  0  -0.303362  -0.518507  0  2.226008  0
O  O199  1  0.34786031  0.62217743  0.98474600  1  -1.304529  0  -0.303356  -0.518554  0  2.226421  0
O  O200  1  0.31073826  0.25944763  0.40456069  1  -1.164507  0  -0.319347  -0.541449  0  2.322551  0
O  O201  1  0.18926050  0.75945592  0.09543856  1  -1.164554  0  -0.319263  -0.541363  0  2.322598  0
O  O202  1  0.68926544  0.74054573  0.59543880  1  -1.164495  0  -0.319271  -0.541309  0  2.322548  0
O  O203  1  0.81072694  0.24054663  0.90456675  1  -1.164297  0  -0.319213  -0.541289  0  2.322742  0
O  O204  1  0.62386301  0.30375601  0.41654178  1  -1.186077  0  -0.321904  -0.581157  0  2.21775  0
O  O205  1  0.87613465  0.80376009  0.08345715  1  -1.186031  0  -0.32191  -0.581153  0  2.217601  0
O  O206  1  0.37613480  0.69624286  0.58345601  1  -1.186017  0  -0.321864  -0.581065  0  2.217659  0
O  O207  1  0.12385872  0.19623878  0.91654230  1  -1.186052  0  -0.321945  -0.5811  0  2.217488  0
O  O208  1  0.56567338  0.86251090  0.13893460  1  -1.302831  0  -0.580955  -0.759744  0  2.135291  0
O  O209  1  0.93432293  0.36250811  0.36106604  1  -1.302894  0  -0.580942  -0.759722  0  2.135309  0
O  O210  1  0.43431850  0.13749226  0.86106695  1  -1.302719  0  -0.580979  -0.759767  0  2.135286  0
O  O211  1  0.06567340  0.63749260  0.63893301  1  -1.302753  0  -0.580983  -0.759792  0  2.135289  0
