# generated using pymatgen
data_SnH13C9NO2
_symmetry_space_group_name_H-M   'P 1'
_cell_length_a   6.24319942
_cell_length_b   9.19999291
_cell_length_c   9.89616607
_cell_angle_alpha   80.40731565
_cell_angle_beta   70.54587664
_cell_angle_gamma   75.50219675
_symmetry_Int_Tables_number   1
_chemical_formula_structural   SnH13C9NO2
_chemical_formula_sum   'Sn2 H26 C18 N2 O4'
_cell_volume   516.72917038
_cell_formula_units_Z   2
loop_
 _symmetry_equiv_pos_site_id
 _symmetry_equiv_pos_as_xyz
  1  'x, y, z'
loop_
 _atom_site_type_symbol
 _atom_site_label
 _atom_site_symmetry_multiplicity
 _atom_site_fract_x
 _atom_site_fract_y
 _atom_site_fract_z
 _atom_site_occupancy
 _atom_site_pbe_bader_spin_density
 _atom_site_pbe_cm5_charge
 _atom_site_pbe_ddec_charge
 _atom_site_pbe_ddec_spin_density
 _atom_site_pbe_ddec_sum_bond_order
 _atom_site_pbe_magmom
Sn  Sn0  1  0.22114776  0.84373408  0.77218003  1  0  0.511198  1.141087  0  3.396316  0
Sn  Sn1  1  0.77885353  0.15625934  0.22782297  1  0  0.511203  1.141027  0  3.396144  0
H  H2  1  0.08723542  0.45844120  0.61703876  1  0  0.11019  0.116471  0  1.01837  0
H  H3  1  0.91276896  0.54155897  0.38295550  1  0  0.110183  0.116408  0  1.018398  0
H  H4  1  0.78217521  0.69782665  0.63483720  1  0  0.121044  0.093651  0  1.014517  0
H  H5  1  0.21780840  0.30218482  0.36516661  1  0  0.121048  0.093593  0  1.014724  0
H  H6  1  0.26152210  0.46720187  0.86720451  1  0  0.1135  0.083865  0  1.031656  0
H  H7  1  0.73847172  0.53278144  0.13282479  1  0  0.113479  0.083801  0  1.031631  0
H  H8  1  0.54538971  0.22026749  0.85505145  1  0  0.113278  0.121989  0  1.028747  0
H  H9  1  0.45457481  0.77973387  0.14496889  1  0  0.113226  0.121853  0  1.028571  0
H  H10  1  0.63469136  0.85654685  0.80774422  1  0  0.083814  0.166876  0  1.070949  0
H  H11  1  0.36531639  0.14348599  0.19223324  1  0  0.083735  0.166955  0  1.070815  0
H  H12  1  0.39232124  0.94933292  0.94293804  1  0  0.085136  0.169603  0  1.066908  0
H  H13  1  0.60768917  0.05066497  0.05704627  1  0  0.085183  0.16968  0  1.066786  0
H  H14  1  0.48082436  0.03987646  0.76327184  1  0  0.086444  0.172328  0  1.067968  0
H  H15  1  0.51912838  0.96013165  0.23672458  1  0  0.086499  0.172425  0  1.067789  0
H  H16  1  0.26771329  0.70478000  0.53952345  1  0  0.078728  0.160585  0  1.053386  0
H  H17  1  0.73226122  0.29522921  0.46046637  1  0  0.078739  0.160529  0  1.053405  0
H  H18  1  0.35643282  0.88100460  0.48171918  1  0  0.090103  0.189972  0  1.046286  0
H  H19  1  0.64356524  0.11899444  0.51827148  1  0  0.090106  0.189944  0  1.04633  0
H  H20  1  0.05243833  0.87682868  0.54791170  1  0  0.085465  0.1717  0  1.054223  0
H  H21  1  0.94757232  0.12318840  0.45208780  1  0  0.085391  0.171651  0  1.054185  0
H  H22  1  0.07605516  0.66182337  0.01738234  1  0  0.077107  0.150696  0  1.085858  0
H  H23  1  0.92392202  0.33818698  0.98262294  1  0  0.077136  0.150752  0  1.085801  0
H  H24  1  0.84878876  0.82079452  0.00510290  1  0  0.088808  0.179687  0  1.04649  0
H  H25  1  0.15121605  0.17922030  0.99488802  1  0  0.088785  0.179714  0  1.046553  0
H  H26  1  0.90381053  0.66455366  0.90341628  1  0  0.075953  0.148826  0  1.080085  0
H  H27  1  0.09617215  0.33544993  0.09659196  1  0  0.075997  0.148905  0  1.080068  0
C  C28  1  0.01911126  0.17535729  0.71363015  1  0  0.21611  0.55151  0  4.221767  0
C  C29  1  0.98096514  0.82462025  0.28634292  1  0  0.216064  0.551409  0  4.222228  0
C  C30  1  0.83890815  0.32103832  0.73409854  1  0  0.0105  0.021455  0  3.943704  0
C  C31  1  0.16111072  0.67894942  0.26588055  1  0  0.010547  0.02149  0  3.943834  0
C  C32  1  0.90530507  0.45772547  0.67416451  1  0  -0.078572  -0.155165  0  3.965942  0
C  C33  1  0.09470274  0.54225892  0.32582846  1  0  -0.078577  -0.155109  0  3.966072  0
C  C34  1  0.73672051  0.59041532  0.68574185  1  0  0.051911  0.085021  0  3.953502  0
C  C35  1  0.26326866  0.40957813  0.31427370  1  0  0.051866  0.085013  0  3.953653  0
C  C36  1  0.44622653  0.46164015  0.81322203  1  0  0.04885  0.083846  0  3.953553  0
C  C37  1  0.55375561  0.53835895  0.18679913  1  0  0.048856  0.083903  0  3.954862  0
C  C38  1  0.60391126  0.32411442  0.80642831  1  0  -0.071728  -0.132759  0  3.922348  0
C  C39  1  0.39612620  0.67585532  0.19358415  1  0  -0.071612  -0.132538  0  3.922891  0
C  C40  1  0.46396592  0.93229683  0.82802175  1  0  -0.334434  -0.738488  0  3.7298  0
C  C41  1  0.53601783  0.06771011  0.17196554  1  0  -0.334426  -0.738691  0  3.729339  0
C  C42  1  0.22463577  0.82409156  0.55875645  1  0  -0.336001  -0.739078  0  3.745983  0
C  C43  1  0.77536749  0.17590636  0.44124445  1  0  -0.335906  -0.738881  0  3.74594  0
C  C44  1  0.98384016  0.73315953  0.94529215  1  0  -0.345619  -0.744566  0  3.758546  0
C  C45  1  0.01615763  0.26684516  0.05470477  1  0  -0.345647  -0.74473  0  3.758573  0
N  N46  1  0.51002317  0.59307385  0.75459790  1  0  -0.293085  -0.247017  0  3.45865  0
N  N47  1  0.48998538  0.40693652  0.24544146  1  0  -0.293032  -0.246883  0  3.458586  0
O  O48  1  0.95777802  0.06060544  0.80084324  1  0  -0.286037  -0.519718  0  2.237255  0
O  O49  1  0.04221262  0.93938912  0.19916578  1  0  -0.286088  -0.519734  0  2.238102  0
O  O50  1  0.20741428  0.17480394  0.61624849  1  0  -0.302675  -0.532379  0  2.131547  0
O  O51  1  0.79260826  0.82518267  0.38373408  1  0  -0.302744  -0.532483  0  2.130948  0
