# generated using pymatgen
data_HgH10C9(NCl)2
_symmetry_space_group_name_H-M   'P 1'
_cell_length_a   8.89376000
_cell_length_b   8.89374511
_cell_length_c   17.57254397
_cell_angle_alpha   90.95086574
_cell_angle_beta   90.95064967
_cell_angle_gamma   118.39943286
_symmetry_Int_Tables_number   1
_chemical_formula_structural   HgH10C9(NCl)2
_chemical_formula_sum   'Hg4 H40 C36 N8 Cl8'
_cell_volume   1222.04754222
_cell_formula_units_Z   4
loop_
 _symmetry_equiv_pos_site_id
 _symmetry_equiv_pos_as_xyz
  1  'x, y, z'
loop_
 _atom_site_type_symbol
 _atom_site_label
 _atom_site_symmetry_multiplicity
 _atom_site_fract_x
 _atom_site_fract_y
 _atom_site_fract_z
 _atom_site_occupancy
 _atom_site_hle17_bader_spin_density
 _atom_site_hle17_ddec_charge
 _atom_site_hle17_ddec_spin_density
 _atom_site_hle17_ddec_sum_bond_order
 _atom_site_hle17_magmom
 _atom_site_hse06_10hf_bader_charge
 _atom_site_hse06_10hf_bader_spin_density
 _atom_site_hse06_10hf_ddec_charge
 _atom_site_hse06_10hf_ddec_spin_density
 _atom_site_hse06_10hf_ddec_sum_bond_order
 _atom_site_hse06_10hf_magmom
 _atom_site_hse06_bader_spin_density
 _atom_site_hse06_ddec_charge
 _atom_site_hse06_ddec_spin_density
 _atom_site_hse06_ddec_sum_bond_order
 _atom_site_hse06_magmom
 _atom_site_pbe_bader_spin_density
 _atom_site_pbe_cm5_charge
 _atom_site_pbe_ddec_charge
 _atom_site_pbe_ddec_spin_density
 _atom_site_pbe_ddec_sum_bond_order
 _atom_site_pbe_magmom
Hg  Hg0  1  0.43664104  0.89696354  0.40069609  1  0  0.736502  0  2.03925  0  0.879415  0  0.577018  0  2.522547  0  0  0.629233  0  2.487467  0  0  0.51018  0.541371  0  2.545768  0
Hg  Hg1  1  0.10304106  0.56335963  0.09930361  1  0  0.736513  0  2.039332  0  0.879429  0  0.57705  0  2.522643  0  0  0.629263  0  2.487562  0  0  0.510164  0.5414  0  2.545865  0
Hg  Hg2  1  0.56335783  0.10303490  0.59930422  1  0  0.7365  0  2.039225  0  0.879421  0  0.577019  0  2.522523  0  0  0.629233  0  2.487444  0  0  0.510175  0.541372  0  2.545752  0
Hg  Hg3  1  0.89696015  0.43664135  0.90069615  1  0  0.736497  0  2.039336  0  0.879408  0  0.577004  0  2.522637  0  0  0.629218  0  2.487557  0  0  0.510165  0.541356  0  2.545864  0
H  H4  1  0.18629616  0.96267923  0.51131219  1  0  0.075559  0  1.002936  0  0.145737  0  0.079616  0  1.076442  0  0  0.081915  0  1.074412  0  0  0.095971  0.077863  0  1.077977  0
H  H5  1  0.03732772  0.81370536  0.98869056  1  0  0.075585  0  1.002973  0  0.145782  0  0.07965  0  1.076464  0  0  0.08195  0  1.074432  0  0  0.096007  0.077897  0  1.077998  0
H  H6  1  0.81369998  0.03732053  0.48868868  1  0  0.075562  0  1.002924  0  0.145696  0  0.079613  0  1.076434  0  0  0.081912  0  1.074405  0  0  0.095976  0.07786  0  1.077967  0
H  H7  1  0.96268024  0.18629559  0.01131096  1  0  0.075582  0  1.0029  0  0.145754  0  0.079641  0  1.076403  0  0  0.081941  0  1.074374  0  0  0.095991  0.077889  0  1.077937  0
H  H8  1  0.87886866  0.81927239  0.55022448  1  0  0.108472  0  0.948257  0  0.093397  0  0.118171  0  1.006899  0  0  0.121399  0  1.005837  0  0  0.106796  0.115831  0  1.007839  0
H  H9  1  0.18072880  0.12113114  0.94977574  1  0  0.10846  0  0.948229  0  0.093442  0  0.118157  0  1.006882  0  0  0.121386  0  1.00582  0  0  0.106797  0.115818  0  1.007824  0
H  H10  1  0.12112415  0.18072989  0.44977240  1  0  0.108501  0  0.948251  0  0.093354  0  0.118206  0  1.00688  0  0  0.121437  0  1.005813  0  0  0.106819  0.115866  0  1.007822  0
H  H11  1  0.81926992  0.87886470  0.05022284  1  0  0.108421  0  0.948245  0  0.093442  0  0.118119  0  1.006898  0  0  0.121348  0  1.005835  0  0  0.10678  0.115778  0  1.007839  0
H  H12  1  0.67515790  0.53430079  0.48888896  1  0  0.103876  0  0.958391  0  0.152601  0  0.110757  0  1.025839  0  0  0.113758  0  1.023356  0  0  0.09953  0.10852  0  1.027674  0
H  H13  1  0.46569993  0.32484271  0.01110959  1  0  0.103868  0  0.958413  0  0.152592  0  0.110751  0  1.025859  0  0  0.113752  0  1.023378  0  0  0.099525  0.108514  0  1.027691  0
H  H14  1  0.32484335  0.46570268  0.51110684  1  0  0.103873  0  0.958431  0  0.152582  0  0.110741  0  1.025885  0  0  0.113745  0  1.023403  0  0  0.099543  0.108503  0  1.027718  0
H  H15  1  0.53429435  0.67515320  0.98889067  1  0  0.103891  0  0.958407  0  0.152549  0  0.110773  0  1.02584  0  0  0.113774  0  1.023358  0  0  0.09954  0.108533  0  1.02767  0
H  H16  1  0.78775894  0.40378891  0.39339481  1  0  0.118353  0  0.965386  0  0.151183  0  0.123478  0  1.035175  0  0  0.126792  0  1.034128  0  0  0.102386  0.121027  0  1.036168  0
H  H17  1  0.59621285  0.21224354  0.10660353  1  0  0.118318  0  0.965395  0  0.151426  0  0.123462  0  1.035173  0  0  0.126776  0  1.034125  0  0  0.10239  0.12101  0  1.036165  0
H  H18  1  0.21224215  0.59620950  0.60660494  1  0  0.118333  0  0.965391  0  0.15117  0  0.123453  0  1.035189  0  0  0.126767  0  1.034141  0  0  0.102384  0.121003  0  1.036182  0
H  H19  1  0.40378389  0.78775749  0.89339735  1  0  0.118333  0  0.96537  0  0.151362  0  0.12346  0  1.035169  0  0  0.126774  0  1.034122  0  0  0.102385  0.121009  0  1.036163  0
H  H20  1  0.02034932  0.41856979  0.31868366  1  0  0.094004  0  0.937325  0  0.15414  0  0.101713  0  1.005475  0  0  0.104719  0  1.001759  0  0  0.111946  0.099491  0  1.008275  0
H  H21  1  0.58143593  0.97965117  0.18131485  1  0  0.093948  0  0.937345  0  0.154095  0  0.101676  0  1.005483  0  0  0.104683  0  1.001763  0  0  0.111926  0.099452  0  1.008279  0
H  H22  1  0.97965202  0.58143377  0.68131669  1  0  0.093969  0  0.937326  0  0.154102  0  0.101688  0  1.005472  0  0  0.104694  0  1.001753  0  0  0.111938  0.099463  0  1.008266  0
H  H23  1  0.41856417  0.02034984  0.81868604  1  0  0.093956  0  0.937338  0  0.154118  0  0.101678  0  1.005493  0  0  0.104684  0  1.001773  0  0  0.111935  0.099454  0  1.00829  0
H  H24  1  0.23027985  0.43287326  0.24404137  1  0  0.046242  0  0.946144  0  0.073939  0  0.058746  0  1.011337  0  0  0.059238  0  1.010762  0  0  0.09643  0.058317  0  1.011837  0
H  H25  1  0.56713269  0.76972583  0.25596041  1  0  0.046214  0  0.946159  0  0.07385  0  0.058706  0  1.011359  0  0  0.059198  0  1.010783  0  0  0.096417  0.058275  0  1.011864  0
H  H26  1  0.76972198  0.56712900  0.75595898  1  0  0.046233  0  0.946122  0  0.073908  0  0.058713  0  1.011352  0  0  0.059205  0  1.010778  0  0  0.096413  0.058283  0  1.011852  0
H  H27  1  0.43287127  0.23027385  0.74403994  1  0  0.046224  0  0.946205  0  0.073866  0  0.05872  0  1.011398  0  0  0.059213  0  1.010824  0  0  0.09642  0.058289  0  1.011902  0
H  H28  1  0.52532513  0.56145633  0.36290352  1  0  0.071775  0  0.9337  0  0.023693  0  0.088368  0  0.999764  0  0  0.088781  0  1.000424  0  0  0.087019  0.08802  0  0.999356  0
H  H29  1  0.43854417  0.47467583  0.13709690  1  0  0.07179  0  0.933675  0  0.023805  0  0.088377  0  0.999753  0  0  0.08879  0  1.000413  0  0  0.087015  0.088027  0  0.999343  0
H  H30  1  0.47467595  0.43854207  0.63709566  1  0  0.071766  0  0.933676  0  0.023784  0  0.088363  0  0.999747  0  0  0.088777  0  1.000408  0  0  0.087011  0.088016  0  0.999338  0
H  H31  1  0.56145306  0.52532389  0.86290284  1  0  0.071759  0  0.93361  0  0.02375  0  0.08834  0  0.999705  0  0  0.088753  0  1.000365  0  0  0.086988  0.087991  0  0.999296  0
H  H32  1  0.33143127  0.36803372  0.36567535  1  0  0.073814  0  0.946431  0  0.007592  0  0.091924  0  1.007032  0  0  0.092174  0  1.008086  0  0  0.086659  0.091712  0  1.00635  0
H  H33  1  0.63196756  0.66857089  0.13432622  1  0  0.073858  0  0.946405  0  0.007593  0  0.091942  0  1.00704  0  0  0.092191  0  1.008095  0  0  0.086668  0.09174  0  1.006344  0
H  H34  1  0.66857045  0.63196598  0.63432498  1  0  0.073818  0  0.946423  0  0.00759  0  0.091931  0  1.007028  0  0  0.09218  0  1.008082  0  0  0.086656  0.091717  0  1.006346  0
H  H35  1  0.36802955  0.33142626  0.86567293  1  0  0.073892  0  0.946403  0  0.007542  0  0.091967  0  1.007043  0  0  0.092217  0  1.008097  0  0  0.086679  0.091775  0  1.006337  0
H  H36  1  0.56284384  0.31520037  0.31361093  1  0  0.067099  0  0.972598  0  0.062248  0  0.080884  0  1.043735  0  0  0.08115  0  1.044637  0  0  0.076881  0.080663  0  1.043158  0
H  H37  1  0.68479754  0.43715541  0.18638977  1  0  0.067066  0  0.972599  0  0.062267  0  0.080849  0  1.043739  0  0  0.081114  0  1.044641  0  0  0.07687  0.080628  0  1.043159  0
H  H38  1  0.43715663  0.68479675  0.68638824  1  0  0.067025  0  0.972591  0  0.062213  0  0.080808  0  1.043736  0  0  0.081074  0  1.044636  0  0  0.076856  0.080587  0  1.043159  0
H  H39  1  0.31519622  0.56284178  0.81360993  1  0  0.067067  0  0.972602  0  0.062266  0  0.080834  0  1.043747  0  0  0.081097  0  1.044651  0  0  0.076869  0.080613  0  1.04317  0
H  H40  1  0.39854667  0.26414340  0.24463490  1  0  0.058815  0  0.924515  0  0.032317  0  0.081346  0  0.978061  0  0  0.081686  0  0.978983  0  0  0.083954  0.081082  0  0.977431  0
H  H41  1  0.73585838  0.60145368  0.25536537  1  0  0.058809  0  0.924517  0  0.032294  0  0.081339  0  0.978068  0  0  0.081679  0  0.978989  0  0  0.083959  0.081077  0  0.977438  0
H  H42  1  0.60145282  0.73585632  0.75536542  1  0  0.058813  0  0.924492  0  0.032299  0  0.081331  0  0.978048  0  0  0.08167  0  0.97897  0  0  0.083956  0.081071  0  0.977417  0
H  H43  1  0.26414032  0.39854214  0.74463207  1  0  0.058812  0  0.924439  0  0.032313  0  0.081347  0  0.977972  0  0  0.081685  0  0.978892  0  0  0.083977  0.081085  0  0.977344  0
C  C44  1  0.09221312  0.84017543  0.48614013  1  0  0.133861  0  3.696925  0  0.493494  0  0.101334  0  3.944389  0  0  0.108801  0  3.963921  0  0  0.049183  0.096516  0  3.931163  0
C  C45  1  0.15982859  0.90778780  0.01386155  1  0  0.133847  0  3.696981  0  0.493154  0  0.101356  0  3.944458  0  0  0.108824  0  3.963989  0  0  0.049182  0.096536  0  3.931236  0
C  C46  1  0.90778524  0.15982430  0.51386018  1  0  0.133863  0  3.69687  0  0.493517  0  0.101357  0  3.944332  0  0  0.108824  0  3.963862  0  0  0.049192  0.096541  0  3.931104  0
C  C47  1  0.84017489  0.09221319  0.98613994  1  0  0.133886  0  3.696863  0  0.493105  0  0.101344  0  3.944336  0  0  0.10881  0  3.963868  0  0  0.049199  0.096528  0  3.931108  0
C  C48  1  0.92172772  0.75881487  0.50763827  1  0  -0.104193  0  3.70091  0  0.00396  0  -0.117011  0  3.951274  0  0  -0.12431  0  3.972399  0  0  -0.076232  -0.112372  0  3.937184  0
C  C49  1  0.24118670  0.07827356  0.99236243  1  0  -0.104075  0  3.700773  0  0.003951  0  -0.116887  0  3.951122  0  0  -0.124186  0  3.972249  0  0  -0.076172  -0.112251  0  3.937037  0
C  C50  1  0.07826950  0.24118484  0.49236090  1  0  -0.104223  0  3.700899  0  0.004342  0  -0.117064  0  3.951254  0  0  -0.124362  0  3.972381  0  0  -0.076243  -0.112424  0  3.93716  0
C  C51  1  0.75881512  0.92172869  0.00763678  1  0  -0.10409  0  3.700825  0  0.004179  0  -0.116912  0  3.95119  0  0  -0.12421  0  3.972319  0  0  -0.076212  -0.112272  0  3.937095  0
C  C52  1  0.80902337  0.60182603  0.47349446  1  0  0.00579  0  3.698661  0  -0.039707  0  -0.013583  0  3.950102  0  0  -0.009852  0  3.968173  0  0  -0.063217  -0.015837  0  3.937901  0
C  C53  1  0.39817554  0.19097766  0.02650574  1  0  0.005731  0  3.698743  0  -0.039804  0  -0.013654  0  3.950198  0  0  -0.009924  0  3.968271  0  0  -0.063249  -0.015907  0  3.937992  0
C  C54  1  0.19097619  0.39817622  0.52650360  1  0  0.005763  0  3.698854  0  -0.040079  0  -0.013587  0  3.95027  0  0  -0.009861  0  3.968349  0  0  -0.063255  -0.015839  0  3.938066  0
C  C55  1  0.60182384  0.80901950  0.97349513  1  0  0.005729  0  3.698749  0  -0.039908  0  -0.013635  0  3.950166  0  0  -0.009904  0  3.96824  0  0  -0.063244  -0.015885  0  3.937955  0
C  C56  1  0.87063620  0.52934617  0.41953639  1  0  -0.121407  0  3.656857  0  -0.136839  0  -0.140304  0  3.900428  0  0  -0.147389  0  3.922641  0  0  -0.068878  -0.135742  0  3.885618  0
C  C57  1  0.47065710  0.12936696  0.08046257  1  0  -0.121331  0  3.656787  0  -0.1371  0  -0.140248  0  3.900344  0  0  -0.147332  0  3.922556  0  0  -0.068884  -0.135688  0  3.885532  0
C  C58  1  0.12936498  0.47065478  0.58046224  1  0  -0.121311  0  3.656875  0  -0.136786  0  -0.140211  0  3.900427  0  0  -0.147294  0  3.922641  0  0  -0.068844  -0.13565  0  3.885615  0
C  C59  1  0.52934067  0.87063151  0.91953887  1  0  -0.121366  0  3.656788  0  -0.137115  0  -0.140282  0  3.900353  0  0  -0.147367  0  3.922567  0  0  -0.068876  -0.135717  0  3.88555  0
C  C60  1  0.04232765  0.61855511  0.40010962  1  0  0.186057  0  3.787227  0  0.53445  0  0.18765  0  4.022654  0  0  0.192691  0  4.045281  0  0  0.114102  0.184339  0  4.00732  0
C  C61  1  0.38144862  0.95767704  0.09989191  1  0  0.186042  0  3.787158  0  0.534484  0  0.187673  0  4.022603  0  0  0.192712  0  4.045239  0  0  0.114144  0.184363  0  4.007265  0
C  C62  1  0.95767468  0.38144586  0.59989015  1  0  0.186001  0  3.787296  0  0.534433  0  0.187599  0  4.022729  0  0  0.192639  0  4.045361  0  0  0.11408  0.18429  0  4.007392  0
C  C63  1  0.61854979  0.04232274  0.90011124  1  0  0.186069  0  3.787204  0  0.534478  0  0.187674  0  4.022612  0  0  0.192714  0  4.045241  0  0  0.114126  0.184347  0  4.007302  0
C  C64  1  0.11119663  0.54392910  0.34431274  1  0  0.099033  0  3.658104  0  0.687032  0  0.059418  0  3.911676  0  0  0.069631  0  3.924661  0  0  0.084012  0.052505  0  3.902893  0
C  C65  1  0.45607452  0.88880530  0.15568637  1  0  0.099167  0  3.658179  0  0.687936  0  0.059548  0  3.911723  0  0  0.069761  0  3.92471  0  0  0.084088  0.052637  0  3.902937  0
C  C66  1  0.88880795  0.45607186  0.65568761  1  0  0.099106  0  3.658159  0  0.687972  0  0.05948  0  3.911728  0  0  0.069694  0  3.924713  0  0  0.084033  0.052573  0  3.902938  0
C  C67  1  0.54392487  0.11119187  0.84431507  1  0  0.099101  0  3.658106  0  0.687949  0  0.059458  0  3.911701  0  0  0.069671  0  3.924686  0  0  0.084002  0.052554  0  3.90292  0
C  C68  1  0.33632513  0.53633543  0.27757099  1  0  0.093718  0  3.631513  0  0.333912  0  0.076824  0  3.870834  0  0  0.079457  0  3.88777  0  0  0.004893  0.075189  0  3.859134  0
C  C69  1  0.46366934  0.66368018  0.22243078  1  0  0.093679  0  3.631482  0  0.34728  0  0.076811  0  3.870783  0  0  0.079442  0  3.88772  0  0  0.004912  0.075177  0  3.859089  0
C  C70  1  0.66367660  0.46366428  0.72242991  1  0  0.093783  0  3.631456  0  0.334158  0  0.076888  0  3.8708  0  0  0.079522  0  3.887737  0  0  0.00491  0.075252  0  3.859101  0
C  C71  1  0.53633187  0.33632079  0.77756899  1  0  0.093575  0  3.631601  0  0.347255  0  0.07671  0  3.870887  0  0  0.079342  0  3.887825  0  0  0.00487  0.075075  0  3.859193  0
C  C72  1  0.42498977  0.45880290  0.32692650  1  0  -0.142667  0  3.650914  0  0.002606  0  -0.183633  0  3.903869  0  0  -0.185578  0  3.91885  0  0  -0.161563  -0.182096  0  3.893421  0
C  C73  1  0.54120084  0.57500982  0.17307450  1  0  -0.14276  0  3.650896  0  0.002308  0  -0.183713  0  3.903856  0  0  -0.185658  0  3.918837  0  0  -0.161605  -0.182188  0  3.893408  0
C  C74  1  0.57501032  0.54119810  0.67307383  1  0  -0.142697  0  3.650873  0  0.002545  0  -0.183666  0  3.903818  0  0  -0.185614  0  3.9188  0  0  -0.161566  -0.182129  0  3.893366  0
C  C75  1  0.45879739  0.42498732  0.82692466  1  0  -0.14269  0  3.650864  0  0.002595  0  -0.183644  0  3.903815  0  0  -0.18559  0  3.918793  0  0  -0.161537  -0.182121  0  3.893352  0
C  C76  1  0.50195375  0.37150205  0.27745373  1  0  -0.106371  0  3.697613  0  -0.061507  0  -0.144429  0  3.954052  0  0  -0.145594  0  3.969528  0  0  -0.171845  -0.143441  0  3.943169  0
C  C77  1  0.62850002  0.49804791  0.22254655  1  0  -0.106254  0  3.697603  0  -0.047814  0  -0.1443  0  3.95404  0  0  -0.145464  0  3.969515  0  0  -0.171814  -0.143314  0  3.943161  0
C  C78  1  0.49804562  0.62849510  0.72254657  1  0  -0.106286  0  3.697599  0  -0.061787  0  -0.144323  0  3.954003  0  0  -0.145487  0  3.969473  0  0  -0.171832  -0.143334  0  3.943118  0
C  C79  1  0.37149709  0.50194925  0.77745318  1  0  -0.106283  0  3.697526  0  -0.04766  0  -0.144299  0  3.953931  0  0  -0.145455  0  3.969396  0  0  -0.17182  -0.143316  0  3.943055  0
N  N80  1  0.14947250  0.77220705  0.43297176  1  0  -0.298987  0  3.278863  0  -1.235478  0  -0.215295  0  3.524458  0  0  -0.237617  0  3.548041  0  0  -0.298079  -0.200367  0  3.508245  0
N  N81  1  0.22779776  0.85053054  0.06702925  1  0  -0.299096  0  3.279008  0  -1.235121  0  -0.215527  0  3.524743  0  0  -0.237853  0  3.548331  0  0  -0.298178  -0.200596  0  3.508528  0
N  N82  1  0.85052758  0.22779392  0.56702743  1  0  -0.298973  0  3.278916  0  -1.235483  0  -0.215297  0  3.524517  0  0  -0.23762  0  3.548102  0  0  -0.298073  -0.20037  0  3.508304  0
N  N83  1  0.77220398  0.14946917  0.93297165  1  0  -0.299075  0  3.278839  0  -1.235126  0  -0.215371  0  3.524432  0  0  -0.237693  0  3.548015  0  0  -0.298112  -0.200439  0  3.508228  0
N  N84  1  0.26918743  0.62099684  0.32754820  1  0  -0.28518  0  3.168605  0  -1.216757  0  -0.22013  0  3.445727  0  0  -0.240522  0  3.466726  0  0  -0.30241  -0.206417  0  3.431206  0
N  N85  1  0.37900908  0.73081831  0.17245144  1  0  -0.285203  0  3.168657  0  -1.217864  0  -0.220171  0  3.445809  0  0  -0.24056  0  3.466805  0  0  -0.302469  -0.206462  0  3.431289  0
N  N86  1  0.73081665  0.37900541  0.67245216  1  0  -0.285238  0  3.168629  0  -1.217865  0  -0.220184  0  3.44576  0  0  -0.240576  0  3.466759  0  0  -0.302434  -0.206472  0  3.43124  0
N  N87  1  0.62099386  0.26918394  0.82754835  1  0  -0.285134  0  3.168496  0  -1.217816  0  -0.220093  0  3.445629  0  0  -0.240485  0  3.46663  0  0  -0.302403  -0.206382  0  3.431108  0
Cl  Cl88  1  0.69623527  0.06983842  0.33233607  1  0  -0.48712  0  0.948734  0  -0.54357  0  -0.432721  0  1.209972  0  0  -0.450177  0  1.191215  0  0  -0.284938  -0.420698  0  1.222761  0
Cl  Cl89  1  0.93017151  0.30376894  0.16766324  1  0  -0.487114  0  0.948789  0  -0.543403  0  -0.432705  0  1.210023  0  0  -0.450158  0  1.191261  0  0  -0.284927  -0.420686  0  1.222811  0
Cl  Cl90  1  0.30376443  0.93016643  0.66766428  1  0  -0.487117  0  0.94874  0  -0.54357  0  -0.432712  0  1.209975  0  0  -0.450164  0  1.191212  0  0  -0.284932  -0.420688  0  1.222767  0
Cl  Cl91  1  0.06982983  0.69623461  0.83233712  1  0  -0.487121  0  0.948781  0  -0.543411  0  -0.432712  0  1.210018  0  0  -0.450165  0  1.191256  0  0  -0.284934  -0.42069  0  1.222808  0
Cl  Cl92  1  0.53706305  0.79836673  0.52406917  1  0  -0.527038  0  0.970806  0  -0.611216  0  -0.470133  0  1.257367  0  0  -0.490381  0  1.238172  0  0  -0.28277  -0.455465  0  1.270074  0
Cl  Cl93  1  0.20163093  0.46293476  0.97592904  1  0  -0.52707  0  0.970857  0  -0.611217  0  -0.470142  0  1.25738  0  0  -0.490388  0  1.238179  0  0  -0.282776  -0.455476  0  1.270087  0
Cl  Cl94  1  0.46293530  0.20163299  0.47593058  1  0  -0.527039  0  0.970788  0  -0.611202  0  -0.470138  0  1.257349  0  0  -0.490385  0  1.238153  0  0  -0.282776  -0.455469  0  1.270058  0
Cl  Cl95  1  0.79836853  0.53706493  0.02407014  1  0  -0.527058  0  0.970845  0  -0.611215  0  -0.470138  0  1.25738  0  0  -0.490383  0  1.23818  0  0  -0.28278  -0.455471  0  1.270089  0
