# generated using pymatgen
data_La2H10C14N4O15
_symmetry_space_group_name_H-M   'P 1'
_cell_length_a   11.10618441
_cell_length_b   12.19102038
_cell_length_c   19.61770251
_cell_angle_alpha   90.00039730
_cell_angle_beta   90.00022841
_cell_angle_gamma   90.00031547
_symmetry_Int_Tables_number   1
_chemical_formula_structural   La2H10C14N4O15
_chemical_formula_sum   'La8 H40 C56 N16 O60'
_cell_volume   2656.15296390
_cell_formula_units_Z   4
loop_
 _symmetry_equiv_pos_site_id
 _symmetry_equiv_pos_as_xyz
  1  'x, y, z'
loop_
 _atom_site_type_symbol
 _atom_site_label
 _atom_site_symmetry_multiplicity
 _atom_site_fract_x
 _atom_site_fract_y
 _atom_site_fract_z
 _atom_site_occupancy
 _atom_site_pbe_bader_charge
 _atom_site_pbe_bader_spin_density
 _atom_site_pbe_cm5_charge
 _atom_site_pbe_ddec_charge
 _atom_site_pbe_ddec_spin_density
 _atom_site_pbe_ddec_sum_bond_order
 _atom_site_pbe_magmom
La  La0  1  0.63708381  0.16619098  0.11974293  1  2.237824  0  1.389571  1.802207  0  2.45902  0
La  La1  1  0.36291332  0.83380907  0.61974450  1  2.23784  0  1.38962  1.802252  0  2.459014  0
La  La2  1  0.13707727  0.33381344  0.61974521  1  2.237783  0  1.389559  1.802189  0  2.459106  0
La  La3  1  0.86291715  0.66619317  0.11974426  1  2.2379  0  1.389531  1.802173  0  2.459083  0
La  La4  1  0.11847240  0.98405519  0.34014300  1  2.254629  0  1.388999  1.82459  0  2.417032  0
La  La5  1  0.88152988  0.01593749  0.84014783  1  2.254897  0  1.389026  1.824673  0  2.417026  0
La  La6  1  0.61846715  0.51593763  0.84014912  1  2.254829  0  1.389048  1.824719  0  2.416962  0
La  La7  1  0.38153243  0.48405914  0.34014579  1  2.254749  0  1.389004  1.824606  0  2.417092  0
H  H8  1  0.85553588  0.01319755  0.22635472  1  0.130987  0  0.140409  0.080158  0  1.005279  0
H  H9  1  0.14447640  0.98679959  0.72635339  1  0.131105  0  0.140453  0.080262  0  1.005212  0
H  H10  1  0.35553748  0.48680834  0.72636632  1  0.130827  0  0.140374  0.080132  0  1.005344  0
H  H11  1  0.64446310  0.51319947  0.22635810  1  0.131095  0  0.140386  0.080172  0  1.005277  0
H  H12  1  0.71729177  0.27004870  0.39924641  1  0.149782  0  0.132003  0.158769  0  0.970954  0
H  H13  1  0.28269922  0.72995284  0.89925347  1  0.150005  0  0.131984  0.158758  0  0.970919  0
H  H14  1  0.21728371  0.22995105  0.89925589  1  0.149732  0  0.131966  0.158638  0  0.970964  0
H  H15  1  0.78271449  0.77005377  0.39924807  1  0.149866  0  0.132015  0.158748  0  0.970938  0
H  H16  1  0.36166361  0.11381547  0.22873437  1  0.158168  0  0.142623  0.088569  0  0.992686  0
H  H17  1  0.63833878  0.88618663  0.72872302  1  0.158076  0  0.142634  0.088557  0  0.992729  0
H  H18  1  0.86165970  0.38617818  0.72873545  1  0.158342  0  0.142652  0.088586  0  0.992797  0
H  H19  1  0.13833820  0.61381981  0.22873060  1  0.15835  0  0.142641  0.088605  0  0.992697  0
H  H20  1  0.51043304  0.73891360  0.22245686  1  0.140169  0  0.126188  0.144766  0  1.002893  0
H  H21  1  0.48957471  0.26108596  0.72245268  1  0.140144  0  0.126151  0.144722  0  1.002893  0
H  H22  1  0.01042517  0.76108638  0.72245526  1  0.14018  0  0.126151  0.144716  0  1.002858  0
H  H23  1  0.98956548  0.23891400  0.22245326  1  0.140134  0  0.126179  0.144791  0  1.002785  0
H  H24  1  0.37914791  0.11009552  0.07507469  1  0.609667  0  0.331333  0.404616  0  0.872156  0
H  H25  1  0.62084440  0.88989993  0.57507862  1  0.609713  0  0.331339  0.40465  0  0.872167  0
H  H26  1  0.87914762  0.38990306  0.57507274  1  0.609492  0  0.331314  0.404631  0  0.872164  0
H  H27  1  0.12085009  0.61009732  0.07507344  1  0.6097  0  0.331334  0.404662  0  0.872098  0
H  H28  1  0.40217680  0.23014938  0.05040695  1  0.66997  0  0.295083  0.40216  0  0.936789  0
H  H29  1  0.59782254  0.76984662  0.55040674  1  0.669886  0  0.29506  0.402179  0  0.936775  0
H  H30  1  0.90217488  0.26985232  0.55040703  1  0.669843  0  0.295079  0.402205  0  0.936728  0
H  H31  1  0.09783166  0.73015188  0.05040666  1  0.669772  0  0.295094  0.40228  0  0.93665  0
H  H32  1  0.58647800  0.36505057  0.01501136  1  0.647312  0  0.299781  0.395896  0  0.937189  0
H  H33  1  0.41352739  0.63494995  0.51501576  1  0.647328  0  0.299829  0.395887  0  0.937189  0
H  H34  1  0.08647386  0.13495078  0.51501431  1  0.647224  0  0.299782  0.395835  0  0.937278  0
H  H35  1  0.91352252  0.86505302  0.01501127  1  0.647302  0  0.299762  0.395903  0  0.9372  0
H  H36  1  0.66903145  0.40571959  0.07857403  1  0.6484  0  0.302905  0.390445  0  0.941319  0
H  H37  1  0.33096448  0.59428656  0.57857297  1  0.648356  0  0.302883  0.390396  0  0.941383  0
H  H38  1  0.16903607  0.09428863  0.57857171  1  0.648373  0  0.302866  0.390396  0  0.941404  0
H  H39  1  0.83096346  0.90571670  0.07857681  1  0.648388  0  0.302873  0.390432  0  0.941343  0
H  H40  1  0.03340369  0.88118177  0.20401920  1  0.662745  0  0.301106  0.38739  0  0.955152  0
H  H41  1  0.96659403  0.11880774  0.70402568  1  0.662924  0  0.301036  0.38722  0  0.955325  0
H  H42  1  0.53340716  0.61881812  0.70402117  1  0.662762  0  0.301074  0.387358  0  0.955191  0
H  H43  1  0.46659686  0.38118533  0.20402116  1  0.662859  0  0.301038  0.387336  0  0.955186  0
H  H44  1  0.09645432  0.98200183  0.16605836  1  0.621833  0  0.338213  0.423228  0  0.852976  0
H  H45  1  0.90353773  0.01800202  0.66606070  1  0.621932  0  0.338176  0.423141  0  0.853092  0
H  H46  1  0.59645718  0.51800042  0.66605939  1  0.621856  0  0.338146  0.423147  0  0.853094  0
H  H47  1  0.40354207  0.48200261  0.16606324  1  0.621901  0  0.338187  0.423212  0  0.853023  0
C  C48  1  0.82478846  0.07150372  0.26474156  1  1.093446  0  0.198757  0.259925  0  3.954319  0
C  C49  1  0.17521149  0.92849139  0.76474414  1  1.09326  0  0.198555  0.259558  0  3.954381  0
C  C50  1  0.32479060  0.42849260  0.76475088  1  1.093861  0  0.198711  0.25972  0  3.954651  0
C  C51  1  0.67521385  0.57150907  0.26474400  1  1.093246  0  0.198606  0.259568  0  3.954225  0
C  C52  1  0.85385396  0.15252220  0.36878657  1  0.512985  0  0.146016  0.160045  0  3.934187  0
C  C53  1  0.14614132  0.84746997  0.86878976  1  0.513306  0  0.146061  0.160164  0  3.934355  0
C  C54  1  0.35385021  0.34747215  0.86879605  1  0.513204  0  0.145834  0.159767  0  3.934448  0
C  C55  1  0.64615588  0.65252413  0.36879098  1  0.513145  0  0.14601  0.160052  0  3.934589  0
C  C56  1  0.74873070  0.21361276  0.36021576  1  -0.007968  0  -0.050881  -0.161478  0  3.8414  0
C  C57  1  0.25127622  0.78638999  0.86022095  1  -0.008638  0  -0.050908  -0.161508  0  3.841454  0
C  C58  1  0.24872028  0.28638589  0.86022548  1  -0.008446  0  -0.050837  -0.161277  0  3.841479  0
C  C59  1  0.75128305  0.71361029  0.36021938  1  -0.008419  0  -0.050918  -0.161519  0  3.841606  0
C  C60  1  0.68849914  0.20187903  0.29856675  1  0.546724  0  0.142569  0.158037  0  3.92949  0
C  C61  1  0.31150014  0.79812056  0.79856907  1  0.546747  0  0.14265  0.157953  0  3.929478  0
C  C62  1  0.18849959  0.29812026  0.79857347  1  0.546735  0  0.142563  0.157876  0  3.929608  0
C  C63  1  0.81150149  0.70188097  0.29856644  1  0.546766  0  0.142634  0.158081  0  3.929558  0
C  C64  1  0.58502272  0.27702907  0.27997747  1  1.625608  0  0.239641  0.574407  0  4.168417  0
C  C65  1  0.41498274  0.72297360  0.77998174  1  1.625801  0  0.239853  0.574841  0  4.16824  0
C  C66  1  0.08502092  0.22297115  0.77998233  1  1.625474  0  0.239721  0.57462  0  4.168636  0
C  C67  1  0.91498094  0.77703562  0.27997789  1  1.625406  0  0.239706  0.574522  0  4.168479  0
C  C68  1  0.92795798  0.16294845  0.43334521  1  1.627842  0  0.229  0.561502  0  4.223441  0
C  C69  1  0.07205396  0.83703706  0.93335226  1  1.62713  0  0.229019  0.561358  0  4.22394  0
C  C70  1  0.42794876  0.33704453  0.93335923  1  1.627379  0  0.229204  0.561594  0  4.223724  0
C  C71  1  0.57205598  0.66295165  0.43335098  1  1.627213  0  0.229069  0.561512  0  4.223768  0
C  C72  1  0.39435055  0.02958305  0.22701384  1  1.075105  0  0.205045  0.26995  0  3.922612  0
C  C73  1  0.60564644  0.97041902  0.72700941  1  1.074874  0  0.205063  0.269903  0  3.922712  0
C  C74  1  0.89434714  0.47041238  0.72701733  1  1.07479  0  0.205037  0.269946  0  3.922689  0
C  C75  1  0.10564714  0.52958723  0.22701357  1  1.074837  0  0.204996  0.269791  0  3.922642  0
C  C76  1  0.37040611  0.84910192  0.25714143  1  0.513442  0  0.146408  0.155913  0  3.917413  0
C  C77  1  0.62959469  0.15089392  0.75714219  1  0.513152  0  0.146434  0.155806  0  3.917762  0
C  C78  1  0.87039987  0.65089369  0.75714252  1  0.512956  0  0.146335  0.155813  0  3.917576  0
C  C79  1  0.12958742  0.34911036  0.25714263  1  0.513018  0  0.146415  0.155796  0  3.917653  0
C  C80  1  0.47731572  0.82267846  0.22391283  1  0.006796  0  -0.055747  -0.164176  0  3.853393  0
C  C81  1  0.52268575  0.17731948  0.72391551  1  0.006994  0  -0.055734  -0.164107  0  3.853344  0
C  C82  1  0.97730694  0.67731814  0.72391403  1  0.006856  0  -0.055703  -0.164096  0  3.853355  0
C  C83  1  0.02268102  0.32268308  0.22391328  1  0.006788  0  -0.05573  -0.164236  0  3.853427  0
C  C84  1  0.53933806  0.90791002  0.19229164  1  0.50286  0  0.14229  0.152845  0  3.942464  0
C  C85  1  0.46064787  0.09209166  0.69229840  1  0.502619  0  0.14221  0.152717  0  3.942324  0
C  C86  1  0.03932917  0.59209059  0.69228932  1  0.502922  0  0.142246  0.152871  0  3.942221  0
C  C87  1  0.96065947  0.40791192  0.19229053  1  0.502964  0  0.142239  0.152951  0  3.942195  0
C  C88  1  0.65980590  0.88857787  0.15820212  1  1.633489  0  0.241291  0.581541  0  4.183713  0
C  C89  1  0.34017709  0.11142425  0.65820614  1  1.633826  0  0.241255  0.581657  0  4.183617  0
C  C90  1  0.15980162  0.61142788  0.65820140  1  1.633774  0  0.241303  0.581525  0  4.183754  0
C  C91  1  0.84019037  0.38857670  0.15819819  1  1.63376  0  0.241274  0.581544  0  4.183941  0
C  C92  1  0.29444469  0.76195992  0.29229716  1  1.649951  0  0.239811  0.588199  0  4.198857  0
C  C93  1  0.70556086  0.23803960  0.79229439  1  1.650499  0  0.239808  0.588259  0  4.199078  0
C  C94  1  0.79443538  0.73803981  0.79229556  1  1.650638  0  0.239848  0.588281  0  4.199013  0
C  C95  1  0.20555486  0.26196464  0.29229802  1  1.650367  0  0.239885  0.588351  0  4.198948  0
C  C96  1  0.17972500  0.88522115  0.49203169  1  1.590158  0  0.213513  0.487945  0  4.235834  0
C  C97  1  0.82030537  0.11476912  0.99203885  1  1.589066  0  0.213264  0.487563  0  4.235842  0
C  C98  1  0.67970594  0.61477532  0.99203823  1  1.590483  0  0.21341  0.487662  0  4.236137  0
C  C99  1  0.32027761  0.38522316  0.49203587  1  1.590188  0  0.213486  0.487927  0  4.235953  0
C  C100  1  0.30381537  0.93034305  0.46656360  1  1.602636  0  0.215115  0.497781  0  4.223604  0
C  C101  1  0.69620942  0.06965842  0.96656927  1  1.601489  0  0.215364  0.498211  0  4.223062  0
C  C102  1  0.80380053  0.56965867  0.96656638  1  1.60178  0  0.215325  0.498158  0  4.223248  0
C  C103  1  0.19619274  0.43035018  0.46656444  1  1.602678  0  0.215118  0.497783  0  4.223599  0
N  N104  1  0.72478935  0.12853061  0.25140617  1  -1.233614  0  -0.337998  -0.340295  0  3.420022  0
N  N105  1  0.27521411  0.87147337  0.75141127  1  -1.23327  0  -0.338039  -0.340108  0  3.419923  0
N  N106  1  0.22478844  0.37147408  0.75141422  1  -1.233182  0  -0.338034  -0.340137  0  3.419886  0
N  N107  1  0.77521322  0.62853154  0.25140730  1  -1.233384  0  -0.337956  -0.340068  0  3.419888  0
N  N108  1  0.89334059  0.08310454  0.32048622  1  -1.237766  0  -0.332007  -0.336001  0  3.397843  0
N  N109  1  0.10665255  0.91688791  0.82048757  1  -1.237847  0  -0.331913  -0.335938  0  3.397719  0
N  N110  1  0.39334176  0.41688783  0.82049548  1  -1.2379  0  -0.331816  -0.335682  0  3.398007  0
N  N111  1  0.60666759  0.58310955  0.32049207  1  -1.237604  0  -0.331914  -0.335841  0  3.397873  0
N  N112  1  0.49674827  0.01121796  0.19248745  1  -1.223135  0  -0.328658  -0.343632  0  3.392876  0
N  N113  1  0.50323406  0.98878127  0.69249510  1  -1.222996  0  -0.328617  -0.343528  0  3.393048  0
N  N114  1  0.99674317  0.48878252  0.69248693  1  -1.223009  0  -0.328737  -0.343717  0  3.392891  0
N  N115  1  0.00324366  0.51122162  0.19249000  1  -1.223199  0  -0.328669  -0.343646  0  3.392936  0
N  N116  1  0.32966517  0.95314481  0.25955728  1  -1.20352  0  -0.315574  -0.318348  0  3.377602  0
N  N117  1  0.67033745  0.04685517  0.75955004  1  -1.203127  0  -0.315617  -0.318275  0  3.377623  0
N  N118  1  0.82965830  0.54684981  0.75955843  1  -1.203214  0  -0.315506  -0.318328  0  3.377522  0
N  N119  1  0.17033081  0.45315017  0.25955653  1  -1.203225  0  -0.315547  -0.3182  0  3.377583  0
O  O120  1  0.54010696  0.26541761  0.22022218  1  -1.185057  0  -0.348557  -0.592027  0  2.304896  0
O  O121  1  0.45988637  0.73459259  0.72022405  1  -1.185039  0  -0.348693  -0.592218  0  2.304865  0
O  O122  1  0.04011963  0.23458334  0.72022403  1  -1.184943  0  -0.348662  -0.592112  0  2.304934  0
O  O123  1  0.95988991  0.76542357  0.22022067  1  -1.185068  0  -0.348653  -0.592114  0  2.304871  0
O  O124  1  0.55474897  0.34783216  0.32310088  1  -1.166105  0  -0.334887  -0.547505  0  2.256367  0
O  O125  1  0.44526940  0.65217919  0.82310644  1  -1.166288  0  -0.334948  -0.547693  0  2.256529  0
O  O126  1  0.05474133  0.15216756  0.82310391  1  -1.166036  0  -0.33482  -0.547517  0  2.256594  0
O  O127  1  0.94525903  0.84783149  0.32310392  1  -1.165986  0  -0.334842  -0.547488  0  2.256629  0
O  O128  1  0.03501842  0.12444738  0.43167012  1  -1.176811  0  -0.332882  -0.584989  0  2.233602  0
O  O129  1  0.96498360  0.87553074  0.93168648  1  -1.176599  0  -0.332963  -0.585109  0  2.23329  0
O  O130  1  0.53501804  0.37553377  0.93168288  1  -1.176712  0  -0.33298  -0.585148  0  2.233445  0
O  O131  1  0.46499028  0.62445418  0.43167729  1  -1.176593  0  -0.332969  -0.58519  0  2.233513  0
O  O132  1  0.87467806  0.20738786  0.48248403  1  -1.167289  0  -0.301588  -0.528153  0  2.181354  0
O  O133  1  0.12534953  0.79260804  0.98248641  1  -1.167138  0  -0.301496  -0.527984  0  2.181948  0
O  O134  1  0.37465687  0.29261443  0.98249429  1  -1.167474  0  -0.301583  -0.528022  0  2.181848  0
O  O135  1  0.62533471  0.70738558  0.48248890  1  -1.167114  0  -0.301531  -0.527978  0  2.181774  0
O  O136  1  0.70775859  0.96858835  0.12635305  1  -1.191431  0  -0.347106  -0.595132  0  2.296948  0
O  O137  1  0.29222507  0.03141178  0.62635866  1  -1.191472  0  -0.347074  -0.595144  0  2.296847  0
O  O138  1  0.20776283  0.53141073  0.62636066  1  -1.191528  0  -0.347089  -0.595098  0  2.296933  0
O  O139  1  0.79223794  0.46858857  0.12635156  1  -1.191547  0  -0.347072  -0.59516  0  2.296984  0
O  O140  1  0.70504530  0.79499850  0.16596638  1  -1.185777  0  -0.351378  -0.568512  0  2.321722  0
O  O141  1  0.29494224  0.20500453  0.66596510  1  -1.185893  0  -0.351349  -0.568599  0  2.321887  0
O  O142  1  0.20503799  0.70501003  0.66596148  1  -1.185868  0  -0.351378  -0.568487  0  2.321712  0
O  O143  1  0.79496036  0.29499628  0.16595878  1  -1.185774  0  -0.351368  -0.568447  0  2.322001  0
O  O144  1  0.19870993  0.79327387  0.32050531  1  -1.166613  0  -0.34622  -0.56266  0  2.252755  0
O  O145  1  0.80129311  0.20672104  0.82050925  1  -1.166848  0  -0.346239  -0.562747  0  2.252704  0
O  O146  1  0.69870763  0.70672077  0.82051327  1  -1.166981  0  -0.346303  -0.562766  0  2.252722  0
O  O147  1  0.30128821  0.29328563  0.32050996  1  -1.166793  0  -0.346257  -0.562733  0  2.252753  0
O  O148  1  0.33335874  0.66410847  0.28905400  1  -1.21012  0  -0.380802  -0.618984  0  2.284655  0
O  O149  1  0.66665579  0.33589101  0.78905208  1  -1.210501  0  -0.380773  -0.619009  0  2.284931  0
O  O150  1  0.83334461  0.83589060  0.78904773  1  -1.210605  0  -0.380769  -0.618993  0  2.284784  0
O  O151  1  0.16664561  0.16411299  0.28905580  1  -1.210437  0  -0.380861  -0.619096  0  2.284806  0
O  O152  1  0.09163432  0.89466700  0.45176696  1  -1.160349  0  -0.373722  -0.547473  0  2.253929  0
O  O153  1  0.90840206  0.10530314  0.95177784  1  -1.159092  0  -0.373646  -0.547359  0  2.253504  0
O  O154  1  0.59161611  0.60531463  0.95177550  1  -1.160344  0  -0.37375  -0.547364  0  2.253998  0
O  O155  1  0.40836986  0.39467109  0.45176930  1  -1.160292  0  -0.373712  -0.547471  0  2.253937  0
O  O156  1  0.17727059  0.84439634  0.55143866  1  -1.181401  0  -0.385598  -0.56508  0  2.250823  0
O  O157  1  0.82275036  0.15560623  0.05144154  1  -1.181202  0  -0.385582  -0.56503  0  2.250967  0
O  O158  1  0.67725906  0.65560667  0.05144041  1  -1.181388  0  -0.385605  -0.565092  0  2.25107  0
O  O159  1  0.32272498  0.34439672  0.55144335  1  -1.181573  0  -0.385603  -0.565106  0  2.250798  0
O  O160  1  0.30328409  0.98207098  0.41056531  1  -1.184922  0  -0.37761  -0.566506  0  2.235924  0
O  O161  1  0.69674840  0.01792577  0.91056922  1  -1.184324  0  -0.377735  -0.566672  0  2.235871  0
O  O162  1  0.80326084  0.51792766  0.91056889  1  -1.184372  0  -0.377695  -0.566642  0  2.236018  0
O  O163  1  0.19672573  0.48207975  0.41056564  1  -1.185005  0  -0.377571  -0.566428  0  2.235997  0
O  O164  1  0.39441812  0.91228019  0.50417918  1  -1.185794  0  -0.382422  -0.578728  0  2.245279  0
O  O165  1  0.60560431  0.08772677  0.00417924  1  -1.185496  0  -0.382421  -0.57876  0  2.245164  0
O  O166  1  0.89440257  0.58772091  0.00417911  1  -1.185755  0  -0.382443  -0.578782  0  2.245249  0
O  O167  1  0.10558834  0.41229507  0.50418237  1  -1.18563  0  -0.382427  -0.578723  0  2.245208  0
O  O168  1  0.41152564  0.17955829  0.09123325  1  -1.263265  0  -0.622158  -0.800234  0  1.996762  0
O  O169  1  0.58846949  0.82043242  0.59123527  1  -1.263233  0  -0.622145  -0.800288  0  1.996753  0
O  O170  1  0.91151772  0.32044063  0.59123405  1  -1.262989  0  -0.622117  -0.80025  0  1.99668  0
O  O171  1  0.08847740  0.67956075  0.09123243  1  -1.263111  0  -0.622157  -0.800372  0  1.9966  0
O  O172  1  0.60811563  0.35147205  0.06378363  1  -1.300005  0  -0.63576  -0.814154  0  2.025493  0
O  O173  1  0.39188651  0.64853148  0.56378600  1  -1.299964  0  -0.635762  -0.814066  0  2.025527  0
O  O174  1  0.10810977  0.14853160  0.56378409  1  -1.299961  0  -0.6357  -0.81405  0  2.025652  0
O  O175  1  0.89188426  0.85147357  0.06378299  1  -1.299964  0  -0.635721  -0.814163  0  2.025432  0
O  O176  1  0.06609564  0.95746754  0.20983506  1  -1.281556  0  -0.606131  -0.816861  0  2.045246  0
O  O177  1  0.93389942  0.04252367  0.70983962  1  -1.28183  0  -0.606033  -0.816606  0  2.045308  0
O  O178  1  0.56609055  0.54253012  0.70983620  1  -1.281549  0  -0.606024  -0.816753  0  2.045285  0
O  O179  1  0.43391082  0.45747422  0.20983848  1  -1.281705  0  -0.606032  -0.816785  0  2.045235  0
