# generated using pymatgen
data_Zn8H59C73N7O26
_symmetry_space_group_name_H-M   'P 1'
_cell_length_a   18.42236425
_cell_length_b   18.37479122
_cell_length_c   18.42678855
_cell_angle_alpha   89.83695380
_cell_angle_beta   120.24228547
_cell_angle_gamma   119.64197487
_symmetry_Int_Tables_number   1
_chemical_formula_structural   Zn8H59C73N7O26
_chemical_formula_sum   'Zn8 H59 C73 N7 O26'
_cell_volume   4424.43414338
_cell_formula_units_Z   1
loop_
 _symmetry_equiv_pos_site_id
 _symmetry_equiv_pos_as_xyz
  1  'x, y, z'
loop_
 _atom_site_type_symbol
 _atom_site_label
 _atom_site_symmetry_multiplicity
 _atom_site_fract_x
 _atom_site_fract_y
 _atom_site_fract_z
 _atom_site_occupancy
 _atom_site_pbe_bader_charge
 _atom_site_pbe_bader_spin_density
 _atom_site_pbe_cm5_charge
 _atom_site_pbe_ddec_charge
 _atom_site_pbe_ddec_spin_density
 _atom_site_pbe_ddec_sum_bond_order
 _atom_site_pbe_magmom
Zn  Zn0  1  0.08360061  0.95405786  0.54349466  1  1.303804  0  0.670837  0.952757  0  2.406994  0
Zn  Zn1  1  0.08818486  0.12880833  0.54929313  1  1.31943  0  0.674328  0.959734  0  2.389916  0
Zn  Zn2  1  0.91168945  0.95577207  0.54438996  1  1.300076  0  0.666856  0.944293  0  2.409194  0
Zn  Zn3  1  0.90804952  0.95441345  0.37115015  1  1.308787  0  0.669759  0.954987  0  2.372106  0
Zn  Zn4  1  0.90852669  0.53948416  0.95737781  1  1.299687  0  0.668851  0.946758  0  2.393237  0
Zn  Zn5  1  0.08561866  0.54149675  0.95761337  1  1.3266  0  0.677762  0.964132  0  2.37179  0
Zn  Zn6  1  0.91528173  0.37027478  0.96032331  1  1.28964  0  0.665769  0.947787  0  2.408185  0
Zn  Zn7  1  0.08518420  0.54541645  0.13196592  1  1.317666  0  0.670321  0.960538  0  2.389602  0
H  H8  1  0.92806406  0.74109669  0.84058910  1  0.082479  0  0.107414  0.113997  0  0.995117  0
H  H9  1  0.13981244  0.41224206  0.31806703  1  0.115855  0  0.108627  0.116317  0  0.991214  0
H  H10  1  0.75257675  0.15041423  0.06746269  1  0.057627  0  0.099493  0.117235  0  0.975859  0
H  H11  1  0.81000263  0.12398546  0.02785624  1  0.059383  0  0.099147  0.115464  0  0.981191  0
H  H12  1  0.82618098  0.02969749  0.12483776  1  0.058781  0  0.111281  0.069322  0  0.939241  0
H  H13  1  0.84842541  0.19531809  0.75928912  1  0.074572  0  0.10092  0.114805  0  1.0088  0
H  H14  1  0.20439092  0.46366820  0.82500708  1  0.029126  0  0.105465  0.059453  0  0.948681  0
H  H15  1  0.19191603  0.36332316  0.72055817  1  0.064311  0  0.093801  0.113221  0  0.986483  0
H  H16  1  0.23316037  0.31571989  0.80405991  1  0.045562  0  0.092177  0.106876  0  1.001025  0
H  H17  1  0.39828648  0.09289625  0.64685684  1  0.087682  0  0.104354  0.119331  0  1.001352  0
H  H18  1  0.40713103  0.31997258  0.83623520  1  0.021112  0  0.088251  0.100688  0  0.997419  0
H  H19  1  0.15761175  0.68376934  0.78492762  1  0.063286  0  0.099545  0.116639  0  0.979571  0
H  H20  1  0.40968488  0.37293756  0.75470095  1  0.063916  0  0.095928  0.118601  0  0.984297  0
H  H21  1  0.04499768  0.77182302  0.08322780  1  0.060526  0  0.095616  0.105213  0  1.028617  0
H  H22  1  0.93668638  0.53670071  0.21289522  1  0.040554  0  0.096561  0.112463  0  1.02269  0
H  H23  1  0.92172216  0.72416753  0.39161009  1  0.068498  0  0.098197  0.105005  0  1.026215  0
H  H24  1  0.93423757  0.84241422  0.75061670  1  0.085887  0  0.105321  0.11159  0  0.996336  0
H  H25  1  0.77152614  0.50291694  0.36505139  1  0.027482  0  0.091276  0.117767  0  0.99532  0
H  H26  1  0.89662537  0.54171954  0.45730577  1  0.032953  0  0.093336  0.124385  0  0.995314  0
H  H27  1  0.85225590  0.61105726  0.44207065  1  0.035354  0  0.09714  0.133989  0  0.992957  0
H  H28  1  0.21988817  0.77074548  0.67565029  1  0.017192  0  0.087594  0.117285  0  1.000334  0
H  H29  1  0.18815988  0.84928606  0.65920659  1  0.036432  0  0.088754  0.130865  0  1.014787  0
H  H30  1  0.03228120  0.59626585  0.69340063  1  0.018386  0  0.096719  0.109039  0  0.985261  0
H  H31  1  0.24664925  0.83871345  0.76647275  1  0.022755  0  0.084602  0.11197  0  1.006332  0
H  H32  1  0.65046512  0.69812794  0.43216041  1  0.045194  0  0.093774  0.135161  0  0.989304  0
H  H33  1  0.63727757  0.76905986  0.48020120  1  0.07315  0  0.094135  0.137256  0  0.992657  0
H  H34  1  0.53486084  0.65445997  0.42370454  1  0.027784  0  0.090863  0.124273  0  1.001271  0
H  H35  1  0.41343610  0.87604376  0.12134295  1  0.392213  0  0.279999  0.262337  0  0.979308  0
H  H36  1  0.39652909  0.85982627  0.02463457  1  0.38417  0  0.283337  0.267044  0  0.976213  0
H  H37  1  0.05969702  0.01988319  0.31218044  1  0.040209  0  0.08686  0.124726  0  1.020962  0
H  H38  1  0.14148601  0.99212362  0.38955587  1  0.020667  0  0.091281  0.129657  0  1.025212  0
H  H39  1  0.18619153  0.07171088  0.34285493  1  0.044557  0  0.092402  0.128998  0  1.003088  0
H  H40  1  0.75246210  0.00483753  0.20337946  1  0.396862  0  0.279424  0.270262  0  0.991397  0
H  H41  1  0.03209732  0.69471829  0.60058512  1  0.048631  0  0.097046  0.069569  0  0.973611  0
H  H42  1  0.73568945  0.08434827  0.18607730  1  0.37075  0  0.277076  0.257746  0  0.978352  0
H  H43  1  0.80717416  0.03692967  0.60264099  1  0.506428  0  0.300028  0.314301  0  0.984392  0
H  H44  1  0.75641787  0.05955224  0.65078367  1  0.430683  0  0.312195  0.306646  0  0.93869  0
H  H45  1  0.11324693  0.05860458  0.11997793  1  0.029905  0  0.091285  0.122871  0  1.011097  0
H  H46  1  0.11996025  0.08880128  0.21522986  1  0.031862  0  0.092413  0.127428  0  1.007154  0
H  H47  1  0.22629855  0.09887869  0.22679468  1  0.024815  0  0.091429  0.120162  0  0.993548  0
H  H48  1  0.34072008  0.47433990  0.95547434  1  0.403401  0  0.281098  0.265239  0  0.97911  0
H  H49  1  0.26493228  0.37495483  0.95385274  1  0.381988  0  0.278303  0.261538  0  0.981824  0
H  H50  1  0.67199969  0.20797515  0.77412995  1  0.474964  0  0.297612  0.309993  0  0.990078  0
H  H51  1  0.55226346  0.11236258  0.69317392  1  0.432518  0  0.311028  0.305839  0  0.939127  0
H  H52  1  0.39661994  0.63444987  0.30102284  1  0.074132  0  0.104102  0.113491  0  1.005827  0
H  H53  1  0.69508085  0.44095338  0.99388200  1  0.014804  0  0.084824  0.129375  0  1.016424  0
H  H54  1  0.60330475  0.45419138  0.98854591  1  0.004011  0  0.084665  0.120339  0  1.005388  0
H  H55  1  0.57736729  0.34636771  0.96827066  1  0.015903  0  0.082301  0.11816  0  1.010379  0
H  H56  1  0.60977089  0.52943382  0.87424570  1  0.362688  0  0.276871  0.267198  0  0.972652  0
H  H57  1  0.68130648  0.50708880  0.86471769  1  0.405842  0  0.274009  0.276115  0  0.995833  0
H  H58  1  0.05564402  0.94728682  0.01219530  1  0.038805  0  0.091146  0.121335  0  0.997144  0
H  H59  1  0.18542765  0.98790363  0.08980979  1  0.02242  0  0.090731  0.12307  0  0.995378  0
H  H60  1  0.09548133  0.87561911  0.01875443  1  0.042187  0  0.091338  0.127352  0  1.003964  0
H  H61  1  0.82157537  0.43052808  0.32556921  1  0.422964  0  0.301032  0.288964  0  0.973434  0
H  H62  1  0.86088867  0.42030818  0.26269075  1  0.434284  0  0.308298  0.302382  0  0.93989  0
H  H63  1  0.41445331  0.74060956  0.03789189  1  0.059833  0  0.110063  0.065995  0  0.940797  0
H  H64  1  0.60605574  0.84078682  0.13887502  1  0.046398  0  0.095226  0.118089  0  0.98657  0
H  H65  1  0.59802147  0.91849363  0.18658361  1  0.0196  0  0.091886  0.108114  0  1.009208  0
H  H66  1  0.14742162  0.31748946  0.41463841  1  0.105823  0  0.108441  0.116281  0  0.989022  0
C  C67  1  0.00637361  0.13971098  0.36804118  1  1.557468  0  0.227622  0.606936  0  4.175306  0
C  C68  1  0.89821311  0.54506313  0.30279063  1  0.388023  0  0.088183  0.243959  0  4.110887  0
C  C69  1  0.89255614  0.59906248  0.35357831  1  0.00686  0  -0.018361  0.074138  0  3.965143  0
C  C70  1  0.00345757  0.86833693  0.64662362  1  1.523436  0  0.227271  0.608181  0  4.171508  0
C  C71  1  0.92575693  0.68410184  0.35212622  1  -0.043182  0  -0.097687  -0.18828  0  3.97129  0
C  C72  1  0.04066228  0.75872603  0.70743358  1  -0.026778  0  -0.002388  0.018989  0  3.849527  0
C  C73  1  0.00376318  0.81036434  0.70292368  1  0.010773  0  -0.015641  -0.076982  0  3.985176  0
C  C74  1  0.96356644  0.80287192  0.75279783  1  -0.037322  0  -0.084559  -0.099805  0  3.984673  0
C  C75  1  0.96002084  0.74608901  0.80310463  1  -0.037129  0  -0.083957  -0.101256  0  3.985582  0
C  C76  1  0.99671009  0.69352381  0.80674198  1  0.029616  0  -0.011934  -0.073999  0  3.972958  0
C  C77  1  0.03709340  0.70190892  0.75797444  1  -0.042148  0  -0.00196  0.066605  0  3.902789  0
C  C78  1  0.05334872  0.81716053  0.12949779  1  -0.030139  0  -0.10631  -0.21586  0  3.994402  0
C  C79  1  0.08231319  0.66752131  0.73062061  1  -0.004533  0  -0.152026  -0.246397  0  3.863351  0
C  C80  1  0.08622006  0.73148410  0.67250277  1  0.044465  0  -0.074906  0.04886  0  3.838543  0
C  C81  1  0.55243848  0.79820383  0.22594907  1  -0.083735  0  -0.006635  0.073787  0  3.94282  0
C  C82  1  0.27503595  0.13246346  0.64463833  1  1.544284  0  0.228428  0.612661  0  4.165438  0
C  C83  1  0.60705115  0.79131385  0.30927224  1  0.01596  0  -0.017307  -0.149233  0  3.924464  0
C  C84  1  0.54824537  0.72938163  0.33630219  1  0.033924  0  0.004288  0.167912  0  3.924209  0
C  C85  1  0.44113350  0.68112986  0.27969015  1  -0.004013  0  -0.087279  -0.175369  0  3.934233  0
C  C86  1  0.38709854  0.68885587  0.19602078  1  -0.031336  0  -0.008472  -0.04195  0  3.987135  0
C  C87  1  0.44594561  0.74825982  0.17028386  1  -0.004079  0  -0.008182  -0.012312  0  3.866529  0
C  C88  1  0.44302277  0.78847695  0.09717649  1  0.369565  0  0.01399  0.169732  0  3.879629  0
C  C89  1  0.02829383  0.78616960  0.18983247  1  0.031418  0  -0.007523  0.066634  0  4.034404  0
C  C90  1  0.56529262  0.84770647  0.16294632  1  0.004552  0  -0.163477  -0.292466  0  3.8768  0
C  C91  1  0.92427764  0.16353192  0.22143321  1  -0.027944  0  -0.01334  -0.029279  0  3.887713  0
C  C92  1  0.00498983  0.19711240  0.31100298  1  -0.024472  0  -0.016102  -0.067607  0  3.990278  0
C  C93  1  0.08304654  0.28861189  0.34476316  1  -0.052889  0  -0.082444  -0.098574  0  3.970057  0
C  C94  1  0.72077324  0.85052236  0.36532117  1  1.539812  0  0.226289  0.614468  0  4.160612  0
C  C95  1  0.07872683  0.34175214  0.29062264  1  0.003692  0  -0.081963  -0.097543  0  3.972277  0
C  C96  1  0.99617810  0.30693954  0.19988955  1  -0.008381  0  -0.015661  -0.078833  0  3.977428  0
C  C97  1  0.91908847  0.21673187  0.16746844  1  -0.073209  0  -0.005045  0.068642  0  3.91324  0
C  C98  1  0.81450815  0.14210348  0.08742932  1  -0.039126  0  -0.15108  -0.258504  0  3.854561  0
C  C99  1  0.82019949  0.08056769  0.14740392  1  0.385174  0  0.010771  0.162013  0  3.890808  0
C  C100  1  0.03778237  0.84596244  0.25024672  1  -0.015377  0  -0.007632  -0.006072  0  3.946806  0
C  C101  1  0.07430840  0.27470358  0.74358724  1  -0.011614  0  -0.006227  0.09197  0  3.955863  0
C  C102  1  0.98520956  0.19029683  0.68573598  1  0.026343  0  -0.033942  -0.216251  0  3.943127  0
C  C103  1  0.90114851  0.16144163  0.69199984  1  0.462068  0  0.111081  0.310031  0  4.075926  0
C  C104  1  0.91259615  0.21809677  0.75466921  1  -0.013642  0  -0.103709  -0.238321  0  3.940973  0
C  C105  1  0.00232297  0.30231701  0.81067118  1  -0.040383  0  -0.010511  -0.030217  0  4.011115  0
C  C106  1  0.98363005  0.13514769  0.62670931  1  1.507735  0  0.221099  0.618173  0  4.163635  0
C  C107  1  0.08363296  0.32971606  0.80375834  1  -0.015854  0  -0.026632  -0.050585  0  3.896208  0
C  C108  1  0.19434904  0.40310518  0.84126927  1  0.403922  0  0.010774  0.168964  0  3.893764  0
C  C109  1  0.18322497  0.33878814  0.77208675  1  -0.053104  0  -0.161099  -0.284495  0  3.870055  0
C  C110  1  0.44665384  0.27459033  0.75815590  1  0.029135  0  -0.020224  0.036141  0  3.949434  0
C  C111  1  0.99698894  0.69968040  0.19294029  1  -0.001771  0  -0.017716  -0.131933  0  3.909709  0
C  C112  1  0.38870793  0.18937439  0.69922734  1  -0.040794  0  -0.014166  -0.052027  0  4.022181  0
C  C113  1  0.44212352  0.15917393  0.69250899  1  -0.023556  0  -0.100786  -0.230073  0  3.936785  0
C  C114  1  0.55015163  0.21097066  0.74179616  1  0.486671  0  0.109331  0.303506  0  4.069007  0
C  C115  1  0.60880754  0.29824399  0.80226882  1  -0.036603  0  -0.028603  -0.192881  0  3.924921  0
C  C116  1  0.55246557  0.32577338  0.80748364  1  -0.041023  0  -0.002025  0.002251  0  3.856578  0
C  C117  1  0.56401001  0.40045307  0.85945729  1  0.369192  0  0.084064  0.332692  0  3.802251  0
C  C118  1  0.99666398  0.86223989  0.36001603  1  1.565173  0  0.231775  0.625632  0  4.169102  0
C  C119  1  0.44208994  0.34179610  0.79962573  1  0.009793  0  -0.155097  -0.278065  0  3.837433  0
C  C120  1  0.27331942  0.63472449  0.13921887  1  1.547773  0  0.231313  0.612947  0  4.164312  0
C  C121  1  0.72130100  0.35621051  0.85734361  1  1.536005  0  0.224639  0.61983  0  4.149647  0
C  C122  1  0.96710230  0.66607695  0.24898936  1  -0.016254  0  -0.00737  0.075948  0  4.045399  0
C  C123  1  0.99225776  0.63267276  0.86014463  1  1.547108  0  0.228207  0.609935  0  4.171752  0
C  C124  1  0.99282735  0.36423691  0.14277542  1  1.550412  0  0.224871  0.606133  0  4.179795  0
C  C125  1  0.00666358  0.35943853  0.87197780  1  1.561384  0  0.230201  0.615395  0  4.157659  0
C  C126  1  0.99557175  0.64089546  0.13551296  1  1.532828  0  0.232708  0.630507  0  4.153983  0
C  C127  1  0.08334771  0.93754908  0.25329970  1  -0.031202  0  -0.012267  0.065052  0  3.904463  0
C  C128  1  0.10147830  0.96309639  0.18980552  1  0.026003  0  -0.017539  0.038965  0  3.911706  0
C  C129  1  0.08526922  0.90153556  0.12618839  1  -0.052789  0  -0.015892  0.115708  0  3.996458  0
C  C130  1  0.85132584  0.56195216  0.40722499  1  -0.055684  0  -0.234001  -0.396627  0  3.995928  0
C  C131  1  0.19135236  0.80178674  0.69473945  1  -0.048095  0  -0.242733  -0.386509  0  3.971518  0
C  C132  1  0.59502538  0.71168622  0.42260567  1  -0.0639  0  -0.239434  -0.409528  0  3.982836  0
C  C133  1  0.96598752  0.72203483  0.30243317  1  0.033903  0  -0.010014  0.051893  0  4.002942  0
C  C134  1  0.11854664  0.00846950  0.32786946  1  -0.046689  0  -0.246425  -0.407591  0  3.97922  0
C  C135  1  0.14200734  0.05689750  0.18809766  1  -0.04234  0  -0.238432  -0.393929  0  3.998597  0
C  C136  1  0.61270169  0.41072324  0.95841072  1  -0.035684  0  -0.247718  -0.457496  0  3.945821  0
C  C137  1  0.10662744  0.92938539  0.05841555  1  -0.058829  0  -0.235742  -0.397832  0  3.990753  0
C  C138  1  0.00251055  0.81035038  0.30301782  1  -0.064029  0  -0.012802  -0.115773  0  3.898353  0
C  C139  1  0.93362735  0.57855835  0.25165766  1  0.021723  0  -0.122278  -0.279972  0  3.983512  0
N  N140  1  0.38737114  0.82918486  0.06855872  1  -1.099926  0  -0.63346  -0.637583  0  3.216573  0
N  N141  1  0.73758173  0.03748461  0.15867309  1  -1.092547  0  -0.63565  -0.644586  0  3.207638  0
N  N142  1  0.80909321  0.08156425  0.63727914  1  -1.280832  0  -0.593511  -0.619348  0  3.345673  0
N  N143  1  0.26781586  0.42861144  0.93626599  1  -1.127858  0  -0.635087  -0.641949  0  3.220918  0
N  N144  1  0.59572780  0.17743902  0.72792124  1  -1.240542  0  -0.596722  -0.623624  0  3.344228  0
N  N145  1  0.60741273  0.48309620  0.84079625  1  -1.076041  0  -0.640583  -0.684305  0  3.149133  0
N  N146  1  0.87154762  0.46140331  0.30909128  1  -1.22835  0  -0.599314  -0.618315  0  3.327049  0
O  O147  1  0.99797385  0.99902569  0.50117686  1  -1.214228  0  -0.576416  -1.026147  0  2.563355  0
O  O148  1  0.92625969  0.32398317  0.05890690  1  -1.160832  0  -0.314524  -0.54331  0  2.324958  0
O  O149  1  0.06822913  0.44277938  0.89347963  1  -1.160253  0  -0.304378  -0.53033  0  2.335649  0
O  O150  1  0.93637160  0.05661530  0.32743817  1  -1.184978  0  -0.311925  -0.551666  0  2.355047  0
O  O151  1  0.06364346  0.62500426  0.17559224  1  -1.157175  0  -0.313159  -0.548107  0  2.320665  0
O  O152  1  0.94717751  0.31994472  0.89633960  1  -1.165903  0  -0.321953  -0.554005  0  2.333138  0
O  O153  1  0.92654666  0.61072288  0.05211410  1  -1.168519  0  -0.311844  -0.543499  0  2.327937  0
O  O154  1  0.93795227  0.61786946  0.88931106  1  -1.171446  0  -0.317043  -0.547723  0  2.33342  0
O  O155  1  0.05592370  0.44783067  0.18175177  1  -1.181407  0  -0.313664  -0.543569  0  2.335554  0
O  O156  1  0.22994815  0.62214780  0.05612540  1  -1.171735  0  -0.305042  -0.532646  0  2.351222  0
O  O157  1  0.77032245  0.32134664  0.86771185  1  -1.177182  0  -0.317233  -0.55876  0  2.353154  0
O  O158  1  0.22989664  0.04924575  0.61174956  1  -1.183727  0  -0.317727  -0.55074  0  2.336483  0
O  O159  1  0.04920017  0.87598578  0.61015037  1  -1.171701  0  -0.308712  -0.54162  0  2.357968  0
O  O160  1  0.23169188  0.17210092  0.63487016  1  -1.165245  0  -0.309955  -0.534396  0  2.327011  0
O  O161  1  0.76866274  0.86237800  0.44874612  1  -1.170775  0  -0.311723  -0.543381  0  2.361194  0
O  O162  1  0.05753046  0.17371644  0.61848711  1  -1.176512  0  -0.311996  -0.537991  0  2.347711  0
O  O163  1  0.92956354  0.87918620  0.32028132  1  -1.154819  0  -0.311973  -0.542798  0  2.316427  0
O  O164  1  0.90969806  0.05183839  0.58815716  1  -1.185814  0  -0.321707  -0.564222  0  2.346202  0
O  O165  1  0.05697214  0.88197998  0.44386231  1  -1.1855  0  -0.315097  -0.552783  0  2.355493  0
O  O166  1  0.76257740  0.88713981  0.32537634  1  -1.167493  0  -0.314766  -0.545959  0  2.328171  0
O  O167  1  0.07534002  0.17735608  0.45155762  1  -1.173885  0  -0.313351  -0.542149  0  2.328755  0
O  O168  1  0.95705599  0.90486837  0.63799970  1  -1.163135  0  -0.319156  -0.548498  0  2.32376  0
O  O169  1  0.99909459  0.49951251  0.00171091  1  -1.212819  0  -0.574484  -1.026636  0  2.556293  0
O  O170  1  0.22955259  0.60572267  0.17884575  1  -1.168892  0  -0.316521  -0.546579  0  2.33177  0
O  O171  1  0.76426029  0.43853343  0.89276299  1  -1.182939  0  -0.307373  -0.541771  0  2.358033  0
O  O172  1  0.04334969  0.60040780  0.87204666  1  -1.169396  0  -0.308129  -0.535581  0  2.33173  0
