# generated using pymatgen
data_CdNiH14(C3N2)3
_symmetry_space_group_name_H-M   'P 1'
_cell_length_a   7.56737697
_cell_length_b   13.80946803
_cell_length_c   22.26207686
_cell_angle_alpha   90.00045558
_cell_angle_beta   89.99996707
_cell_angle_gamma   90.13312118
_symmetry_Int_Tables_number   1
_chemical_formula_structural   CdNiH14(C3N2)3
_chemical_formula_sum   'Cd4 Ni4 H56 C36 N24'
_cell_volume   2326.41304040
_cell_formula_units_Z   4
loop_
 _symmetry_equiv_pos_site_id
 _symmetry_equiv_pos_as_xyz
  1  'x, y, z'
loop_
 _atom_site_type_symbol
 _atom_site_label
 _atom_site_symmetry_multiplicity
 _atom_site_fract_x
 _atom_site_fract_y
 _atom_site_fract_z
 _atom_site_occupancy
 _atom_site_pbe_bader_charge
 _atom_site_pbe_bader_spin_density
 _atom_site_pbe_cm5_charge
 _atom_site_pbe_ddec_charge
 _atom_site_pbe_ddec_spin_density
 _atom_site_pbe_ddec_sum_bond_order
 _atom_site_pbe_magmom
Cd  Cd0  1  0.93585164  0.82741713  0.79881914  1  1.277124  0  0.816083  0.887281  0  2.41838  0
Cd  Cd1  1  0.06414469  0.67258245  0.29881833  1  1.277123  0  0.816064  0.887279  0  2.41842  0
Cd  Cd2  1  0.06415207  0.17258615  0.20118111  1  1.277233  0  0.816077  0.887319  0  2.418357  0
Cd  Cd3  1  0.93585090  0.32741073  0.70118012  1  1.277229  0  0.816062  0.887298  0  2.418347  0
Ni  Ni4  1  0.43498857  0.57683161  0.76768222  1  0.637482  0  0.392155  0.119435  0  3.877346  0
Ni  Ni5  1  0.56501572  0.92316682  0.26767850  1  0.637525  0  0.392163  0.1195  0  3.877322  0
Ni  Ni6  1  0.56500583  0.42316882  0.23231758  1  0.637554  0  0.392143  0.119303  0  3.87746  0
Ni  Ni7  1  0.43498260  0.07683142  0.73232175  1  0.637536  0  0.392106  0.119294  0  3.877343  0
H  H8  1  0.95702638  0.84488058  0.66896697  1  0.401448  0  0.304839  0.288116  0  0.926598  0
H  H9  1  0.13020866  0.78987143  0.69774635  1  0.393378  0  0.300478  0.282816  0  0.938767  0
H  H10  1  0.78199260  0.70364436  0.67061473  1  0.023473  0  0.103541  0.075284  0  0.965066  0
H  H11  1  0.94060885  0.64458405  0.71518004  1  0.060494  0  0.10581  0.088659  0  0.983679  0
H  H12  1  0.15363436  0.63920557  0.63187791  1  0.024372  0  0.089491  0.082601  0  0.990945  0
H  H13  1  0.95393618  0.57941922  0.61616037  1  -0.013563  0  0.089354  0.080081  0  1.010046  0
H  H14  1  0.06440879  0.77829781  0.56603760  1  0.016665  0  0.087823  0.077746  0  0.981555  0
H  H15  1  0.85331991  0.72598518  0.55549838  1  0.032288  0  0.088253  0.079466  0  0.97595  0
H  H16  1  0.99473780  0.57849749  0.51049906  1  0.002414  0  0.082948  0.065023  0  1.022149  0
H  H17  1  0.20509785  0.63220363  0.51838713  1  0.024855  0  0.087858  0.07938  0  0.979107  0
H  H18  1  0.90515406  0.71522679  0.44039319  1  0.026643  0  0.106466  0.084602  0  0.958543  0
H  H19  1  0.12306163  0.76030103  0.44374348  1  0.043242  0  0.10888  0.087216  0  0.951938  0
H  H20  1  0.97538668  0.93605074  0.90317400  1  0.411096  0  0.290533  0.266595  0  0.973839  0
H  H21  1  0.77421545  0.89075961  0.90339401  1  0.410047  0  0.301677  0.283475  0  0.929288  0
H  H22  1  0.04296617  0.65511736  0.16896698  1  0.401453  0  0.304865  0.288136  0  0.926646  0
H  H23  1  0.86978522  0.71012904  0.19774511  1  0.393302  0  0.300469  0.282814  0  0.938823  0
H  H24  1  0.21800259  0.79635287  0.17061270  1  0.023515  0  0.10355  0.075256  0  0.96509  0
H  H25  1  0.05938632  0.85541664  0.21517834  1  0.060513  0  0.105812  0.088662  0  0.983654  0
H  H26  1  0.84636084  0.86078898  0.13187697  1  0.024298  0  0.089457  0.08256  0  0.990936  0
H  H27  1  0.04605645  0.92057804  0.11616034  1  -0.013545  0  0.089384  0.080064  0  1.010031  0
H  H28  1  0.93559581  0.72169875  0.06603460  1  0.016611  0  0.087813  0.07779  0  0.981516  0
H  H29  1  0.14668472  0.77401197  0.05549761  1  0.032357  0  0.088257  0.079487  0  0.975904  0
H  H30  1  0.00526827  0.92150198  0.01050039  1  0.002207  0  0.082923  0.06499  0  1.022139  0
H  H31  1  0.79490686  0.86779449  0.01838713  1  0.02482  0  0.087876  0.079348  0  0.979031  0
H  H32  1  0.09485396  0.78477456  0.94039127  1  0.026575  0  0.106455  0.084597  0  0.958629  0
H  H33  1  0.87694768  0.73969891  0.94374207  1  0.056254  0  0.108861  0.087215  0  0.952  0
H  H34  1  0.02461744  0.56395088  0.40317446  1  0.411108  0  0.290517  0.266568  0  0.973787  0
H  H35  1  0.22578865  0.60924128  0.40339331  1  0.410492  0  0.301672  0.283429  0  0.929403  0
H  H36  1  0.04297070  0.15512201  0.33103463  1  0.401467  0  0.304825  0.288137  0  0.926595  0
H  H37  1  0.86979108  0.21013187  0.30225479  1  0.393371  0  0.300506  0.28288  0  0.938786  0
H  H38  1  0.21800972  0.29635531  0.32938776  1  0.023434  0  0.103529  0.075255  0  0.964982  0
H  H39  1  0.05939482  0.35541706  0.28482155  1  0.060533  0  0.105788  0.088614  0  0.98361  0
H  H40  1  0.84637064  0.36079626  0.36812234  1  0.024402  0  0.089521  0.082628  0  0.990958  0
H  H41  1  0.04606486  0.42058335  0.38384078  1  -0.013396  0  0.089347  0.08011  0  1.01001  0
H  H42  1  0.93558963  0.22170549  0.43396220  1  0.016722  0  0.087844  0.077774  0  0.981529  0
H  H43  1  0.14667715  0.27401595  0.44450411  1  0.032422  0  0.088252  0.0795  0  0.97593  0
H  H44  1  0.00525798  0.42150583  0.48950119  1  0.002197  0  0.082935  0.064991  0  1.022207  0
H  H45  1  0.79489790  0.36779823  0.48161267  1  0.024789  0  0.087846  0.079326  0  0.979145  0
H  H46  1  0.09484302  0.28477507  0.55960571  1  0.02668  0  0.106499  0.08468  0  0.958537  0
H  H47  1  0.87693543  0.23970011  0.55625543  1  0.042963  0  0.108888  0.087264  0  0.951926  0
H  H48  1  0.02462095  0.06395036  0.09682401  1  0.411127  0  0.29053  0.266568  0  0.973768  0
H  H49  1  0.22579350  0.10924148  0.09660309  1  0.410442  0  0.301676  0.28342  0  0.929353  0
H  H50  1  0.95702950  0.34488016  0.83103507  1  0.401442  0  0.304813  0.28812  0  0.926604  0
H  H51  1  0.13021178  0.28986920  0.80225514  1  0.393337  0  0.300491  0.282846  0  0.93881  0
H  H52  1  0.78199308  0.20364466  0.82938620  1  0.023482  0  0.103541  0.075258  0  0.965062  0
H  H53  1  0.94060937  0.14458233  0.78482146  1  0.060498  0  0.105815  0.088603  0  0.983679  0
H  H54  1  0.15363077  0.13920349  0.86812238  1  0.024389  0  0.089508  0.082633  0  0.990947  0
H  H55  1  0.95393522  0.07941733  0.88383991  1  -0.013609  0  0.089354  0.080102  0  1.01003  0
H  H56  1  0.06440774  0.27829657  0.93396206  1  0.016665  0  0.087849  0.077782  0  0.981548  0
H  H57  1  0.85331889  0.22598625  0.94450264  1  0.032263  0  0.088272  0.079554  0  0.975861  0
H  H58  1  0.99473932  0.07849694  0.98950031  1  0.002168  0  0.082936  0.065007  0  1.022133  0
H  H59  1  0.20509807  0.13220372  0.98161177  1  0.02485  0  0.087855  0.07937  0  0.979091  0
H  H60  1  0.90515364  0.21522508  0.05960763  1  0.026635  0  0.106467  0.084592  0  0.958526  0
H  H61  1  0.12305865  0.26030363  0.05625639  1  0.056225  0  0.108868  0.087232  0  0.951871  0
H  H62  1  0.97537962  0.43605026  0.59682534  1  0.411114  0  0.290512  0.266595  0  0.973756  0
H  H63  1  0.77420842  0.39076058  0.59660694  1  0.410454  0  0.301637  0.283414  0  0.92937  0
C  C64  1  0.60548763  0.65873958  0.79701075  1  0.812461  0  0.015338  0.053876  0  3.862076  0
C  C65  1  0.60905687  0.99633007  0.76066906  1  0.810708  0  0.011889  0.050078  0  3.862161  0
C  C66  1  0.26508080  0.99770791  0.76547324  1  0.8038  0  0.009367  0.041801  0  3.856046  0
C  C67  1  0.26438255  0.15804279  0.70244605  1  0.802363  0  0.01058  0.044529  0  3.85457  0
C  C68  1  0.92507922  0.69532962  0.67760371  1  0.329112  0  -0.075215  0.019546  0  3.927051  0
C  C69  1  0.01261975  0.65194919  0.62214661  1  0.011543  0  -0.16683  -0.177907  0  3.96453  0
C  C70  1  0.99370150  0.70844803  0.56339337  1  -0.058058  0  -0.166453  -0.1401  0  3.968181  0
C  C71  1  0.06423255  0.64895206  0.51072124  1  -0.021349  0  -0.167666  -0.175533  0  3.982386  0
C  C72  1  0.04319929  0.69406879  0.44852724  1  0.319013  0  -0.070457  0.024078  0  3.923157  0
C  C73  1  0.39452456  0.84125991  0.29701295  1  0.812707  0  0.01524  0.053636  0  3.861879  0
C  C74  1  0.39093816  0.50366758  0.26066825  1  0.810644  0  0.011896  0.050243  0  3.862012  0
C  C75  1  0.73492224  0.50229412  0.26546381  1  0.804152  0  0.009372  0.041929  0  3.856145  0
C  C76  1  0.73560207  0.34196287  0.20243381  1  0.802455  0  0.010496  0.044438  0  3.854742  0
C  C77  1  0.07491466  0.80466914  0.17760310  1  0.329115  0  -0.075205  0.019541  0  3.927051  0
C  C78  1  0.98737815  0.84804739  0.12214557  1  0.011657  0  -0.166784  -0.177713  0  3.964443  0
C  C79  1  0.00630045  0.79154779  0.06339181  1  -0.058195  0  -0.166498  -0.140295  0  3.968278  0
C  C80  1  0.93577350  0.85104668  0.01072202  1  -0.021055  0  -0.167625  -0.175353  0  3.982218  0
C  C81  1  0.95680606  0.80593195  0.94852704  1  0.306045  0  -0.070484  0.023987  0  3.92333  0
C  C82  1  0.39451594  0.34125646  0.20299264  1  0.812627  0  0.015327  0.053798  0  3.861749  0
C  C83  1  0.39094531  0.00366236  0.23932984  1  0.810583  0  0.011887  0.050138  0  3.861697  0
C  C84  1  0.73492552  0.00229391  0.23452881  1  0.803979  0  0.009322  0.041698  0  3.85597  0
C  C85  1  0.73561185  0.84195764  0.29755869  1  0.802249  0  0.010542  0.044505  0  3.85441  0
C  C86  1  0.07492444  0.30467149  0.32239789  1  0.329142  0  -0.075205  0.019661  0  3.926776  0
C  C87  1  0.98738129  0.34805265  0.37785409  1  0.011312  0  -0.166812  -0.177933  0  3.964509  0
C  C88  1  0.00629954  0.29155382  0.43660688  1  -0.058179  0  -0.166455  -0.140152  0  3.968027  0
C  C89  1  0.93576189  0.35105054  0.48927946  1  -0.021409  0  -0.167642  -0.175413  0  3.982328  0
C  C90  1  0.95679778  0.30593307  0.55147166  1  0.319317  0  -0.07056  0.02384  0  3.92334  0
C  C91  1  0.60548176  0.15874191  0.70299089  1  0.81238  0  0.015428  0.053935  0  3.861935  0
C  C92  1  0.60906024  0.49633500  0.73933424  1  0.810538  0  0.011779  0.049973  0  3.862056  0
C  C93  1  0.26507614  0.49770702  0.73453105  1  0.803912  0  0.009323  0.041714  0  3.856186  0
C  C94  1  0.26439911  0.65804694  0.79755970  1  0.802237  0  0.010497  0.044418  0  3.854513  0
C  C95  1  0.92507835  0.19532767  0.82239715  1  0.329136  0  -0.075228  0.01969  0  3.926918  0
C  C96  1  0.01261879  0.15194723  0.87785333  1  0.011509  0  -0.166831  -0.17796  0  3.964618  0
C  C97  1  0.99369782  0.20844755  0.93660574  1  -0.058018  0  -0.166486  -0.140225  0  3.968209  0
C  C98  1  0.06423277  0.14895224  0.98927868  1  -0.021351  0  -0.167652  -0.1755  0  3.982321  0
C  C99  1  0.04319891  0.19406843  0.05147186  1  0.306025  0  -0.070442  0.024062  0  3.92308  0
N  N100  1  0.71530029  0.71265962  0.81332606  1  -1.343962  0  -0.37989  -0.383079  0  3.240508  0
N  N101  1  0.72148385  0.94491449  0.77765925  1  -1.353277  0  -0.37797  -0.384231  0  3.242387  0
N  N102  1  0.15737221  0.94809378  0.78771274  1  -1.354839  0  -0.377563  -0.38645  0  3.225195  0
N  N103  1  0.15664098  0.71117936  0.81611652  1  -1.343159  0  -0.377496  -0.381956  0  3.221131  0
N  N104  1  0.99504773  0.79025858  0.69702800  1  -1.080848  0  -0.618548  -0.565676  0  3.348773  0
N  N105  1  0.90495749  0.87290802  0.90009822  1  -1.104774  0  -0.625086  -0.566492  0  3.376802  0
N  N106  1  0.28470785  0.78733648  0.31332802  1  -1.344165  0  -0.379845  -0.382951  0  3.240258  0
N  N107  1  0.27851665  0.55509422  0.27765468  1  -1.353238  0  -0.377992  -0.384388  0  3.242237  0
N  N108  1  0.84261761  0.55191004  0.28770533  1  -1.355081  0  -0.377576  -0.386562  0  3.225445  0
N  N109  1  0.84335923  0.78881681  0.31611207  1  -1.343158  0  -0.377573  -0.382072  0  3.221127  0
N  N110  1  0.00494482  0.70974116  0.19702739  1  -1.080863  0  -0.618576  -0.565714  0  3.349019  0
N  N111  1  0.09504662  0.62709283  0.40009673  1  -1.105271  0  -0.625086  -0.566436  0  3.376778  0
N  N112  1  0.28471239  0.28732841  0.18666969  1  -1.34418  0  -0.379899  -0.383025  0  3.240167  0
N  N113  1  0.27852797  0.05509889  0.22234145  1  -1.353115  0  -0.378016  -0.384369  0  3.241904  0
N  N114  1  0.84263282  0.05190950  0.21229065  1  -1.355078  0  -0.377496  -0.386351  0  3.225168  0
N  N115  1  0.84335351  0.28882541  0.18388239  1  -1.343412  0  -0.377495  -0.381976  0  3.221328  0
N  N116  1  0.00495068  0.20974400  0.30297315  1  -1.080885  0  -0.618559  -0.565817  0  3.348852  0
N  N117  1  0.09505146  0.12709307  0.09990203  1  -1.105206  0  -0.625133  -0.566447  0  3.376767  0
N  N118  1  0.71529040  0.21265741  0.68667447  1  -1.343888  0  -0.380019  -0.383171  0  3.240547  0
N  N119  1  0.72149113  0.44491484  0.72234378  1  -1.353072  0  -0.377895  -0.384192  0  3.242084  0
N  N120  1  0.15737547  0.44809039  0.71229267  1  -1.354943  0  -0.377532  -0.386396  0  3.225371  0
N  N121  1  0.15662698  0.21116917  0.68388773  1  -1.343279  0  -0.377594  -0.382075  0  3.221346  0
N  N122  1  0.99505218  0.29025636  0.80297331  1  -1.080844  0  -0.618546  -0.565777  0  3.348857  0
N  N123  1  0.90495042  0.37290758  0.59990397  1  -1.10525  0  -0.624988  -0.566369  0  3.376748  0
