# generated using pymatgen
data_CoH4C8N4(OF)2
_symmetry_space_group_name_H-M   'P 1'
_cell_length_a   12.50011749
_cell_length_b   13.87706393
_cell_length_c   13.87706852
_cell_angle_alpha   111.38738825
_cell_angle_beta   107.47990229
_cell_angle_gamma   107.48031921
_symmetry_Int_Tables_number   1
_chemical_formula_structural   CoH4C8N4(OF)2
_chemical_formula_sum   'Co6 H24 C48 N24 O12 F12'
_cell_volume   1896.57973418
_cell_formula_units_Z   6
loop_
 _symmetry_equiv_pos_site_id
 _symmetry_equiv_pos_as_xyz
  1  'x, y, z'
loop_
 _atom_site_type_symbol
 _atom_site_label
 _atom_site_symmetry_multiplicity
 _atom_site_fract_x
 _atom_site_fract_y
 _atom_site_fract_z
 _atom_site_occupancy
 _atom_site_pbe_bader_charge
 _atom_site_pbe_bader_spin_density
 _atom_site_pbe_cm5_charge
 _atom_site_pbe_ddec_charge
 _atom_site_pbe_ddec_spin_density
 _atom_site_pbe_ddec_sum_bond_order
 _atom_site_pbe_magmom
Co  Co0  1  0.76369071  0.75801604  0.51720512  1  1.179464  2.547269  0.739772  0.75052  2.778745  2.626403  2.493
Co  Co1  1  0.24655618  0.24083351  0.48286351  1  1.180786  2.547148  0.739412  0.750148  2.778556  2.626217  2.493
Co  Co2  1  0.24655619  0.48286397  0.24083280  1  1.180791  2.547141  0.739432  0.750196  2.778546  2.626262  2.493
Co  Co3  1  0.00572807  0.75917005  0.24203156  1  1.180103  2.547142  0.739591  0.750721  2.779675  2.625174  2.493
Co  Co4  1  0.76369160  0.51720779  0.75801876  1  1.179507  2.547261  0.73976  0.750481  2.778741  2.626446  2.493
Co  Co5  1  0.00572652  0.24203172  0.75917037  1  1.180101  2.547138  0.739549  0.750665  2.77967  2.625213  2.493
H  H6  1  0.74907436  0.52368951  0.36473716  1  0.12352  0.003301  0.133621  0.122211  0.001202  0.955988  0.002
H  H7  1  0.38434428  0.15895605  0.63533922  1  0.127525  0.003291  0.133794  0.122353  0.001202  0.955266  0.002
H  H8  1  0.38434319  0.63533824  0.15895313  1  0.127618  0.003291  0.133759  0.122312  0.001202  0.955284  0.002
H  H9  1  0.22539950  0.84102444  0.47641874  1  0.146395  0.003292  0.133863  0.122577  0.001206  0.956327  0.002
H  H10  1  0.74907971  0.36474249  0.52369488  1  0.123445  0.003301  0.133602  0.122124  0.001202  0.956028  0.002
H  H11  1  0.22539689  0.47641935  0.84102375  1  0.146389  0.003292  0.133881  0.122567  0.001206  0.956377  0.002
H  H12  1  0.60773014  0.81137338  0.34170037  1  0.118733  0.002864  0.129977  0.119133  0.000928  0.976791  0.002
H  H13  1  0.26603309  0.46963859  0.65825282  1  0.125482  0.002865  0.129826  0.118882  0.000934  0.976983  0.002
H  H14  1  0.26603434  0.65825634  0.46963672  1  0.125436  0.002865  0.12981  0.118822  0.000934  0.977025  0.002
H  H15  1  0.79634197  0.53036354  0.18860629  1  0.1266  0.002857  0.13001  0.119447  0.000929  0.976247  0.002
H  H16  1  0.60773106  0.34169810  0.81137441  1  0.118743  0.002864  0.129979  0.119152  0.000929  0.976724  0.002
H  H17  1  0.79634121  0.18860624  0.53036248  1  0.126163  0.002857  0.130004  0.119445  0.000929  0.976242  0.002
H  H18  1  0.67499902  0.87828504  0.68981846  1  0.127614  0.003259  0.132147  0.117942  0.001171  0.96398  0.002
H  H19  1  0.98521887  0.18841123  0.31020698  1  0.118594  0.003266  0.132559  0.119034  0.001172  0.963273  0.002
H  H20  1  0.98521892  0.31021204  0.18841289  1  0.120403  0.003253  0.132579  0.119016  0.001172  0.963336  0.002
H  H21  1  0.79672787  0.81148544  0.12171389  1  0.12482  0.003248  0.132385  0.11874  0.001171  0.963936  0.002
H  H22  1  0.67499490  0.68981995  0.87828564  1  0.127658  0.003259  0.132124  0.117919  0.001171  0.964008  0.002
H  H23  1  0.79672532  0.12171497  0.81148886  1  0.124824  0.003248  0.132393  0.118775  0.001171  0.963941  0.002
H  H24  1  0.03623263  0.82543010  0.68934073  1  0.112138  0.002988  0.135546  0.126122  0.001032  0.952835  0.002
H  H25  1  0.34694210  0.13609193  0.31067794  1  0.122504  0.002984  0.135518  0.126027  0.001034  0.953053  0.002
H  H26  1  0.34693528  0.31067386  0.13608727  1  0.122385  0.002984  0.135533  0.126046  0.001034  0.952992  0.002
H  H27  1  0.21084614  0.86390558  0.17455291  1  0.143834  0.002965  0.135289  0.125923  0.00103  0.952366  0.002
H  H28  1  0.03623376  0.68934396  0.82543261  1  0.1121  0.002989  0.135543  0.126106  0.001032  0.95279  0.002
H  H29  1  0.21084518  0.17455297  0.86390594  1  0.143844  0.002965  0.135289  0.125943  0.00103  0.952374  0.002
C  C30  1  0.51009927  0.58708530  0.35469922  1  1.760982  0.005707  0.303606  0.580257  0.004203  4.173769  0.004
C  C31  1  0.15541114  0.23240869  0.64532610  1  1.741919  0.005689  0.303504  0.580603  0.004151  4.175611  0.004
C  C32  1  0.15541123  0.64532479  0.23240679  1  1.741816  0.00569  0.303549  0.580673  0.004151  4.175601  0.004
C  C33  1  0.92297498  0.76757502  0.41290338  1  1.746563  0.005655  0.303095  0.579862  0.004157  4.175106  0.004
C  C34  1  0.51010340  0.35470343  0.58708944  1  1.760757  0.005707  0.303581  0.580152  0.004203  4.174024  0.004
C  C35  1  0.92297334  0.41290379  0.76757566  1  1.746434  0.005655  0.303013  0.579797  0.004157  4.175138  0.004
C  C36  1  0.65173862  0.51026401  0.33351870  1  0.536512  -0.006016  0.057212  0.037209  -0.006833  3.967439  -0.004
C  C37  1  0.31824710  0.17678283  0.66654312  1  0.544296  -0.005866  0.057327  0.038728  -0.006706  3.965926  -0.004
C  C38  1  0.31824717  0.66654307  0.17678079  1  0.544655  -0.00587  0.057292  0.038665  -0.006706  3.966007  -0.004
C  C39  1  0.14146322  0.82321080  0.48978576  1  0.525382  -0.005908  0.056621  0.036517  -0.00674  3.969362  -0.004
C  C40  1  0.65174472  0.33352467  0.51026893  1  0.536465  -0.006015  0.057267  0.037335  -0.006833  3.96743  -0.004
C  C41  1  0.14146290  0.48978828  0.82321259  1  0.525423  -0.005908  0.056548  0.036542  -0.006739  3.969372  -0.004
C  C42  1  0.84670648  0.99999468  0.60998138  1  1.70081  0.006205  0.300748  0.576751  0.004607  4.17865  0.005
C  C43  1  0.23686641  0.39005808  0.39005497  1  1.723344  0.006147  0.299884  0.574484  0.00461  4.178607  0.005
C  C44  1  0.84670900  0.60997999  0.99999290  1  1.700927  0.006207  0.300668  0.576679  0.004607  4.178871  0.005
C  C45  1  0.67866914  0.89560143  0.41819679  1  0.574358  -0.006688  0.058461  0.047611  -0.007659  3.960346  -0.004
C  C46  1  0.26054359  0.47740307  0.58179371  1  0.589487  -0.006682  0.05852  0.048144  -0.007643  3.959761  -0.004
C  C47  1  0.26054418  0.58179716  0.47740186  1  0.589749  -0.006682  0.05854  0.048206  -0.007643  3.959839  -0.004
C  C48  1  0.78305071  0.52260828  0.10437921  1  0.575587  -0.006718  0.057837  0.046528  -0.007687  3.960861  -0.004
C  C49  1  0.67866930  0.41819419  0.89560104  1  0.574363  -0.006687  0.058387  0.047499  -0.007658  3.960436  -0.004
C  C50  1  0.78304913  0.10437935  0.52260915  1  0.575911  -0.006719  0.057821  0.046521  -0.007689  3.960852  -0.004
C  C51  1  0.76758063  0.67314545  0.67314659  1  1.726182  0.00644  0.304509  0.585404  0.004444  4.175698  0.004
C  C52  1  0.09452316  0.99997409  0.32688901  1  1.722848  0.006444  0.304472  0.584719  0.004448  4.173106  0.004
C  C53  1  0.09452214  0.32688800  0.99997263  1  1.722848  0.006444  0.30446  0.584677  0.004449  4.173165  0.004
C  C54  1  0.69462986  0.81496753  0.71073453  1  0.551742  -0.004027  0.060381  0.044405  -0.004771  3.959422  -0.002
C  C55  1  0.98395739  0.10418180  0.28924973  1  0.570086  -0.004056  0.059282  0.042412  -0.004769  3.960879  -0.002
C  C56  1  0.98395713  0.28925156  0.10418441  1  0.569757  -0.004055  0.059269  0.042476  -0.004769  3.960867  -0.002
C  C57  1  0.87971024  0.89572143  0.18500140  1  0.597814  -0.0041  0.060339  0.04472  -0.004771  3.960443  -0.002
C  C58  1  0.69462782  0.71073569  0.81496766  1  0.551922  -0.004026  0.060473  0.044522  -0.004772  3.959347  -0.002
C  C59  1  0.87970720  0.18500060  0.89572174  1  0.597785  -0.0041  0.060376  0.044706  -0.00477  3.960598  -0.002
C  C60  1  0.03728647  0.81553469  0.60802535  1  0.589783  -0.00612  0.061261  0.046263  -0.006977  3.956278  -0.004
C  C61  1  0.42929634  0.20752887  0.39199496  1  0.604129  -0.006205  0.061092  0.045524  -0.007106  3.957059  -0.004
C  C62  1  0.42929085  0.39199145  0.20752427  1  0.60417  -0.006206  0.061029  0.045507  -0.007107  3.957157  -0.004
C  C63  1  0.22178651  0.79249296  0.18446305  1  0.565254  -0.006168  0.061938  0.047242  -0.007042  3.956921  -0.004
C  C64  1  0.03728593  0.60802716  0.81553759  1  0.589762  -0.00612  0.061243  0.046308  -0.006977  3.956203  -0.004
C  C65  1  0.22178514  0.18446419  0.79249319  1  0.565067  -0.006166  0.061897  0.047168  -0.007042  3.956895  -0.004
C  C66  1  0.55110662  0.40389813  0.24249830  1  0.498346  0.012259  0.079106  0.146575  0.006204  4.125232  0.01
C  C67  1  0.30864261  0.16141794  0.75754836  1  0.51924  0.012262  0.078572  0.14483  0.006212  4.129064  0.01
C  C68  1  0.30864220  0.75754910  0.16141677  1  0.519058  0.012262  0.078625  0.144935  0.006212  4.129127  0.01
C  C69  1  0.14720792  0.83857306  0.59614220  1  0.518848  0.012215  0.079122  0.146709  0.006198  4.125518  0.01
C  C70  1  0.55111263  0.24250319  0.40390254  1  0.495396  0.01225  0.07905  0.146569  0.006204  4.125257  0.01
C  C71  1  0.14720832  0.59614391  0.83857574  1  0.518602  0.012216  0.079157  0.146685  0.006198  4.125524  0.01
C  C72  1  0.69206117  0.99999119  0.42191674  1  0.511475  0.011987  0.078159  0.147547  0.006069  4.117423  0.01
C  C73  1  0.27027302  0.57809217  0.57808946  1  0.456546  0.012057  0.077639  0.147283  0.00607  4.116147  0.01
C  C74  1  0.69206107  0.42191581  0.99999112  1  0.511258  0.011987  0.078164  0.147581  0.006069  4.11754  0.01
C  C75  1  0.67064508  0.79476673  0.79476501  1  0.519884  0.01147  0.082372  0.153195  0.00579  4.11642  0.009
C  C76  1  0.87594221  0.99994902  0.20517405  1  0.47224  0.011493  0.081398  0.150998  0.005773  4.118142  0.009
C  C77  1  0.87594264  0.20517465  0.99995131  1  0.472248  0.011493  0.08138  0.151016  0.005774  4.118079  0.009
N  N78  1  0.63163074  0.59991065  0.38690004  1  -1.209757  0.081477  -0.355308  -0.358095  0.042836  3.575131  0.056
N  N79  1  0.24475248  0.21305005  0.61315179  1  -1.211225  0.081385  -0.355514  -0.359528  0.042848  3.57561  0.056
N  N80  1  0.24475208  0.61315079  0.21304704  1  -1.211333  0.081386  -0.355519  -0.359553  0.042848  3.57564  0.056
N  N81  1  0.03169476  0.78693571  0.40010448  1  -1.213333  0.081397  -0.354352  -0.357102  0.042809  3.57603  0.056
N  N82  1  0.63163523  0.38690447  0.59991403  1  -1.209964  0.081486  -0.355322  -0.358046  0.042836  3.575026  0.056
N  N83  1  0.03169368  0.40010658  0.78693679  1  -1.213285  0.081399  -0.35432  -0.357133  0.042809  3.576013  0.056
N  N84  1  0.75349332  0.89568300  0.51020813  1  -1.19947  0.081416  -0.356921  -0.368158  0.042893  3.568331  0.056
N  N85  1  0.24335340  0.38548477  0.48979331  1  -1.204364  0.081393  -0.356401  -0.367674  0.042882  3.568324  0.056
N  N86  1  0.24335341  0.48979512  0.38548384  1  -1.204333  0.081393  -0.356492  -0.367812  0.042884  3.568406  0.056
N  N87  1  0.85780023  0.61453554  0.10429762  1  -1.218828  0.081621  -0.35664  -0.367747  0.042867  3.570102  0.056
N  N88  1  0.75349405  0.51020607  0.89568303  1  -1.19937  0.081414  -0.3569  -0.368135  0.042895  3.568346  0.056
N  N89  1  0.85779973  0.10430040  0.61453844  1  -1.218669  0.081617  -0.356644  -0.367761  0.042866  3.570082  0.056
N  N90  1  0.74171042  0.75555985  0.65163546  1  -1.20114  0.082804  -0.356151  -0.361576  0.043508  3.577966  0.057
N  N91  1  0.09016041  0.10388887  0.34838148  1  -1.215129  0.083046  -0.355629  -0.360124  0.043461  3.576694  0.057
N  N92  1  0.09015875  0.34838208  0.10388923  1  -1.214911  0.08305  -0.35562  -0.360133  0.043463  3.576682  0.057
N  N93  1  0.98621228  0.89604064  0.24443382  1  -1.189998  0.082822  -0.35612  -0.361697  0.043549  3.578434  0.057
N  N94  1  0.74170896  0.65163597  0.75556186  1  -1.201376  0.082805  -0.35614  -0.361624  0.043509  3.577958  0.057
N  N95  1  0.98620932  0.24443270  0.89604148  1  -1.189952  0.082825  -0.356162  -0.36174  0.043551  3.578527  0.057
N  N96  1  0.92815873  0.78052693  0.51840250  1  -1.227566  0.082932  -0.356885  -0.364225  0.043549  3.577605  0.057
N  N97  1  0.40978356  0.26211433  0.48159484  1  -1.230063  0.08296  -0.356587  -0.36326  0.043513  3.575778  0.057
N  N98  1  0.40977870  0.48159100  0.26210951  1  -1.230219  0.082961  -0.356588  -0.363318  0.043514  3.575789  0.057
N  N99  1  0.14766813  0.73788023  0.21946919  1  -1.220756  0.082826  -0.356923  -0.364222  0.043494  3.576255  0.057
N  N100  1  0.92815929  0.51840454  0.78052874  1  -1.227578  0.082933  -0.356845  -0.364167  0.04355  3.577521  0.057
N  N101  1  0.14766738  0.21947083  0.73788190  1  -1.220546  0.082821  -0.356886  -0.364131  0.043493  3.576177  0.057
O  O102  1  0.49063190  0.66952987  0.40789786  1  -1.16984  0.045476  -0.322055  -0.569983  0.022783  2.098026  0.037
O  O103  1  0.08275519  0.26167797  0.59212647  1  -1.16991  0.045298  -0.322269  -0.570241  0.022743  2.100795  0.036
O  O104  1  0.08275565  0.59212391  0.26167707  1  -1.169917  0.045298  -0.322295  -0.57027  0.022744  2.100751  0.036
O  O105  1  0.82104268  0.73828895  0.33041601  1  -1.164065  0.04524  -0.322423  -0.570477  0.022701  2.098067  0.036
O  O106  1  0.49063746  0.40790299  0.66953417  1  -1.16968  0.045474  -0.322033  -0.569944  0.022781  2.098181  0.037
O  O107  1  0.82104124  0.33041699  0.73829038  1  -1.163963  0.045237  -0.322351  -0.570442  0.022699  2.098159  0.036
O  O108  1  0.91960794  0.99999121  0.69476592  1  -1.158595  0.045839  -0.322121  -0.569394  0.022984  2.101682  0.037
O  O109  1  0.22508739  0.30532044  0.30531788  1  -1.167653  0.04578  -0.321557  -0.567781  0.022949  2.101532  0.036
O  O110  1  0.91961024  0.69476160  0.99998869  1  -1.158673  0.045834  -0.322058  -0.569336  0.022982  2.101876  0.037
O  O111  1  0.81300334  0.61839753  0.61840031  1  -1.166744  0.046041  -0.321543  -0.575559  0.023146  2.098246  0.037
O  O112  1  0.19467833  0.99995605  0.38168937  1  -1.168564  0.046019  -0.3214  -0.575146  0.023167  2.097282  0.037
O  O113  1  0.19467755  0.38168809  0.99995546  1  -1.168545  0.046016  -0.321381  -0.575093  0.023165  2.097282  0.037
F  F114  1  0.57165992  0.31308610  0.18834050  1  -0.627366  0.00375  -0.102523  -0.137372  0.001807  1.385508  0.003
F  F115  1  0.38334693  0.12471815  0.81167295  1  -0.624092  0.003746  -0.102048  -0.137028  0.001809  1.387988  0.003
F  F116  1  0.38334690  0.81167343  0.12471747  1  -0.62412  0.003746  -0.102058  -0.137052  0.001809  1.388009  0.003
F  F117  1  0.25860235  0.87520770  0.68695392  1  -0.624741  0.003748  -0.102297  -0.137382  0.001813  1.38613  0.003
F  F118  1  0.57166861  0.18834447  0.31309353  1  -0.621906  0.003748  -0.102514  -0.1374  0.001807  1.385582  0.003
F  F119  1  0.25860182  0.68695548  0.87520871  1  -0.624488  0.003748  -0.102299  -0.137389  0.001813  1.386157  0.003
F  F120  1  0.61651110  0.99998113  0.32833164  1  -0.625546  0.003552  -0.10236  -0.139193  0.001723  1.399805  0.003
F  F121  1  0.28831016  0.67166100  0.67166100  1  -0.626032  0.00356  -0.102388  -0.139638  0.001727  1.399724  0.003
F  F122  1  0.61651124  0.32833186  0.99998265  1  -0.625412  0.003552  -0.102333  -0.139172  0.001723  1.399816  0.003
F  F123  1  0.62361852  0.85540873  0.85540551  1  -0.623018  0.003618  -0.101931  -0.136127  0.001729  1.349795  0.003
F  F124  1  0.76825686  0.99993243  0.14449670  1  -0.623777  0.003613  -0.100837  -0.134828  0.001734  1.350934  0.003
F  F125  1  0.76825591  0.14450018  0.99993679  1  -0.625734  0.003616  -0.100857  -0.134877  0.001734  1.350809  0.003
