# generated using pymatgen
data_CdH10C16N6O7
_symmetry_space_group_name_H-M   'P 1'
_cell_length_a   9.46082190
_cell_length_b   13.73125936
_cell_length_c   17.18472544
_cell_angle_alpha   89.99996743
_cell_angle_beta   101.75751024
_cell_angle_gamma   90.00017521
_symmetry_Int_Tables_number   1
_chemical_formula_structural   CdH10C16N6O7
_chemical_formula_sum   'Cd4 H40 C64 N24 O28'
_cell_volume   2185.61093072
_cell_formula_units_Z   4
loop_
 _symmetry_equiv_pos_site_id
 _symmetry_equiv_pos_as_xyz
  1  'x, y, z'
loop_
 _atom_site_type_symbol
 _atom_site_label
 _atom_site_symmetry_multiplicity
 _atom_site_fract_x
 _atom_site_fract_y
 _atom_site_fract_z
 _atom_site_occupancy
 _atom_site_pbe_bader_charge
 _atom_site_pbe_bader_spin_density
 _atom_site_pbe_cm5_charge
 _atom_site_pbe_ddec_charge
 _atom_site_pbe_ddec_spin_density
 _atom_site_pbe_ddec_sum_bond_order
 _atom_site_pbe_magmom
Cd  Cd0  1  0.17325978  0.69835988  0.39156706  1  1.273106  0  0.779265  0.786615  0  2.211713  0
Cd  Cd1  1  0.32673277  0.19835575  0.10843307  1  1.273161  0  0.779236  0.786492  0  2.2118  0
Cd  Cd2  1  0.82673544  0.30164233  0.60843283  1  1.273159  0  0.779266  0.78655  0  2.211792  0
Cd  Cd3  1  0.67326353  0.80164427  0.89156695  1  1.273129  0  0.779254  0.786549  0  2.211768  0
H  H4  1  0.45030971  0.69492854  0.51347385  1  0.112141  0  0.110655  0.132025  0  1.009284  0
H  H5  1  0.04969117  0.19492721  0.98652499  1  0.112185  0  0.110641  0.13205  0  1.009281  0
H  H6  1  0.54969528  0.30506857  0.48652252  1  0.112222  0  0.110641  0.132002  0  1.009288  0
H  H7  1  0.95030732  0.80506990  0.01347353  1  0.112118  0  0.110672  0.132027  0  1.009288  0
H  H8  1  0.64333841  0.70150858  0.63601132  1  0.115856  0  0.107646  0.115622  0  0.996714  0
H  H9  1  0.85666882  0.20150870  0.86398422  1  0.115616  0  0.107574  0.115475  0  0.996751  0
H  H10  1  0.35667311  0.29848999  0.36398231  1  0.115639  0  0.10757  0.115501  0  0.99674  0
H  H11  1  0.14333619  0.79849278  0.13601157  1  0.115905  0  0.107639  0.115545  0  0.996793  0
H  H12  1  0.66471313  0.57221234  0.73736538  1  0.066329  0  0.10746  0.113865  0  0.98341  0
H  H13  1  0.83529569  0.07221322  0.76263041  1  0.066123  0  0.107432  0.1138  0  0.983568  0
H  H14  1  0.33529508  0.42779205  0.26263427  1  0.066185  0  0.107464  0.11385  0  0.98351  0
H  H15  1  0.16471475  0.92779117  0.23736368  1  0.066401  0  0.107483  0.113851  0  0.983487  0
H  H16  1  0.49406104  0.43139042  0.71817997  1  0.100271  0  0.109505  0.117317  0  0.999738  0
H  H17  1  0.00594521  0.93138772  0.78181996  1  0.100069  0  0.109491  0.117288  0  0.999752  0
H  H18  1  0.50594169  0.56861689  0.28182487  1  0.100173  0  0.109501  0.117367  0  0.99971  0
H  H19  1  0.99405978  0.06861084  0.21817757  1  0.100144  0  0.109507  0.11731  0  0.999741  0
H  H20  1  0.10691890  0.33586716  0.50292352  1  0.137628  0  0.114291  0.140417  0  1.006012  0
H  H21  1  0.39307608  0.83586222  0.99707922  1  0.137591  0  0.114321  0.140448  0  1.005992  0
H  H22  1  0.89308276  0.66413504  0.49708061  1  0.137624  0  0.114301  0.140397  0  1.005984  0
H  H23  1  0.60691694  0.16413343  0.00292449  1  0.137616  0  0.114271  0.140362  0  1.005979  0
H  H24  1  0.29412172  0.34123390  0.63080263  1  0.11325  0  0.114297  0.120265  0  0.994245  0
H  H25  1  0.20587439  0.84123302  0.86919792  1  0.113226  0  0.114291  0.120264  0  0.994268  0
H  H26  1  0.70588102  0.65876903  0.36920105  1  0.113331  0  0.114249  0.120182  0  0.994273  0
H  H27  1  0.79412299  0.15876336  0.13080281  1  0.113295  0  0.114302  0.120289  0  0.99423  0
H  H28  1  0.73806133  0.47843317  0.14674851  1  0.168797  0  0.117969  0.141237  0  1.023868  0
H  H29  1  0.76192469  0.97843315  0.35325195  1  0.16867  0  0.117943  0.141241  0  1.023811  0
H  H30  1  0.26194577  0.52156175  0.85325276  1  0.168768  0  0.117923  0.141152  0  1.023905  0
H  H31  1  0.23806515  0.02157052  0.64674558  1  0.168795  0  0.117998  0.141277  0  1.023868  0
H  H32  1  0.53050102  0.37927892  0.07741428  1  0.127301  0  0.120624  0.093532  0  0.998832  0
H  H33  1  0.96948996  0.87928584  0.42258621  1  0.127296  0  0.120605  0.093483  0  0.998881  0
H  H34  1  0.46950393  0.62071891  0.92258557  1  0.127527  0  0.120606  0.093552  0  0.998787  0
H  H35  1  0.03050201  0.12072365  0.57741389  1  0.127345  0  0.120571  0.093485  0  0.998793  0
H  H36  1  0.57124377  0.18550352  0.26642648  1  0.150743  0  0.12068  0.094111  0  1.023753  0
H  H37  1  0.92875066  0.68550684  0.23357508  1  0.151307  0  0.120653  0.09409  0  1.023731  0
H  H38  1  0.42875362  0.81449577  0.73357308  1  0.150748  0  0.120649  0.094097  0  1.023708  0
H  H39  1  0.07125210  0.31449755  0.76642743  1  0.15122  0  0.120646  0.094085  0  1.023736  0
H  H40  1  0.78381976  0.27361872  0.34269638  1  0.195045  0  0.111179  0.123842  0  1.044917  0
H  H41  1  0.71616748  0.77361655  0.15730664  1  0.195049  0  0.111178  0.123796  0  1.044957  0
H  H42  1  0.21617871  0.72637693  0.65730331  1  0.195021  0  0.111169  0.123859  0  1.044897  0
H  H43  1  0.28383207  0.22638565  0.84269317  1  0.195067  0  0.111143  0.123762  0  1.044931  0
C  C44  1  0.46038763  0.63779976  0.55825665  1  -0.027837  0  -0.086642  -0.162  0  3.920794  0
C  C45  1  0.03961626  0.13779917  0.94174082  1  -0.027652  0  -0.086661  -0.162143  0  3.920736  0
C  C46  1  0.53962060  0.36219953  0.44174067  1  -0.027718  0  -0.0867  -0.162082  0  3.920582  0
C  C47  1  0.96038006  0.86219721  0.05825804  1  -0.027515  0  -0.086656  -0.161969  0  3.920709  0
C  C48  1  0.56785323  0.64073622  0.62566475  1  -0.066968  0  -0.079073  -0.049268  0  3.971798  0
C  C49  1  0.93215480  0.14073576  0.87433150  1  -0.066889  0  -0.078913  -0.048936  0  3.971524  0
C  C50  1  0.43215935  0.35926380  0.37433075  1  -0.066823  0  -0.078917  -0.048991  0  3.971507  0
C  C51  1  0.06784586  0.85926280  0.12566612  1  -0.06724  0  -0.079052  -0.049217  0  3.971883  0
C  C52  1  0.58041051  0.56635046  0.68387815  1  -0.008648  0  -0.082187  -0.066197  0  3.97886  0
C  C53  1  0.91959611  0.06635148  0.81611739  1  -0.008831  0  -0.082248  -0.066304  0  3.978929  0
C  C54  1  0.41959772  0.43365101  0.31611918  1  -0.008844  0  -0.082296  -0.066404  0  3.978883  0
C  C55  1  0.08040564  0.93364781  0.18387919  1  -0.008743  0  -0.082267  -0.066272  0  3.979174  0
C  C56  1  0.48645465  0.48857819  0.67349028  1  -0.018452  0  -0.084182  -0.119542  0  3.965572  0
C  C57  1  0.01354862  0.98857693  0.82650870  1  -0.018361  0  -0.084114  -0.119369  0  3.965431  0
C  C58  1  0.51355028  0.51142475  0.32651132  1  -0.018379  0  -0.084117  -0.119411  0  3.965374  0
C  C59  1  0.98645200  0.01141945  0.17349124  1  -0.018797  0  -0.084134  -0.119394  0  3.965501  0
C  C60  1  0.37707895  0.48147969  0.60373921  1  0.015454  0  0.000656  0.039002  0  3.972997  0
C  C61  1  0.12292538  0.98147716  0.89625989  1  0.015985  0  0.000598  0.038876  0  3.973063  0
C  C62  1  0.62292707  0.51852178  0.39626252  1  0.016018  0  0.000627  0.038921  0  3.973052  0
C  C63  1  0.87707309  0.01851703  0.10373979  1  0.016012  0  0.00064  0.038927  0  3.972978  0
C  C64  1  0.36255468  0.55834810  0.54572042  1  0.443853  0  0.115449  0.208972  0  3.981275  0
C  C65  1  0.13744667  0.05834552  0.95427854  1  0.443925  0  0.115441  0.209029  0  3.981152  0
C  C66  1  0.63745136  0.44165264  0.45427956  1  0.44372  0  0.115528  0.209021  0  3.981178  0
C  C67  1  0.86254856  0.94164940  0.04572077  1  0.443721  0  0.115468  0.209007  0  3.981166  0
C  C68  1  0.17154637  0.47746314  0.46559963  1  0.568002  0  0.117709  0.136444  0  4.080355  0
C  C69  1  0.32844959  0.97745984  0.03440077  1  0.567739  0  0.117599  0.136264  0  4.080442  0
C  C70  1  0.82845317  0.52253979  0.53440076  1  0.567912  0  0.117662  0.136378  0  4.080366  0
C  C71  1  0.67154671  0.02253800  0.96559984  1  0.568008  0  0.11768  0.136291  0  4.08058  0
C  C72  1  0.17980993  0.39757607  0.51835297  1  -0.042167  0  -0.086545  -0.165798  0  3.933249  0
C  C73  1  0.32018751  0.89757317  0.98164770  1  -0.042104  0  -0.086566  -0.165808  0  3.933216  0
C  C74  1  0.82019389  0.60242614  0.48165141  1  -0.042191  0  -0.086574  -0.165747  0  3.933081  0
C  C75  1  0.67980661  0.10242248  0.01835381  1  -0.04221  0  -0.086579  -0.165738  0  3.9332  0
C  C76  1  0.28219715  0.40090068  0.58807424  1  0.004931  0  -0.055753  -0.045632  0  3.907209  0
C  C77  1  0.21780248  0.90089761  0.91192610  1  0.004858  0  -0.055712  -0.045599  0  3.907266  0
C  C78  1  0.71780668  0.59910225  0.41192956  1  0.004831  0  -0.055701  -0.045543  0  3.907002  0
C  C79  1  0.78219491  0.09909658  0.08807405  1  0.00494  0  -0.055734  -0.045659  0  3.907221  0
C  C80  1  0.06776353  0.48047080  0.39063822  1  1.110786  0  0.233432  0.286519  0  3.984721  0
C  C81  1  0.43222701  0.98046620  0.10936446  1  1.110793  0  0.233495  0.286529  0  3.984842  0
C  C82  1  0.93223490  0.51953068  0.60936438  1  1.110816  0  0.233418  0.286431  0  3.98481  0
C  C83  1  0.56777146  0.01953309  0.89063523  1  1.110782  0  0.233478  0.286511  0  3.984973  0
C  C84  1  0.89571623  0.44083003  0.29439905  1  1.016685  0  0.239414  0.316144  0  3.935904  0
C  C85  1  0.60427827  0.94082905  0.20560124  1  1.016994  0  0.239395  0.31615  0  3.935931  0
C  C86  1  0.10428548  0.55916999  0.70560101  1  1.01671  0  0.239389  0.316106  0  3.935926  0
C  C87  1  0.39571806  0.05917315  0.79439645  1  1.014592  0  0.239329  0.31605  0  3.935954  0
C  C88  1  0.77601315  0.38415704  0.25117630  1  0.036068  0  0.015065  0.048125  0  4.02721  0
C  C89  1  0.72397893  0.88415701  0.24882490  1  0.036207  0  0.014971  0.047997  0  4.027291  0
C  C90  1  0.22399070  0.61584152  0.74882576  1  0.035983  0  0.015017  0.048035  0  4.027205  0
C  C91  1  0.27601523  0.11584665  0.75117371  1  0.038368  0  0.015067  0.048088  0  4.027232  0
C  C92  1  0.70460379  0.41398601  0.17525390  1  -0.00378  0  -0.065074  -0.135514  0  3.878775  0
C  C93  1  0.79538841  0.91398899  0.32474789  1  -0.003681  0  -0.06498  -0.135507  0  3.878794  0
C  C94  1  0.29539899  0.58601037  0.82474687  1  -0.003653  0  -0.064974  -0.135311  0  3.878718  0
C  C95  1  0.20460466  0.08601540  0.67525176  1  -0.003882  0  -0.065106  -0.135615  0  3.878883  0
C  C96  1  0.58843345  0.35886860  0.13653424  1  0.462295  0  0.04904  0.097793  0  3.937394  0
C  C97  1  0.91155852  0.85887325  0.36346638  1  0.462029  0  0.049095  0.097943  0  3.937623  0
C  C98  1  0.41156718  0.64112851  0.86346570  1  0.461996  0  0.049101  0.097813  0  3.937385  0
C  C99  1  0.08843562  0.14113478  0.63653397  1  0.462257  0  0.049085  0.097883  0  3.937417  0
C  C100  1  0.61057143  0.25082606  0.24192217  1  0.486365  0  0.049463  0.097109  0  3.921812  0
C  C101  1  0.88941896  0.75082782  0.25807949  1  0.485345  0  0.049431  0.097066  0  3.921832  0
C  C102  1  0.38942812  0.74917324  0.75807707  1  0.486325  0  0.049527  0.097172  0  3.921667  0
C  C103  1  0.11057840  0.24917438  0.74192240  1  0.485321  0  0.049385  0.097002  0  3.921796  0
C  C104  1  0.72924735  0.30040428  0.28471751  1  -0.051837  0  -0.069354  -0.125661  0  3.887558  0
C  C105  1  0.77074219  0.80040292  0.21528402  1  -0.051878  0  -0.069291  -0.125529  0  3.887672  0
C  C106  1  0.27075220  0.69959646  0.71528231  1  -0.051773  0  -0.069353  -0.125652  0  3.887493  0
C  C107  1  0.22925089  0.19960001  0.78471446  1  -0.051927  0  -0.069246  -0.125481  0  3.887709  0
N  N108  1  0.25720977  0.55563086  0.47870347  1  -1.204632  0  -0.305664  -0.301066  0  3.407669  0
N  N109  1  0.24278971  0.05562734  0.02129695  1  -1.204477  0  -0.305606  -0.300972  0  3.40758  0
N  N110  1  0.74279192  0.44436916  0.52129775  1  -1.204583  0  -0.305653  -0.301026  0  3.407548  0
N  N111  1  0.75720661  0.94436904  0.97870191  1  -1.204619  0  -0.305658  -0.300992  0  3.40754  0
N  N112  1  0.05540653  0.55008787  0.33720002  1  -0.772677  0  -0.226712  -0.233431  0  3.387322  0
N  N113  1  0.44458426  0.05008394  0.16280115  1  -0.772738  0  -0.226723  -0.233415  0  3.387306  0
N  N114  1  0.94459190  0.44991361  0.66280257  1  -0.77266  0  -0.226699  -0.233391  0  3.387348  0
N  N115  1  0.55540773  0.94991608  0.83719779  1  -0.772622  0  -0.226655  -0.233338  0  3.387435  0
N  N116  1  0.94482087  0.52486535  0.27514562  1  -0.640036  0  -0.196565  -0.200026  0  3.138369  0
N  N117  1  0.55517284  0.02486348  0.22485536  1  -0.64038  0  -0.196496  -0.199988  0  3.138302  0
N  N118  1  0.05518081  0.47513394  0.72485618  1  -0.640095  0  -0.196565  -0.20002  0  3.138339  0
N  N119  1  0.44482131  0.97513727  0.77514383  1  -0.640052  0  -0.196494  -0.199944  0  3.13839  0
N  N120  1  0.54092079  0.27898730  0.16902875  1  -1.236921  0  -0.326647  -0.243899  0  3.505065  0
N  N121  1  0.95907190  0.77899135  0.33097199  1  -1.236189  0  -0.326696  -0.244034  0  3.505315  0
N  N122  1  0.45908201  0.72100908  0.83097027  1  -1.236912  0  -0.326736  -0.244071  0  3.505136  0
N  N123  1  0.04092118  0.22101377  0.66902649  1  -1.23639  0  -0.326626  -0.243888  0  3.505035  0
N  N124  1  0.19503814  0.82902668  0.52368941  1  0.80615  0  0.087948  0.704946  0  4.419764  0
N  N125  1  0.30495789  0.32902952  0.97631288  1  0.806112  0  0.088017  0.705168  0  4.419573  0
N  N126  1  0.80495920  0.17097043  0.47631364  1  0.806121  0  0.087952  0.705  0  4.419792  0
N  N127  1  0.69504273  0.67096977  0.02368764  1  0.806107  0  0.087937  0.705025  0  4.419717  0
N  N128  1  0.38373726  0.73933816  0.30138720  1  0.817588  0  0.092329  0.711812  0  4.409908  0
N  N129  1  0.11625979  0.23933790  0.19861402  1  0.817551  0  0.092292  0.711832  0  4.409723  0
N  N130  1  0.61626121  0.26066040  0.69861307  1  0.81755  0  0.09239  0.711896  0  4.409863  0
N  N131  1  0.88373866  0.76066212  0.80138741  1  0.817649  0  0.092414  0.711972  0  4.409788  0
O  O132  1  0.25051794  0.85323794  0.46481799  1  -0.532869  0  -0.207321  -0.443821  0  1.928228  0
O  O133  1  0.24947637  0.35324243  0.03518344  1  -0.533027  0  -0.207345  -0.443912  0  1.928142  0
O  O134  1  0.74947404  0.14675771  0.53518211  1  -0.533024  0  -0.207333  -0.443864  0  1.928246  0
O  O135  1  0.75052210  0.64675759  0.96481683  1  -0.532991  0  -0.207313  -0.443865  0  1.928188  0
O  O136  1  0.20861741  0.87935126  0.58481733  1  -0.491357  0  -0.167623  -0.398332  0  1.938047  0
O  O137  1  0.29138209  0.37935485  0.91518534  1  -0.491338  0  -0.167635  -0.398399  0  1.938063  0
O  O138  1  0.79138212  0.12064803  0.41518423  1  -0.491307  0  -0.167618  -0.398349  0  1.938087  0
O  O139  1  0.70861853  0.62064517  0.08481518  1  -0.49136  0  -0.167612  -0.398347  0  1.938095  0
O  O140  1  0.12257677  0.74805005  0.51807387  1  -0.586748  0  -0.222698  -0.488321  0  2.020228  0
O  O141  1  0.37741565  0.24805159  0.98192862  1  -0.586556  0  -0.222709  -0.488344  0  2.02013  0
O  O142  1  0.87742486  0.25194705  0.48193259  1  -0.58662  0  -0.2227  -0.488293  0  2.020111  0
O  O143  1  0.62258389  0.75194843  0.01807177  1  -0.586571  0  -0.222698  -0.488318  0  2.020115  0
O  O144  1  0.96982224  0.40897794  0.36748272  1  -1.02938  0  -0.074111  -0.133027  0  2.515317  0
O  O145  1  0.53017101  0.90897467  0.13252035  1  -1.029363  0  -0.074109  -0.132909  0  2.515318  0
O  O146  1  0.03017945  0.59102208  0.63251909  1  -1.029377  0  -0.074035  -0.132901  0  2.5153  0
O  O147  1  0.46983071  0.09102826  0.86747855  1  -1.02948  0  -0.07413  -0.132952  0  2.515373  0
O  O148  1  0.48018467  0.75609930  0.26384363  1  -0.499627  0  -0.174036  -0.413109  0  1.956148  0
O  O149  1  0.01981246  0.25610536  0.23615643  1  -0.499726  0  -0.173931  -0.413007  0  1.956008  0
O  O150  1  0.51981593  0.24389707  0.73615806  1  -0.499681  0  -0.174067  -0.413141  0  1.956165  0
O  O151  1  0.98018707  0.74389757  0.76384454  1  -0.499653  0  -0.174053  -0.413145  0  1.956073  0
O  O152  1  0.24957285  0.74679110  0.26899417  1  -0.556466  0  -0.200459  -0.45155  0  1.991863  0
O  O153  1  0.25042422  0.24678308  0.23100763  1  -0.556348  0  -0.200496  -0.45162  0  1.991847  0
O  O154  1  0.75042671  0.25320892  0.73100448  1  -0.556379  0  -0.200504  -0.451599  0  1.991896  0
O  O155  1  0.74957530  0.75320893  0.76899450  1  -0.556432  0  -0.200521  -0.451629  0  1.991926  0
O  O156  1  0.41512961  0.71226054  0.37463552  1  -0.558289  0  -0.203446  -0.449499  0  2.03755  0
O  O157  1  0.08486517  0.21226171  0.12536487  1  -0.558283  0  -0.203457  -0.449526  0  2.037541  0
O  O158  1  0.58486561  0.28773875  0.62536495  1  -0.558301  0  -0.203397  -0.449462  0  2.037499  0
O  O159  1  0.91513222  0.78774195  0.87463528  1  -0.558335  0  -0.203444  -0.449541  0  2.037511  0
