# generated using pymatgen
data_NaH7C2(N2O)2
_symmetry_space_group_name_H-M   'P 1'
_cell_length_a   6.93748755
_cell_length_b   6.86093673
_cell_length_c   11.99336941
_cell_angle_alpha   90.00014363
_cell_angle_beta   89.99985784
_cell_angle_gamma   90.00000323
_symmetry_Int_Tables_number   1
_chemical_formula_structural   NaH7C2(N2O)2
_chemical_formula_sum   'Na4 H28 C8 N16 O8'
_cell_volume   570.85635671
_cell_formula_units_Z   4
loop_
 _symmetry_equiv_pos_site_id
 _symmetry_equiv_pos_as_xyz
  1  'x, y, z'
loop_
 _atom_site_type_symbol
 _atom_site_label
 _atom_site_symmetry_multiplicity
 _atom_site_fract_x
 _atom_site_fract_y
 _atom_site_fract_z
 _atom_site_occupancy
 _atom_site_hle17_bader_spin_density
 _atom_site_hle17_ddec_charge
 _atom_site_hle17_ddec_spin_density
 _atom_site_hle17_ddec_sum_bond_order
 _atom_site_hle17_magmom
 _atom_site_hse06_10hf_bader_spin_density
 _atom_site_hse06_10hf_ddec_charge
 _atom_site_hse06_10hf_ddec_spin_density
 _atom_site_hse06_10hf_ddec_sum_bond_order
 _atom_site_hse06_10hf_magmom
 _atom_site_hse06_bader_spin_density
 _atom_site_hse06_ddec_charge
 _atom_site_hse06_ddec_spin_density
 _atom_site_hse06_ddec_sum_bond_order
 _atom_site_hse06_magmom
 _atom_site_pbe_bader_spin_density
 _atom_site_pbe_cm5_charge
 _atom_site_pbe_ddec_charge
 _atom_site_pbe_ddec_spin_density
 _atom_site_pbe_ddec_sum_bond_order
 _atom_site_pbe_magmom
Na  Na0  1  0.13990357  0.25000095  0.72411436  1  0  0.879657  0  0.395421  0  0  0.816945  0  0.572579  0  0  0.828798  0  0.549462  0  0  0.650641  0.808412  0  0.588929  0
Na  Na1  1  0.36009530  0.75000159  0.22411579  1  0  0.87967  0  0.395394  0  0  0.816966  0  0.572522  0  0  0.828828  0  0.549411  0  0  0.650644  0.808441  0  0.588875  0
Na  Na2  1  0.86009464  0.75000174  0.27588320  1  0  0.879664  0  0.395401  0  0  0.816962  0  0.572528  0  0  0.828822  0  0.549417  0  0  0.650652  0.808437  0  0.588881  0
Na  Na3  1  0.63990436  0.25000110  0.77588427  1  0  0.879664  0  0.395404  0  0  0.816968  0  0.572533  0  0  0.828824  0  0.549416  0  0  0.650649  0.808438  0  0.588882  0
H  H4  1  0.92806775  0.92072586  0.77646320  1  0  0.387567  0  0.934022  0  0  0.350053  0  1.011004  0  0  0.360057  0  0.996436  0  0  0.285744  0.343031  0  1.021219  0
H  H5  1  0.57193413  0.07927844  0.27646324  1  0  0.387575  0  0.934016  0  0  0.350056  0  1.011009  0  0  0.360062  0  0.996439  0  0  0.285729  0.343035  0  1.021224  0
H  H6  1  0.07193478  0.42072583  0.22353627  1  0  0.387579  0  0.933995  0  0  0.350066  0  1.010974  0  0  0.36007  0  0.996406  0  0  0.285753  0.343046  0  1.021186  0
H  H7  1  0.42806121  0.57927817  0.72353323  1  0  0.387539  0  0.934061  0  0  0.350027  0  1.011037  0  0  0.36003  0  0.996469  0  0  0.285711  0.343005  0  1.021252  0
H  H8  1  0.07193623  0.07927683  0.22353602  1  0  0.387553  0  0.934038  0  0  0.350044  0  1.011018  0  0  0.360048  0  0.996448  0  0  0.285733  0.343022  0  1.021233  0
H  H9  1  0.42806841  0.92072425  0.72353432  1  0  0.387579  0  0.934008  0  0  0.350061  0  1.010994  0  0  0.360065  0  0.996426  0  0  0.285735  0.34304  0  1.021208  0
H  H10  1  0.92806055  0.57927686  0.77646462  1  0  0.387569  0  0.934027  0  0  0.350059  0  1.011  0  0  0.360061  0  0.996434  0  0  0.285747  0.343038  0  1.021214  0
H  H11  1  0.57193557  0.42072598  0.27646265  1  0  0.387524  0  0.934066  0  0  0.35001  0  1.011048  0  0  0.360015  0  0.996479  0  0  0.28573  0.342989  0  1.021263  0
H  H12  1  0.82684692  0.92441898  0.65977547  1  0  0.388473  0  0.926263  0  0  0.35223  0  1.004614  0  0  0.361719  0  0.990801  0  0  0.289433  0.345555  0  1.014325  0
H  H13  1  0.67315546  0.07558336  0.15977535  1  0  0.38853  0  0.926322  0  0  0.352275  0  1.004601  0  0  0.361765  0  0.990784  0  0  0.289456  0.345601  0  1.014311  0
H  H14  1  0.17315706  0.42441801  0.34022401  1  0  0.388438  0  0.926303  0  0  0.352184  0  1.004679  0  0  0.361673  0  0.990864  0  0  0.289412  0.34551  0  1.014388  0
H  H15  1  0.32683699  0.57558504  0.84022111  1  0  0.388431  0  0.926306  0  0  0.352181  0  1.004683  0  0  0.36167  0  0.990868  0  0  0.289411  0.345506  0  1.014393  0
H  H16  1  0.17315851  0.07558663  0.34022542  1  0  0.388472  0  0.926237  0  0  0.352224  0  1.004643  0  0  0.361715  0  0.990827  0  0  0.289397  0.34555  0  1.014354  0
H  H17  1  0.32684564  0.92441787  0.84022387  1  0  0.38842  0  0.926362  0  0  0.35217  0  1.004706  0  0  0.361659  0  0.990893  0  0  0.289409  0.345496  0  1.014416  0
H  H18  1  0.82683827  0.57558614  0.65977605  1  0  0.388434  0  0.926418  0  0  0.352178  0  1.004718  0  0  0.361666  0  0.990905  0  0  0.289398  0.345502  0  1.01443  0
H  H19  1  0.67315690  0.42441765  0.15977644  1  0  0.388521  0  0.926298  0  0  0.352273  0  1.004594  0  0  0.361764  0  0.990778  0  0  0.289458  0.3456  0  1.014303  0
H  H20  1  0.37077806  0.25000260  0.12326302  1  0  0.122066  0  0.966481  0  0  0.142621  0  1.028079  0  0  0.144873  0  1.025913  0  0  0.103659  0.140893  0  1.02986  0
H  H21  1  0.12922701  0.74999514  0.62327151  1  0  0.122117  0  0.966267  0  0  0.142698  0  1.027871  0  0  0.144953  0  1.025699  0  0  0.103698  0.140971  0  1.029653  0
H  H22  1  0.62922448  0.74999135  0.87673620  1  0  0.122041  0  0.966492  0  0  0.142615  0  1.028073  0  0  0.144868  0  1.025907  0  0  0.103662  0.140888  0  1.029854  0
H  H23  1  0.87077553  0.25000317  0.37673939  1  0  0.122054  0  0.966566  0  0  0.142616  0  1.028145  0  0  0.144868  0  1.025982  0  0  0.10366  0.14089  0  1.029927  0
H  H24  1  0.39533265  0.12114889  0.99561076  1  0  0.123786  0  0.963824  0  0  0.143384  0  1.028159  0  0  0.14474  0  1.027767  0  0  0.106514  0.142337  0  1.028636  0
H  H25  1  0.10467228  0.87884171  0.49561942  1  0  0.123675  0  0.96395  0  0  0.143291  0  1.028272  0  0  0.144646  0  1.027883  0  0  0.106488  0.142243  0  1.028751  0
H  H26  1  0.60466557  0.62113681  0.00438744  1  0  0.123734  0  0.963845  0  0  0.143342  0  1.028178  0  0  0.144698  0  1.027788  0  0  0.106503  0.142295  0  1.028657  0
H  H27  1  0.89533170  0.37885466  0.50439000  1  0  0.123769  0  0.963812  0  0  0.143388  0  1.028135  0  0  0.144746  0  1.027742  0  0  0.106511  0.14234  0  1.028617  0
H  H28  1  0.60466701  0.87884215  0.00438596  1  0  0.12375  0  0.96389  0  0  0.143356  0  1.028211  0  0  0.144712  0  1.027821  0  0  0.106504  0.142311  0  1.028687  0
H  H29  1  0.89533171  0.12115078  0.50438897  1  0  0.123801  0  0.963828  0  0  0.143402  0  1.028156  0  0  0.144757  0  1.027766  0  0  0.106526  0.142356  0  1.028634  0
H  H30  1  0.39533120  0.37885276  0.99560928  1  0  0.123762  0  0.963839  0  0  0.14338  0  1.028162  0  0  0.144735  0  1.027774  0  0  0.1065  0.142331  0  1.028643  0
H  H31  1  0.10467228  0.62114366  0.49561840  1  0  0.123777  0  0.963839  0  0  0.143393  0  1.028159  0  0  0.14475  0  1.027767  0  0  0.106525  0.142343  0  1.028642  0
C  C32  1  0.11910647  0.25000091  0.02371153  1  0  0.386606  0  3.745318  0  0  0.373251  0  4.015766  0  0  0.383354  0  4.033667  0  0  0.221967  0.366581  0  4.003386  0
C  C33  1  0.38089614  0.74999641  0.52371799  1  0  0.386884  0  3.744894  0  0  0.373422  0  4.015496  0  0  0.383524  0  4.0334  0  0  0.222085  0.366752  0  4.003116  0
C  C34  1  0.88090040  0.74999304  0.97628686  1  0  0.386813  0  3.744852  0  0  0.373236  0  4.015623  0  0  0.383338  0  4.033527  0  0  0.22199  0.366566  0  4.003245  0
C  C35  1  0.61910208  0.25000337  0.47628791  1  0  0.38674  0  3.744979  0  0  0.373238  0  4.015643  0  0  0.383341  0  4.033543  0  0  0.221997  0.366568  0  4.003266  0
C  C36  1  0.33170358  0.25000095  0.03502763  1  0  -0.381523  0  3.69645  0  0  -0.466558  0  3.933572  0  0  -0.468832  0  3.939538  0  0  -0.226498  -0.464882  0  3.929726  0
C  C37  1  0.16829898  0.74999204  0.53503773  1  0  -0.381543  0  3.6963  0  0  -0.466603  0  3.933456  0  0  -0.468875  0  3.939418  0  0  -0.226571  -0.46492  0  3.929596  0
C  C38  1  0.66829464  0.74998863  0.96496826  1  0  -0.381503  0  3.696016  0  0  -0.466508  0  3.933246  0  0  -0.468783  0  3.939211  0  0  -0.226499  -0.46483  0  3.929392  0
C  C39  1  0.83170789  0.25000190  0.46497067  1  0  -0.381555  0  3.696115  0  0  -0.466567  0  3.933292  0  0  -0.46884  0  3.939252  0  0  -0.226521  -0.464878  0  3.929415  0
N  N40  1  0.01919085  0.25000138  0.92747014  1  0  -0.356945  0  2.94259  0  0  -0.326037  0  3.224852  0  0  -0.338058  0  3.239476  0  0  -0.273404  -0.317913  0  3.214874  0
N  N41  1  0.48080139  0.74999912  0.42747390  1  0  -0.357112  0  2.942276  0  0  -0.32618  0  3.224608  0  0  -0.338202  0  3.239235  0  0  -0.273475  -0.318058  0  3.214635  0
N  N42  1  0.98080015  0.74999840  0.07252825  1  0  -0.35705  0  2.942536  0  0  -0.326081  0  3.224899  0  0  -0.338106  0  3.23953  0  0  -0.273485  -0.317961  0  3.214929  0
N  N43  1  0.51919395  0.25000065  0.57252782  1  0  -0.356992  0  2.942568  0  0  -0.326061  0  3.224921  0  0  -0.338087  0  3.239551  0  0  -0.273434  -0.317939  0  3.214945  0
N  N44  1  0.83208594  0.25000150  0.95724434  1  0  -0.138369  0  3.031508  0  0  -0.123453  0  3.328247  0  0  -0.123256  0  3.341002  0  0  -0.150181  -0.123177  0  3.319515  0
N  N45  1  0.66791229  0.75000357  0.45724522  1  0  -0.138314  0  3.031407  0  0  -0.12339  0  3.328148  0  0  -0.123198  0  3.340909  0  0  -0.150151  -0.123118  0  3.319422  0
N  N46  1  0.16790939  0.75000411  0.04275238  1  0  -0.138382  0  3.031586  0  0  -0.12344  0  3.32828  0  0  -0.123244  0  3.341041  0  0  -0.150152  -0.123164  0  3.319553  0
N  N47  1  0.33208593  0.25000058  0.54275317  1  0  -0.13836  0  3.031496  0  0  -0.123414  0  3.328198  0  0  -0.12322  0  3.340957  0  0  -0.150166  -0.12314  0  3.319471  0
N  N48  1  0.81879484  0.25000105  0.06722007  1  0  -0.145521  0  3.13114  0  0  -0.102196  0  3.397259  0  0  -0.107788  0  3.411862  0  0  -0.102727  -0.098164  0  3.387391  0
N  N49  1  0.68121082  0.75000527  0.56721931  1  0  -0.145624  0  3.131608  0  0  -0.102321  0  3.397726  0  0  -0.107913  0  3.412335  0  0  -0.102789  -0.098289  0  3.387858  0
N  N50  1  0.18120482  0.75000456  0.93277749  1  0  -0.145475  0  3.131545  0  0  -0.102173  0  3.397674  0  0  -0.107765  0  3.412278  0  0  -0.102669  -0.098141  0  3.387803  0
N  N51  1  0.31879460  0.25000180  0.43277908  1  0  -0.145497  0  3.13137  0  0  -0.102186  0  3.397505  0  0  -0.107776  0  3.412108  0  0  -0.102696  -0.098155  0  3.387636  0
N  N52  1  0.99815795  0.24999970  0.11137683  1  0  -0.378245  0  3.085098  0  0  -0.319383  0  3.323605  0  0  -0.334096  0  3.338137  0  0  -0.224724  -0.309346  0  3.313737  0
N  N53  1  0.50185473  0.75000098  0.61137884  1  0  -0.378265  0  3.085407  0  0  -0.319351  0  3.323921  0  0  -0.334064  0  3.33846  0  0  -0.224714  -0.309316  0  3.314057  0
N  N54  1  0.00184603  0.74999862  0.88862239  1  0  -0.378308  0  3.08525  0  0  -0.319381  0  3.323843  0  0  -0.334096  0  3.33838  0  0  -0.224763  -0.309345  0  3.313979  0
N  N55  1  0.49815502  0.25000172  0.38862372  1  0  -0.378324  0  3.085245  0  0  -0.319402  0  3.32381  0  0  -0.334115  0  3.338341  0  0  -0.224771  -0.309371  0  3.313954  0
O  O56  1  0.88002600  0.01097532  0.71799276  1  0  -0.89368  0  1.862507  0  0  -0.843263  0  2.060897  0  0  -0.858995  0  2.028824  0  0  -0.681048  -0.832127  0  2.083199  0
O  O57  1  0.61997613  0.98902873  0.21799239  1  0  -0.893741  0  1.862558  0  0  -0.8433  0  2.060761  0  0  -0.85907  0  2.028751  0  0  -0.681065  -0.832168  0  2.08307  0
O  O58  1  0.11997655  0.51097457  0.28200611  1  0  -0.893672  0  1.862528  0  0  -0.843227  0  2.060891  0  0  -0.858981  0  2.028858  0  0  -0.681046  -0.832096  0  2.083192  0
O  O59  1  0.38002208  0.48902968  0.78200384  1  0  -0.893613  0  1.862593  0  0  -0.843176  0  2.060968  0  0  -0.858929  0  2.028936  0  0  -0.680981  -0.83204  0  2.083269  0
O  O60  1  0.11997222  0.98903029  0.28200646  1  0  -0.893646  0  1.862482  0  0  -0.84324  0  2.060772  0  0  -0.858997  0  2.028742  0  0  -0.681008  -0.832108  0  2.083078  0
O  O61  1  0.38002353  0.01097251  0.78200600  1  0  -0.893645  0  1.862586  0  0  -0.843213  0  2.060947  0  0  -0.858954  0  2.028888  0  0  -0.681016  -0.832076  0  2.083247  0
O  O62  1  0.88002023  0.48902958  0.71799478  1  0  -0.893656  0  1.86265  0  0  -0.843196  0  2.060915  0  0  -0.858968  0  2.028927  0  0  -0.681014  -0.83206  0  2.083216  0
O  O63  1  0.61997326  0.51097447  0.21799121  1  0  -0.893675  0  1.862584  0  0  -0.843265  0  2.060845  0  0  -0.859007  0  2.028783  0  0  -0.681066  -0.832133  0  2.083151  0
