# generated using pymatgen
data_CdH16C14(N5O3)2
_symmetry_space_group_name_H-M   'P 1'
_cell_length_a   7.26712211
_cell_length_b   11.63129155
_cell_length_c   12.68096366
_cell_angle_alpha   89.99935351
_cell_angle_beta   99.12894117
_cell_angle_gamma   90.00026546
_symmetry_Int_Tables_number   1
_chemical_formula_structural   CdH16C14(N5O3)2
_chemical_formula_sum   'Cd2 H32 C28 N20 O12'
_cell_volume   1058.29479258
_cell_formula_units_Z   2
loop_
 _symmetry_equiv_pos_site_id
 _symmetry_equiv_pos_as_xyz
  1  'x, y, z'
loop_
 _atom_site_type_symbol
 _atom_site_label
 _atom_site_symmetry_multiplicity
 _atom_site_fract_x
 _atom_site_fract_y
 _atom_site_fract_z
 _atom_site_occupancy
 _atom_site_hle17_bader_spin_density
 _atom_site_hle17_ddec_charge
 _atom_site_hle17_ddec_spin_density
 _atom_site_hle17_ddec_sum_bond_order
 _atom_site_hle17_magmom
 _atom_site_hse06_10hf_bader_spin_density
 _atom_site_hse06_10hf_ddec_charge
 _atom_site_hse06_10hf_ddec_spin_density
 _atom_site_hse06_10hf_ddec_sum_bond_order
 _atom_site_hse06_10hf_magmom
 _atom_site_hse06_bader_spin_density
 _atom_site_hse06_ddec_charge
 _atom_site_hse06_ddec_spin_density
 _atom_site_hse06_ddec_sum_bond_order
 _atom_site_hse06_magmom
 _atom_site_pbe_bader_spin_density
 _atom_site_pbe_cm5_charge
 _atom_site_pbe_ddec_charge
 _atom_site_pbe_ddec_spin_density
 _atom_site_pbe_ddec_sum_bond_order
 _atom_site_pbe_magmom
Cd  Cd0  1  0.99999684  0.49999995  0.99999810  1  0  1.195525  0  1.682933  0  0  1.017209  0  2.136196  0  0  1.06934  0  2.081911  0  0  0.773852  0.980093  0  2.173466  0
Cd  Cd1  1  0.50000269  0.00000022  0.50000054  1  0  1.195524  0  1.682936  0  0  1.017225  0  2.136189  0  0  1.069355  0  2.081905  0  0  0.773834  0.980108  0  2.17346  0
H  H2  1  0.35978046  0.55936820  0.99980986  1  0  0.392098  0  0.929522  0  0  0.358634  0  0.999549  0  0  0.369718  0  0.98337  0  0  0.277374  0.350794  0  1.010962  0
H  H3  1  0.14022005  0.05936199  0.50019262  1  0  0.392094  0  0.929531  0  0  0.358649  0  0.999545  0  0  0.369733  0  0.983367  0  0  0.27736  0.350808  0  1.01096  0
H  H4  1  0.64022114  0.44063470  0.00019227  1  0  0.39208  0  0.929549  0  0  0.358653  0  0.999524  0  0  0.369737  0  0.983346  0  0  0.277379  0.350812  0  1.010937  0
H  H5  1  0.85977887  0.94063575  0.49981016  1  0  0.392124  0  0.929493  0  0  0.358686  0  0.999484  0  0  0.369771  0  0.983304  0  0  0.277409  0.350845  0  1.010898  0
H  H6  1  0.40732064  0.48102563  0.10386443  1  0  0.432608  0  0.862067  0  0  0.40141  0  0.924963  0  0  0.412564  0  0.908612  0  0  0.287248  0.393477  0  0.93659  0
H  H7  1  0.09267738  0.98101859  0.39614109  1  0  0.432742  0  0.861874  0  0  0.401521  0  0.924816  0  0  0.41268  0  0.908456  0  0  0.287297  0.393588  0  0.936443  0
H  H8  1  0.59267431  0.51897812  0.89613973  1  0  0.432752  0  0.861853  0  0  0.401525  0  0.924809  0  0  0.412684  0  0.908449  0  0  0.287287  0.393592  0  0.936436  0
H  H9  1  0.90732720  0.01897743  0.60386277  1  0  0.432787  0  0.8618  0  0  0.401578  0  0.924724  0  0  0.412734  0  0.908367  0  0  0.287294  0.393645  0  0.936351  0
H  H10  1  0.80506110  0.35029711  0.63765503  1  0  0.345716  0  0.855068  0  0  0.339549  0  0.896531  0  0  0.345613  0  0.892628  0  0  0.32501  0.335242  0  0.899377  0
H  H11  1  0.69492946  0.85030368  0.86234355  1  0  0.345716  0  0.855147  0  0  0.339556  0  0.896586  0  0  0.345619  0  0.892687  0  0  0.325046  0.335251  0  0.899428  0
H  H12  1  0.19493911  0.64970148  0.36234702  1  0  0.345693  0  0.855081  0  0  0.339528  0  0.896541  0  0  0.34559  0  0.892642  0  0  0.325044  0.335223  0  0.899382  0
H  H13  1  0.30506568  0.14970008  0.13765114  1  0  0.345716  0  0.855  0  0  0.339552  0  0.896457  0  0  0.345616  0  0.892555  0  0  0.325042  0.335247  0  0.8993  0
H  H14  1  0.96199165  0.40565627  0.55553239  1  0  0.325283  0  0.940463  0  0  0.295763  0  1.02679  0  0  0.304256  0  1.019572  0  0  0.293581  0.289771  0  1.031803  0
H  H15  1  0.53800236  0.90566137  0.94446897  1  0  0.325259  0  0.940474  0  0  0.295782  0  1.026757  0  0  0.304276  0  1.019539  0  0  0.293554  0.28979  0  1.031764  0
H  H16  1  0.03800896  0.59434061  0.44447285  1  0  0.32532  0  0.940261  0  0  0.295788  0  1.026611  0  0  0.304281  0  1.019392  0  0  0.293563  0.289795  0  1.031627  0
H  H17  1  0.46199030  0.09434066  0.05552796  1  0  0.325224  0  0.940555  0  0  0.295715  0  1.026866  0  0  0.30421  0  1.019648  0  0  0.293554  0.289722  0  1.031879  0
H  H18  1  0.23373191  0.50374171  0.66022633  1  0  0.119437  0  0.92194  0  0  0.129034  0  0.987034  0  0  0.131871  0  0.984885  0  0  0.123278  0.127001  0  0.988674  0
H  H19  1  0.26627966  0.00375147  0.83977885  1  0  0.119495  0  0.921851  0  0  0.129137  0  0.986878  0  0  0.131991  0  0.984722  0  0  0.123283  0.1271  0  0.988519  0
H  H20  1  0.76626641  0.49625946  0.33977168  1  0  0.119565  0  0.921937  0  0  0.129229  0  0.986974  0  0  0.132072  0  0.984821  0  0  0.123335  0.127194  0  0.988614  0
H  H21  1  0.73371916  0.99624799  0.16022313  1  0  0.119481  0  0.921818  0  0  0.129107  0  0.986849  0  0  0.131957  0  0.984698  0  0  0.123289  0.127071  0  0.98849  0
H  H22  1  0.07866758  0.62100796  0.65349973  1  0  0.109601  0  0.955681  0  0  0.118494  0  1.019313  0  0  0.120606  0  1.018511  0  0  0.117881  0.116979  0  1.020002  0
H  H23  1  0.42133669  0.12102066  0.84649677  1  0  0.109695  0  0.955683  0  0  0.118489  0  1.019403  0  0  0.120603  0  1.018601  0  0  0.117867  0.116969  0  1.020095  0
H  H24  1  0.92133650  0.37899923  0.34650014  1  0  0.109618  0  0.955575  0  0  0.118535  0  1.019233  0  0  0.120644  0  1.018437  0  0  0.117916  0.117019  0  1.019922  0
H  H25  1  0.57866322  0.87897966  0.15350290  1  0  0.109587  0  0.955791  0  0  0.118428  0  1.019445  0  0  0.120542  0  1.018637  0  0  0.117855  0.116909  0  1.020135  0
H  H26  1  0.20415452  0.82314665  0.62640680  1  0  0.102335  0  0.910206  0  0  0.11686  0  0.964093  0  0  0.11924  0  0.960727  0  0  0.143324  0.114973  0  0.966633  0
H  H27  1  0.29583969  0.32315178  0.87358793  1  0  0.102287  0  0.910218  0  0  0.116849  0  0.964066  0  0  0.11923  0  0.960696  0  0  0.143266  0.114962  0  0.966608  0
H  H28  1  0.79585502  0.17685625  0.37359256  1  0  0.102251  0  0.910261  0  0  0.116773  0  0.964146  0  0  0.119152  0  0.960781  0  0  0.143257  0.114888  0  0.966683  0
H  H29  1  0.70415347  0.67685198  0.12641298  1  0  0.102285  0  0.910205  0  0  0.116845  0  0.964048  0  0  0.119227  0  0.960679  0  0  0.143257  0.114957  0  0.966588  0
H  H30  1  0.79213449  0.76279492  0.46248548  1  0  0.092073  0  0.97982  0  0  0.101252  0  1.0395  0  0  0.103879  0  1.03661  0  0  0.116773  0.09925  0  1.041642  0
H  H31  1  0.70787252  0.26279447  0.03751515  1  0  0.09207  0  0.979781  0  0  0.101238  0  1.039478  0  0  0.103859  0  1.036591  0  0  0.116778  0.099237  0  1.041621  0
H  H32  1  0.20787247  0.23720109  0.53751533  1  0  0.092093  0  0.979744  0  0  0.101305  0  1.039385  0  0  0.103936  0  1.036495  0  0  0.116784  0.099303  0  1.041527  0
H  H33  1  0.29211964  0.73720670  0.96247780  1  0  0.092052  0  0.979828  0  0  0.101283  0  1.039434  0  0  0.103914  0  1.036547  0  0  0.11678  0.09928  0  1.041577  0
C  C34  1  0.22861149  0.58599992  0.81026348  1  0  0.685068  0  3.883227  0  0  0.634763  0  4.190698  0  0  0.66731  0  4.18424  0  0  0.2077  0.612673  0  4.194302  0
C  C35  1  0.27138745  0.08600036  0.68973627  1  0  0.685162  0  3.883401  0  0  0.634822  0  4.190913  0  0  0.667364  0  4.184463  0  0  0.207698  0.612727  0  4.194519  0
C  C36  1  0.77138961  0.41399868  0.18973466  1  0  0.684982  0  3.883252  0  0  0.634711  0  4.190731  0  0  0.667253  0  4.184278  0  0  0.207685  0.612622  0  4.19433  0
C  C37  1  0.72860729  0.91399738  0.31026630  1  0  0.685192  0  3.883455  0  0  0.634875  0  4.190903  0  0  0.667403  0  4.184467  0  0  0.207807  0.612782  0  4.194506  0
C  C38  1  0.21783934  0.59180826  0.68917501  1  0  -0.151528  0  3.6331  0  0  -0.210841  0  3.885345  0  0  -0.210777  0  3.890851  0  0  -0.057993  -0.210935  0  3.881806  0
C  C39  1  0.28216380  0.09181842  0.81082489  1  0  -0.151788  0  3.633102  0  0  -0.211043  0  3.885285  0  0  -0.210996  0  3.890813  0  0  -0.05802  -0.211118  0  3.881715  0
C  C40  1  0.78216335  0.40819550  0.31082479  1  0  -0.151535  0  3.632936  0  0  -0.210998  0  3.885386  0  0  -0.210938  0  3.890894  0  0  -0.058082  -0.211089  0  3.881842  0
C  C41  1  0.71783353  0.90818018  0.18917622  1  0  -0.151646  0  3.633196  0  0  -0.210851  0  3.885294  0  0  -0.210797  0  3.890829  0  0  -0.057987  -0.210931  0  3.881729  0
C  C42  1  0.32563776  0.77419877  0.61271337  1  0  0.210349  0  3.643356  0  0  0.143766  0  3.92222  0  0  0.160904  0  3.931881  0  0  0.160656  0.13258  0  3.915227  0
C  C43  1  0.17436326  0.27420424  0.88728299  1  0  0.210487  0  3.643163  0  0  0.143851  0  3.922004  0  0  0.16099  0  3.931666  0  0  0.160794  0.132663  0  3.915016  0
C  C44  1  0.67437327  0.22580068  0.38728686  1  0  0.210555  0  3.643207  0  0  0.144003  0  3.922034  0  0  0.161142  0  3.931692  0  0  0.160787  0.132815  0  3.915045  0
C  C45  1  0.82563268  0.72579521  0.11271805  1  0  0.210572  0  3.643087  0  0  0.143968  0  3.921924  0  0  0.161107  0  3.931585  0  0  0.160857  0.132782  0  3.914933  0
C  C46  1  0.57911454  0.71953056  0.55962650  1  0  0.030732  0  3.852963  0  0  0.031399  0  4.106684  0  0  0.025128  0  4.131954  0  0  0.072751  0.034978  0  4.089967  0
C  C47  1  0.92088782  0.21953178  0.94037321  1  0  0.030651  0  3.852982  0  0  0.031257  0  4.106758  0  0  0.024985  0  4.132026  0  0  0.072687  0.034842  0  4.090033  0
C  C48  1  0.42089381  0.28046718  0.44037438  1  0  0.030598  0  3.853158  0  0  0.031284  0  4.106874  0  0  0.025012  0  4.132149  0  0  0.072733  0.034869  0  4.090149  0
C  C49  1  0.07910206  0.78047111  0.05962358  1  0  0.030818  0  3.852946  0  0  0.031388  0  4.10672  0  0  0.025117  0  4.131992  0  0  0.072745  0.034973  0  4.089994  0
C  C50  1  0.73445612  0.69892116  0.51105175  1  0  0.124126  0  3.714975  0  0  0.087016  0  3.969391  0  0  0.099686  0  3.981347  0  0  0.0576  0.078925  0  3.96124  0
C  C51  1  0.76554783  0.19892134  0.98895063  1  0  0.124188  0  3.714711  0  0  0.08708  0  3.969125  0  0  0.099757  0  3.98108  0  0  0.057585  0.078979  0  3.960971  0
C  C52  1  0.26555094  0.30107572  0.48894986  1  0  0.124205  0  3.714878  0  0  0.087075  0  3.969257  0  0  0.099737  0  3.981221  0  0  0.057622  0.078982  0  3.961105  0
C  C53  1  0.23444900  0.80108241  0.01104651  1  0  0.124145  0  3.714874  0  0  0.087031  0  3.969279  0  0  0.099686  0  3.981244  0  0  0.057613  0.078937  0  3.961128  0
C  C54  1  0.74865821  0.51291905  0.58096286  1  0  0.624746  0  3.816401  0  0  0.583896  0  4.099547  0  0  0.60869  0  4.107041  0  0  0.339274  0.567356  0  4.094015  0
C  C55  1  0.75133999  0.01291919  0.91903558  1  0  0.624864  0  3.816373  0  0  0.58397  0  4.099559  0  0  0.60877  0  4.107049  0  0  0.339263  0.567381  0  4.094083  0
C  C56  1  0.25134339  0.48708041  0.41903926  1  0  0.624574  0  3.81674  0  0  0.58378  0  4.099811  0  0  0.608573  0  4.107308  0  0  0.339293  0.567252  0  4.094259  0
C  C57  1  0.24865515  0.98707855  0.08095910  1  0  0.624708  0  3.816527  0  0  0.583922  0  4.099594  0  0  0.608712  0  4.107091  0  0  0.339332  0.567393  0  4.094043  0
C  C58  1  0.51676774  0.62569274  0.61540277  1  0  0.309175  0  3.831952  0  0  0.274275  0  4.102628  0  0  0.290571  0  4.118193  0  0  0.229537  0.263615  0  4.09202  0
C  C59  1  0.98323387  0.12569827  0.88459549  1  0  0.309101  0  3.832045  0  0  0.274243  0  4.102669  0  0  0.290542  0  4.118234  0  0  0.229536  0.263583  0  4.092057  0
C  C60  1  0.48324071  0.37430500  0.38459891  1  0  0.309305  0  3.831878  0  0  0.274393  0  4.102605  0  0  0.290688  0  4.118173  0  0  0.229569  0.263734  0  4.09199  0
C  C61  1  0.01676157  0.87430291  0.11540159  1  0  0.309067  0  3.832098  0  0  0.274248  0  4.102751  0  0  0.290545  0  4.118318  0  0  0.229507  0.263588  0  4.09214  0
N  N62  1  0.35444397  0.66287132  0.64844986  1  0  -0.125599  0  3.497901  0  0  -0.04382  0  3.732803  0  0  -0.061162  0  3.753661  0  0  -0.239265  -0.032273  0  3.718317  0
N  N63  1  0.14555256  0.16287715  0.85154899  1  0  -0.125572  0  3.497846  0  0  -0.043745  0  3.732654  0  0  -0.061091  0  3.753522  0  0  -0.239291  -0.032205  0  3.718166  0
N  N64  1  0.64556041  0.33712986  0.35155240  1  0  -0.125815  0  3.497945  0  0  -0.044059  0  3.732969  0  0  -0.061401  0  3.753826  0  0  -0.239286  -0.032515  0  3.718486  0
N  N65  1  0.85444328  0.83712489  0.14845126  1  0  -0.125583  0  3.497886  0  0  -0.043905  0  3.73285  0  0  -0.061253  0  3.753721  0  0  -0.23934  -0.032363  0  3.718361  0
N  N66  1  0.45688296  0.81152618  0.56008907  1  0  -0.407128  0  3.19421  0  0  -0.346734  0  3.481161  0  0  -0.365291  0  3.496132  0  0  -0.341476  -0.333886  0  3.470723  0
N  N67  1  0.04311755  0.31152977  0.93991242  1  0  -0.407089  0  3.194104  0  0  -0.346674  0  3.48106  0  0  -0.365232  0  3.496035  0  0  -0.341467  -0.333826  0  3.470619  0
N  N68  1  0.54312549  0.18847156  0.43991261  1  0  -0.40717  0  3.194419  0  0  -0.346753  0  3.48133  0  0  -0.365309  0  3.4963  0  0  -0.341551  -0.333907  0  3.470893  0
N  N69  1  0.95687829  0.68847227  0.06008783  1  0  -0.407325  0  3.194336  0  0  -0.346854  0  3.481257  0  0  -0.365411  0  3.496225  0  0  -0.341554  -0.334007  0  3.470819  0
N  N70  1  0.81867469  0.59649836  0.52175813  1  0  -0.477781  0  3.063427  0  0  -0.42285  0  3.323052  0  0  -0.442883  0  3.333903  0  0  -0.328354  -0.409572  0  3.31557  0
N  N71  1  0.68132838  0.09649500  0.97824207  1  0  -0.477888  0  3.063313  0  0  -0.42289  0  3.322896  0  0  -0.442936  0  3.333755  0  0  -0.32834  -0.409588  0  3.315425  0
N  N72  1  0.18133237  0.40349937  0.47824347  1  0  -0.47779  0  3.063542  0  0  -0.42288  0  3.323173  0  0  -0.442909  0  3.334026  0  0  -0.32838  -0.409607  0  3.315689  0
N  N73  1  0.31866239  0.90350360  0.02175081  1  0  -0.477761  0  3.063671  0  0  -0.422866  0  3.323311  0  0  -0.442887  0  3.334165  0  0  -0.32836  -0.409594  0  3.315825  0
N  N74  1  0.59497216  0.52246520  0.62837723  1  0  -0.498958  0  2.940904  0  0  -0.471905  0  3.212115  0  0  -0.489525  0  3.219713  0  0  -0.339041  -0.460267  0  3.206911  0
N  N75  1  0.90502787  0.02246808  0.87162437  1  0  -0.498935  0  2.940732  0  0  -0.471901  0  3.211954  0  0  -0.489523  0  3.219552  0  0  -0.338998  -0.460248  0  3.206766  0
N  N76  1  0.40503371  0.47753254  0.37162590  1  0  -0.498902  0  2.940801  0  0  -0.47187  0  3.212013  0  0  -0.489488  0  3.219615  0  0  -0.339027  -0.460234  0  3.206803  0
N  N77  1  0.09496787  0.97753223  0.12837509  1  0  -0.498904  0  2.94078  0  0  -0.471901  0  3.211969  0  0  -0.489522  0  3.219572  0  0  -0.339  -0.460266  0  3.20676  0
N  N78  1  0.84303166  0.41244877  0.58964958  1  0  -0.690497  0  3.08574  0  0  -0.657619  0  3.325881  0  0  -0.679624  0  3.322429  0  0  -0.569439  -0.642136  0  3.327709  0
N  N79  1  0.65696913  0.91245034  0.91035046  1  0  -0.690503  0  3.085825  0  0  -0.657664  0  3.325935  0  0  -0.679667  0  3.322473  0  0  -0.569451  -0.642163  0  3.327785  0
N  N80  1  0.15697679  0.58754896  0.41035210  1  0  -0.690432  0  3.085719  0  0  -0.657553  0  3.325855  0  0  -0.679562  0  3.322426  0  0  -0.56948  -0.642076  0  3.327679  0
N  N81  1  0.34302879  0.08754998  0.08964436  1  0  -0.69042  0  3.085763  0  0  -0.657585  0  3.325905  0  0  -0.679583  0  3.322441  0  0  -0.569496  -0.642106  0  3.32773  0
O  O82  1  0.31682475  0.53767463  0.06809806  1  0  -0.846434  0  1.859513  0  0  -0.787985  0  2.045168  0  0  -0.809474  0  2.010279  0  0  -0.599609  -0.772704  0  2.069419  0
O  O83  1  0.18317425  0.03766754  0.43190332  1  0  -0.846568  0  1.859388  0  0  -0.788134  0  2.044988  0  0  -0.809623  0  2.010094  0  0  -0.599648  -0.772853  0  2.069242  0
O  O84  1  0.68317397  0.46232826  0.93190313  1  0  -0.846579  0  1.859405  0  0  -0.788147  0  2.045017  0  0  -0.809637  0  2.010122  0  0  -0.59967  -0.772866  0  2.069271  0
O  O85  1  0.81682606  0.96232933  0.56809953  1  0  -0.846646  0  1.859332  0  0  -0.788219  0  2.044951  0  0  -0.809708  0  2.010056  0  0  -0.599692  -0.772938  0  2.069207  0
O  O86  1  0.07365929  0.56399766  0.83946733  1  0  -0.643188  0  1.983396  0  0  -0.582917  0  2.230664  0  0  -0.610995  0  2.220165  0  0  -0.336229  -0.563254  0  2.237168  0
O  O87  1  0.42634660  0.06399289  0.66053379  1  0  -0.64326  0  1.983282  0  0  -0.582972  0  2.230539  0  0  -0.611051  0  2.220047  0  0  -0.336254  -0.563308  0  2.237045  0
O  O88  1  0.92634191  0.43599921  0.16053161  1  0  -0.643176  0  1.983386  0  0  -0.582907  0  2.230645  0  0  -0.610984  0  2.220149  0  0  -0.336254  -0.563246  0  2.237149  0
O  O89  1  0.57365162  0.93600141  0.33946342  1  0  -0.643254  0  1.983383  0  0  -0.582992  0  2.230641  0  0  -0.611069  0  2.220161  0  0  -0.336304  -0.563329  0  2.237145  0
O  O90  1  0.38458517  0.60031719  0.87057022  1  0  -0.659987  0  1.991089  0  0  -0.600042  0  2.207074  0  0  -0.624975  0  2.195189  0  0  -0.327489  -0.582629  0  2.214764  0
O  O91  1  0.11542070  0.10031534  0.62942895  1  0  -0.659962  0  1.991308  0  0  -0.600027  0  2.207324  0  0  -0.624954  0  2.195441  0  0  -0.327463  -0.582614  0  2.215017  0
O  O92  1  0.61541474  0.39968571  0.12942945  1  0  -0.659929  0  1.991128  0  0  -0.600002  0  2.20708  0  0  -0.624926  0  2.195196  0  0  -0.327456  -0.58259  0  2.214768  0
O  O93  1  0.88457514  0.89968412  0.37057130  1  0  -0.660026  0  1.99128  0  0  -0.600093  0  2.207276  0  0  -0.625013  0  2.195391  0  0  -0.327538  -0.58268  0  2.214967  0
