# generated using pymatgen
data_CdH9C11SN4Cl
_symmetry_space_group_name_H-M   'P 1'
_cell_length_a   8.97692937
_cell_length_b   9.22040272
_cell_length_c   9.08036724
_cell_angle_alpha   102.12928022
_cell_angle_beta   107.13795507
_cell_angle_gamma   111.07281190
_symmetry_Int_Tables_number   1
_chemical_formula_structural   CdH9C11SN4Cl
_chemical_formula_sum   'Cd2 H18 C22 S2 N8 Cl2'
_cell_volume   626.67224756
_cell_formula_units_Z   2
loop_
 _symmetry_equiv_pos_site_id
 _symmetry_equiv_pos_as_xyz
  1  'x, y, z'
loop_
 _atom_site_type_symbol
 _atom_site_label
 _atom_site_symmetry_multiplicity
 _atom_site_fract_x
 _atom_site_fract_y
 _atom_site_fract_z
 _atom_site_occupancy
 _atom_site_hle17_bader_spin_density
 _atom_site_hle17_ddec_charge
 _atom_site_hle17_ddec_spin_density
 _atom_site_hle17_ddec_sum_bond_order
 _atom_site_hle17_magmom
 _atom_site_hse06_10hf_bader_spin_density
 _atom_site_hse06_10hf_ddec_charge
 _atom_site_hse06_10hf_ddec_spin_density
 _atom_site_hse06_10hf_ddec_sum_bond_order
 _atom_site_hse06_10hf_magmom
 _atom_site_hse06_bader_spin_density
 _atom_site_hse06_ddec_charge
 _atom_site_hse06_ddec_spin_density
 _atom_site_hse06_ddec_sum_bond_order
 _atom_site_hse06_magmom
 _atom_site_pbe_bader_spin_density
 _atom_site_pbe_cm5_charge
 _atom_site_pbe_ddec_charge
 _atom_site_pbe_ddec_spin_density
 _atom_site_pbe_ddec_sum_bond_order
 _atom_site_pbe_magmom
Cd  Cd0  1  0.59872015  0.71700096  0.98163565  1  0  0.961787  0  1.973851  0  0  0.789636  0  2.438079  0  0  0.835761  0  2.398575  0  0  0.671087  0.75745  0  2.46468  0
Cd  Cd1  1  0.40128081  0.28299211  0.01836989  1  0  0.961871  0  1.973841  0  0  0.78974  0  2.438072  0  0  0.835863  0  2.398568  0  0  0.671118  0.757554  0  2.464673  0
H  H2  1  0.14412717  0.76403001  0.11125974  1  0  0.268745  0  0.945109  0  0  0.250892  0  1.016793  0  0  0.256768  0  1.013698  0  0  0.293956  0.246775  0  1.018962  0
H  H3  1  0.85587318  0.23597176  0.88873981  1  0  0.268758  0  0.94509  0  0  0.250909  0  1.016763  0  0  0.256785  0  1.013671  0  0  0.29395  0.246792  0  1.01893  0
H  H4  1  0.51892130  0.50289121  0.63263552  1  0  0.065848  0  0.977005  0  0  0.073925  0  1.046786  0  0  0.075658  0  1.04537  0  0  0.10444  0.072665  0  1.047774  0
H  H5  1  0.48108139  0.49711309  0.36736196  1  0  0.06584  0  0.977024  0  0  0.073917  0  1.046807  0  0  0.075652  0  1.045388  0  0  0.104436  0.072656  0  1.047796  0
H  H6  1  0.62739872  0.34348620  0.46842773  1  0  0.111696  0  0.96134  0  0  0.120475  0  1.023456  0  0  0.123401  0  1.023156  0  0  0.10167  0.11836  0  1.023852  0
H  H7  1  0.37260399  0.65651562  0.53157031  1  0  0.111746  0  0.961287  0  0  0.120519  0  1.023402  0  0  0.123446  0  1.023101  0  0  0.101695  0.118404  0  1.023799  0
H  H8  1  0.93707125  0.38533800  0.60942002  1  0  0.092126  0  0.949328  0  0  0.10618  0  1.004711  0  0  0.108631  0  1.002679  0  0  0.103408  0.104353  0  1.006244  0
H  H9  1  0.06292736  0.61466002  0.39058150  1  0  0.092115  0  0.949397  0  0  0.106179  0  1.004765  0  0  0.10863  0  1.002734  0  0  0.103418  0.104354  0  1.006294  0
H  H10  1  0.12105782  0.58894890  0.89189270  1  0  0.113071  0  0.988019  0  0  0.116251  0  1.061339  0  0  0.120057  0  1.060058  0  0  0.092864  0.113487  0  1.062516  0
H  H11  1  0.87894139  0.41104790  0.10810763  1  0  0.113049  0  0.988015  0  0  0.116258  0  1.061315  0  0  0.120064  0  1.060034  0  0  0.092862  0.113493  0  1.062489  0
H  H12  1  0.27505124  0.95135314  0.36020070  1  0  0.109178  0  0.967946  0  0  0.118003  0  1.030152  0  0  0.121267  0  1.029693  0  0  0.100467  0.115692  0  1.030621  0
H  H13  1  0.72495026  0.04865112  0.63979973  1  0  0.109163  0  0.967982  0  0  0.117993  0  1.030176  0  0  0.121257  0  1.029719  0  0  0.100464  0.115686  0  1.030638  0
H  H14  1  0.28837719  0.19367883  0.55779893  1  0  0.086732  0  0.98502  0  0  0.093912  0  1.054654  0  0  0.096379  0  1.05265  0  0  0.089714  0.092082  0  1.056089  0
H  H15  1  0.71162376  0.80632421  0.44219777  1  0  0.086709  0  0.984942  0  0  0.093858  0  1.054622  0  0  0.096321  0  1.052627  0  0  0.089702  0.092028  0  1.056059  0
H  H16  1  0.04611374  0.27398730  0.47616214  1  0  0.096986  0  0.979225  0  0  0.105742  0  1.043928  0  0  0.108498  0  1.043771  0  0  0.094945  0.103786  0  1.044182  0
H  H17  1  0.95388954  0.72601576  0.52383635  1  0  0.097028  0  0.979183  0  0  0.105776  0  1.043893  0  0  0.108533  0  1.043734  0  0  0.094951  0.103818  0  1.044151  0
H  H18  1  0.78612352  0.09115415  0.20916909  1  0  0.070216  0  0.962439  0  0  0.080826  0  1.024489  0  0  0.08192  0  1.024139  0  0  0.106963  0.080021  0  1.02473  0
H  H19  1  0.21387624  0.90884885  0.79083055  1  0  0.070161  0  0.962456  0  0  0.080785  0  1.024502  0  0  0.081867  0  1.024182  0  0  0.10695  0.079979  0  1.024746  0
C  C20  1  0.65294418  0.52059903  0.68332343  1  0  0.133424  0  3.740677  0  0  0.104442  0  3.99181  0  0  0.112293  0  4.010738  0  0  0.03261  0.09942  0  3.978914  0
C  C21  1  0.34705736  0.47940279  0.31667317  1  0  0.133524  0  3.740642  0  0  0.104541  0  3.99177  0  0  0.112391  0  4.010698  0  0  0.032643  0.099523  0  3.978877  0
C  C22  1  0.71228197  0.43083348  0.59380854  1  0  -0.152197  0  3.758119  0  0  -0.166491  0  4.013987  0  0  -0.175012  0  4.035363  0  0  -0.101933  -0.161045  0  3.99961  0
C  C23  1  0.28771663  0.56916703  0.40619132  1  0  -0.15229  0  3.75802  0  0  -0.166578  0  4.013894  0  0  -0.1751  0  4.03527  0  0  -0.101959  -0.161132  0  3.999521  0
C  C24  1  0.88351414  0.45455500  0.67164582  1  0  0.012856  0  3.749264  0  0  -0.006431  0  3.998395  0  0  -0.000109  0  4.014681  0  0  -0.073425  -0.010176  0  3.987015  0
C  C25  1  0.11648447  0.54544303  0.32835461  1  0  0.012808  0  3.749307  0  0  -0.006483  0  3.998456  0  0  -0.000162  0  4.014745  0  0  -0.073455  -0.010228  0  3.987077  0
C  C26  1  0.98682657  0.56754116  0.83036474  1  0  -0.219588  0  3.702091  0  0  -0.23439  0  3.955812  0  0  -0.244609  0  3.97535  0  0  -0.096349  -0.22786  0  3.942769  0
C  C27  1  0.01317320  0.43245936  0.16963546  1  0  -0.219514  0  3.701905  0  0  -0.234333  0  3.955653  0  0  -0.244553  0  3.975191  0  0  -0.096362  -0.227802  0  3.942607  0
C  C28  1  0.91687164  0.65607433  0.91200797  1  0  0.42458  0  3.776558  0  0  0.395453  0  4.036026  0  0  0.414105  0  4.050328  0  0  0.227697  0.383063  0  4.026018  0
C  C29  1  0.08312873  0.34392497  0.08799104  1  0  0.424629  0  3.77645  0  0  0.39544  0  4.036023  0  0  0.414091  0  4.050328  0  0  0.227712  0.383053  0  4.026016  0
C  C30  1  0.02240130  0.89444231  0.17886455  1  0  0.43494  0  3.761137  0  0  0.405343  0  4.021015  0  0  0.424679  0  4.034631  0  0  0.228272  0.392469  0  4.011494  0
C  C31  1  0.97759789  0.10555946  0.82113355  1  0  0.43494  0  3.761173  0  0  0.405363  0  4.02102  0  0  0.424696  0  4.034636  0  0  0.228275  0.392489  0  4.011497  0
C  C32  1  0.16960631  0.98709060  0.33058755  1  0  -0.215847  0  3.69671  0  0  -0.229108  0  3.944304  0  0  -0.240713  0  3.965113  0  0  -0.094523  -0.221674  0  3.930375  0
C  C33  1  0.83039578  0.01291492  0.66941113  1  0  -0.215902  0  3.696735  0  0  -0.22917  0  3.944315  0  0  -0.240775  0  3.965124  0  0  -0.09455  -0.221739  0  3.93038  0
C  C34  1  0.17753955  0.12225778  0.43895269  1  0  0.019006  0  3.749718  0  0  -0.000165  0  3.998003  0  0  0.006162  0  4.016228  0  0  -0.073615  -0.00388  0  3.985394  0
C  C35  1  0.82246196  0.87774650  0.56104555  1  0  0.019117  0  3.749609  0  0  -3e-05  0  3.997899  0  0  0.0063  0  4.016118  0  0  -0.073579  -0.003747  0  3.985291  0
C  C36  1  0.04072620  0.16558963  0.39494008  1  0  -0.142447  0  3.769701  0  0  -0.15741  0  4.024424  0  0  -0.167037  0  4.048566  0  0  -0.101541  -0.151283  0  4.008248  0
C  C37  1  0.95927414  0.83441463  0.60505781  1  0  -0.142547  0  3.769777  0  0  -0.15751  0  4.024506  0  0  -0.167135  0  4.048641  0  0  -0.101549  -0.151383  0  4.008331  0
C  C38  1  0.89812272  0.06534830  0.24712892  1  0  0.131287  0  3.74486  0  0  0.101803  0  3.997743  0  0  0.110045  0  4.017084  0  0  0.032135  0.096505  0  3.984509  0
C  C39  1  0.10187646  0.93465346  0.75287028  1  0  0.131388  0  3.744808  0  0  0.101895  0  3.997699  0  0  0.110134  0  4.017027  0  0  0.032159  0.096599  0  3.984463  0
C  C40  1  0.52926369  0.00016241  0.82590012  1  0  0.298237  0  4.001919  0  0  0.277566  0  4.304272  0  0  0.299419  0  4.317452  0  0  0.147899  0.262729  0  4.295052  0
C  C41  1  0.47072683  0.99981569  0.17410128  1  0  0.298126  0  4.001359  0  0  0.277447  0  4.303745  0  0  0.299305  0  4.316929  0  0  0.147757  0.262605  0  4.294521  0
S  S42  1  0.54688123  0.17718901  0.80694072  1  0  -0.344891  0  2.207079  0  0  -0.30852  0  2.53519  0  0  -0.325752  0  2.529384  0  0  -0.122464  -0.296502  0  2.538968  0
S  S43  1  0.45311271  0.82280148  0.19306660  1  0  -0.344595  0  2.207067  0  0  -0.308201  0  2.535158  0  0  -0.325432  0  2.529353  0  0  -0.1223  -0.296182  0  2.538935  0
N  N44  1  0.75071170  0.63002231  0.83938322  1  0  -0.411847  0  3.197375  0  0  -0.339783  0  3.458889  0  0  -0.360878  0  3.474955  0  0  -0.341962  -0.325573  0  3.447756  0
N  N45  1  0.24928982  0.36997948  0.16061668  1  0  -0.411917  0  3.197434  0  0  -0.339843  0  3.458996  0  0  -0.360937  0  3.475061  0  0  -0.341964  -0.325644  0  3.447877  0
N  N46  1  0.88558563  0.92972834  0.14120229  1  0  -0.419556  0  3.184972  0  0  -0.350167  0  3.451517  0  0  -0.371618  0  3.46664  0  0  -0.348181  -0.335617  0  3.440853  0
N  N47  1  0.11441414  0.07027220  0.85879682  1  0  -0.419562  0  3.184914  0  0  -0.350171  0  3.451422  0  0  -0.371632  0  3.466582  0  0  -0.348181  -0.335621  0  3.440756  0
N  N48  1  0.02650176  0.76724336  0.07039865  1  0  -0.442786  0  3.355751  0  0  -0.386238  0  3.592894  0  0  -0.408032  0  3.602529  0  0  -0.394962  -0.371184  0  3.585726  0
N  N49  1  0.97349859  0.23275841  0.92960090  1  0  -0.442836  0  3.355825  0  0  -0.386266  0  3.592972  0  0  -0.408049  0  3.602581  0  0  -0.394968  -0.371211  0  3.5858  0
N  N50  1  0.51663663  0.87019758  0.83430389  1  0  -0.520213  0  2.858555  0  0  -0.465368  0  3.134382  0  0  -0.485581  0  3.139975  0  0  -0.388816  -0.451608  0  3.130429  0
N  N51  1  0.48335903  0.12980164  0.16569814  1  0  -0.520408  0  2.857979  0  0  -0.465566  0  3.133818  0  0  -0.485784  0  3.139414  0  0  -0.388855  -0.451801  0  3.12986  0
Cl  Cl52  1  0.31391359  0.44402034  0.81250942  1  0  -0.561375  0  0.997759  0  0  -0.496429  0  1.282507  0  0  -0.515744  0  1.264204  0  0  -0.290363  -0.482502  0  1.294777  0
Cl  Cl53  1  0.68608798  0.55597402  0.18748996  1  0  -0.561368  0  0.997776  0  0  -0.49642  0  1.282515  0  0  -0.515735  0  1.26421  0  0  -0.290363  -0.482494  0  1.294784  0
