# generated using pymatgen
data_FeH40C34S2(N7O)2
_symmetry_space_group_name_H-M   'P 1'
_cell_length_a   9.18878504
_cell_length_b   9.24197562
_cell_length_c   10.40199990
_cell_angle_alpha   91.53871112
_cell_angle_beta   95.16917134
_cell_angle_gamma   90.70260420
_symmetry_Int_Tables_number   1
_chemical_formula_structural   FeH40C34S2(N7O)2
_chemical_formula_sum   'Fe1 H40 C34 S2 N14 O2'
_cell_volume   879.35862572
_cell_formula_units_Z   1
loop_
 _symmetry_equiv_pos_site_id
 _symmetry_equiv_pos_as_xyz
  1  'x, y, z'
loop_
 _atom_site_type_symbol
 _atom_site_label
 _atom_site_symmetry_multiplicity
 _atom_site_fract_x
 _atom_site_fract_y
 _atom_site_fract_z
 _atom_site_occupancy
 _atom_site_hle17_bader_spin_density
 _atom_site_hle17_ddec_charge
 _atom_site_hle17_ddec_spin_density
 _atom_site_hle17_ddec_sum_bond_order
 _atom_site_hle17_magmom
 _atom_site_hse06_10hf_bader_spin_density
 _atom_site_hse06_10hf_ddec_charge
 _atom_site_hse06_10hf_ddec_spin_density
 _atom_site_hse06_10hf_ddec_sum_bond_order
 _atom_site_hse06_10hf_magmom
 _atom_site_hse06_bader_spin_density
 _atom_site_hse06_ddec_charge
 _atom_site_hse06_ddec_spin_density
 _atom_site_hse06_ddec_sum_bond_order
 _atom_site_hse06_magmom
 _atom_site_pbe_bader_spin_density
 _atom_site_pbe_cm5_charge
 _atom_site_pbe_ddec_charge
 _atom_site_pbe_ddec_spin_density
 _atom_site_pbe_ddec_sum_bond_order
 _atom_site_pbe_magmom
Fe  Fe0  1  0.00433523  0.50817285  0.98735539  1  0  0.563765  0  3.058893  0  0  0.523467  0  3.55364  0  0  0.578694  0  3.488712  0  0  0.72594  0.492184  0  3.592504  0
H  H1  1  0.13403566  0.80103276  0.14298629  1  0  0.108194  0  0.955878  0  0  0.116384  0  1.022255  0  0  0.117854  0  1.020291  0  0  0.141249  0.11479  0  1.024897  0
H  H2  1  0.86858816  0.20730983  0.84226748  1  0  0.106683  0  0.956682  0  0  0.114517  0  1.02391  0  0  0.115977  0  1.02203  0  0  0.140774  0.11298  0  1.026474  0
H  H3  1  0.20551673  0.99875582  0.27206880  1  0  0.108826  0  0.977148  0  0  0.126092  0  1.044231  0  0  0.127529  0  1.043863  0  0  0.09018  0.124964  0  1.044711  0
H  H4  1  0.79278140  0.00001900  0.72999301  1  0  0.108906  0  0.97623  0  0  0.126324  0  1.043059  0  0  0.12759  0  1.042942  0  0  0.089887  0.125329  0  1.043284  0
H  H5  1  0.16180734  0.05967471  0.42381662  1  0  0.117092  0  0.945816  0  0  0.138296  0  1.006195  0  0  0.140042  0  1.005629  0  0  0.094768  0.136929  0  1.006752  0
H  H6  1  0.83427070  0.93545625  0.57857233  1  0  0.115023  0  0.950039  0  0  0.136261  0  1.011079  0  0  0.137914  0  1.010576  0  0  0.093987  0.135052  0  1.011469  0
H  H7  1  0.08519010  0.89381573  0.35667417  1  0  0.102177  0  0.939572  0  0  0.125398  0  0.998962  0  0  0.126219  0  0.999024  0  0  0.089627  0.124702  0  0.999285  0
H  H8  1  0.91227743  0.10218280  0.64204047  1  0  0.100917  0  0.939992  0  0  0.124071  0  1.000265  0  0  0.124908  0  1.000242  0  0  0.089461  0.123432  0  1.000597  0
H  H9  1  0.35879858  0.44356551  0.00369728  1  0  0.102378  0  0.959339  0  0  0.105491  0  1.029024  0  0  0.107353  0  1.026806  0  0  0.136474  0.103517  0  1.031698  0
H  H10  1  0.64734722  0.56245417  0.98960910  1  0  0.102313  0  0.955599  0  0  0.105551  0  1.025213  0  0  0.107336  0  1.023152  0  0  0.136732  0.1038  0  1.027497  0
H  H11  1  0.38101956  0.96825147  0.19375549  1  0  0.088348  0  0.962762  0  0  0.099851  0  1.029707  0  0  0.100731  0  1.029444  0  0  0.106943  0.099299  0  1.029825  0
H  H12  1  0.61852744  0.03358633  0.80957935  1  0  0.086605  0  0.968642  0  0  0.098607  0  1.035501  0  0  0.099523  0  1.035264  0  0  0.10478  0.09817  0  1.035302  0
H  H13  1  0.54678303  0.87461684  0.19342005  1  0  0.093194  0  0.967284  0  0  0.102213  0  1.039557  0  0  0.103601  0  1.038615  0  0  0.108798  0.101085  0  1.040315  0
H  H14  1  0.45410165  0.12938542  0.81037998  1  0  0.09251  0  0.968029  0  0  0.102136  0  1.040263  0  0  0.103562  0  1.039203  0  0  0.108188  0.10122  0  1.040784  0
H  H15  1  0.08866969  0.81478350  0.88013286  1  0  0.101394  0  0.975289  0  0  0.103944  0  1.052036  0  0  0.105911  0  1.048894  0  0  0.13171  0.101329  0  1.056759  0
H  H16  1  0.91498104  0.19083284  0.12356617  1  0  0.096752  0  0.970607  0  0  0.100376  0  1.047116  0  0  0.101457  0  1.045047  0  0  0.129343  0.098762  0  1.049796  0
H  H17  1  0.01699496  0.41818311  0.67144697  1  0  0.098581  0  0.922232  0  0  0.106708  0  0.984488  0  0  0.108403  0  0.981984  0  0  0.139332  0.105102  0  0.986862  0
H  H18  1  0.98696472  0.57483457  0.34896770  1  0  0.089986  0  0.93046  0  0  0.099609  0  0.991537  0  0  0.100999  0  0.989694  0  0  0.134539  0.098394  0  0.993223  0
H  H19  1  0.38780479  0.64634361  0.79013115  1  0  0.109397  0  0.944627  0  0  0.129718  0  1.009483  0  0  0.130762  0  1.009922  0  0  0.091203  0.128243  0  1.010396  0
H  H20  1  0.61154505  0.35207839  0.21272252  1  0  0.11037  0  0.942142  0  0  0.131383  0  1.005594  0  0  0.132529  0  1.005894  0  0  0.091778  0.129725  0  1.0067  0
H  H21  1  0.37994353  0.83419657  0.82734738  1  0  0.102375  0  0.971246  0  0  0.12428  0  1.034708  0  0  0.124844  0  1.035173  0  0  0.083414  0.123725  0  1.034817  0
H  H22  1  0.61909979  0.16484865  0.17366077  1  0  0.102629  0  0.972343  0  0  0.124687  0  1.035884  0  0  0.125249  0  1.036397  0  0  0.082937  0.124115  0  1.03587  0
H  H23  1  0.55108300  0.75011882  0.81644876  1  0  0.116755  0  0.963391  0  0  0.132873  0  1.031434  0  0  0.134796  0  1.030486  0  0  0.092121  0.131521  0  1.031937  0
H  H24  1  0.44786613  0.24909371  0.18408956  1  0  0.115891  0  0.962273  0  0  0.132732  0  1.02958  0  0  0.134641  0  1.028586  0  0  0.091708  0.13155  0  1.029976  0
H  H25  1  0.20051474  0.95110366  0.71890863  1  0  0.073552  0  0.980327  0  0  0.084419  0  1.054374  0  0  0.085033  0  1.054302  0  0  0.104089  0.084048  0  1.054028  0
H  H26  1  0.79453656  0.04674189  0.27904594  1  0  0.072366  0  0.985226  0  0  0.082854  0  1.059578  0  0  0.083471  0  1.058616  0  0  0.102958  0.082248  0  1.059627  0
H  H27  1  0.09203482  0.92824103  0.57006260  1  0  0.07649  0  0.959815  0  0  0.091654  0  1.025561  0  0  0.092198  0  1.025204  0  0  0.11035  0.090819  0  1.026401  0
H  H28  1  0.90224127  0.06150225  0.42880715  1  0  0.074551  0  0.960762  0  0  0.089675  0  1.027014  0  0  0.089859  0  1.026233  0  0  0.109418  0.089175  0  1.027618  0
H  H29  1  0.67721648  0.49141329  0.52394114  1  0  0.076202  0  0.963677  0  0  0.087339  0  1.041647  0  0  0.08821  0  1.041961  0  0  0.08914  0.086804  0  1.041247  0
H  H30  1  0.32088380  0.50977267  0.47288162  1  0  0.075444  0  0.962596  0  0  0.086517  0  1.041289  0  0  0.087394  0  1.04149  0  0  0.088594  0.086049  0  1.040856  0
H  H31  1  0.56434717  0.49285851  0.65630725  1  0  0.072463  0  0.966044  0  0  0.086922  0  1.037872  0  0  0.087082  0  1.039024  0  0  0.089828  0.087004  0  1.036628  0
H  H32  1  0.43702024  0.50352967  0.34286839  1  0  0.073377  0  0.967267  0  0  0.087258  0  1.039733  0  0  0.087493  0  1.04073  0  0  0.089949  0.087256  0  1.03864  0
H  H33  1  0.75934927  0.49528686  0.68635736  1  0  0.083533  0  0.974515  0  0  0.099037  0  1.042863  0  0  0.09908  0  1.043744  0  0  0.096919  0.098698  0  1.043237  0
H  H34  1  0.24253345  0.50265830  0.30887850  1  0  0.087159  0  0.967822  0  0  0.102624  0  1.035028  0  0  0.102683  0  1.036141  0  0  0.097848  0.102221  0  1.035282  0
H  H35  1  0.77827216  0.70493756  0.43590947  1  0  0.110625  0  0.970141  0  0  0.126456  0  1.037148  0  0  0.129297  0  1.035257  0  0  0.090935  0.124294  0  1.038983  0
H  H36  1  0.22053324  0.29541767  0.56582544  1  0  0.112544  0  0.968164  0  0  0.127817  0  1.035421  0  0  0.130673  0  1.033598  0  0  0.091358  0.125633  0  1.037208  0
H  H37  1  0.72857537  0.82385390  0.30775642  1  0  0.099141  0  0.981418  0  0  0.120652  0  1.045169  0  0  0.120837  0  1.046589  0  0  0.084733  0.120835  0  1.043632  0
H  H38  1  0.26943487  0.17577508  0.69372658  1  0  0.098531  0  0.983041  0  0  0.120062  0  1.047005  0  0  0.120188  0  1.04839  0  0  0.084017  0.120424  0  1.045292  0
H  H39  1  0.66425030  0.64440788  0.29693588  1  0  0.113747  0  0.949456  0  0  0.131567  0  1.017788  0  0  0.133287  0  1.01699  0  0  0.091886  0.130203  0  1.018555  0
H  H40  1  0.33541749  0.35470453  0.70467060  1  0  0.11217  0  0.950073  0  0  0.130118  0  1.018729  0  0  0.131659  0  1.018122  0  0  0.090924  0.128874  0  1.019368  0
C  C41  1  0.15581533  0.21576373  0.95648197  1  0  0.270289  0  4.00738  0  0  0.261896  0  4.310007  0  0  0.286085  0  4.318788  0  0  0.133599  0.245363  0  4.30562  0
C  C42  1  0.84508395  0.79307260  0.03278254  1  0  0.26599  0  4.013083  0  0  0.257661  0  4.316447  0  0  0.281768  0  4.325356  0  0  0.133336  0.241316  0  4.311119  0
C  C43  1  0.21841150  0.72609004  0.12104336  1  0  0.147352  0  3.610892  0  0  0.0729  0  3.876029  0  0  0.08821  0  3.887739  0  0  0.157743  0.062676  0  3.868863  0
C  C44  1  0.78476980  0.28094762  0.86807182  1  0  0.14729  0  3.615921  0  0  0.073362  0  3.882213  0  0  0.088632  0  3.893974  0  0  0.158236  0.063231  0  3.875095  0
C  C45  1  0.43277428  0.78401962  0.63233111  1  0  0.026262  0  3.727964  0  0  0.035664  0  3.978172  0  0  0.035434  0  4.001039  0  0  -0.014781  0.036378  0  3.962317  0
C  C46  1  0.56465050  0.21265313  0.36859546  1  0  0.024702  0  3.726147  0  0  0.034155  0  3.976783  0  0  0.033827  0  3.999714  0  0  -0.015269  0.034732  0  3.961232  0
C  C47  1  0.18535633  0.96150382  0.36792373  1  0  -0.334289  0  3.727557  0  0  -0.416948  0  3.973115  0  0  -0.418655  0  3.982751  0  0  -0.242995  -0.415363  0  3.96659  0
C  C48  1  0.81182119  0.03489414  0.63313148  1  0  -0.334051  0  3.727279  0  0  -0.416809  0  3.972591  0  0  -0.418482  0  3.982482  0  0  -0.243772  -0.41526  0  3.965759  0
C  C49  1  0.33513936  0.54551281  0.05088089  1  0  0.193771  0  3.653561  0  0  0.143312  0  3.942517  0  0  0.155994  0  3.954726  0  0  0.151167  0.134664  0  3.934424  0
C  C50  1  0.66981803  0.46014723  0.94253493  1  0  0.194571  0  3.655145  0  0  0.144275  0  3.944366  0  0  0.156825  0  3.956739  0  0  0.150833  0.135682  0  3.936105  0
C  C51  1  0.43629453  0.86902548  0.22488341  1  0  -0.054327  0  3.634188  0  0  -0.126351  0  3.871475  0  0  -0.122742  0  3.882129  0  0  -0.050299  -0.128669  0  3.864298  0
C  C52  1  0.56381214  0.13260174  0.77707088  1  0  -0.053263  0  3.631216  0  0  -0.126693  0  3.869804  0  0  -0.123036  0  3.880255  0  0  -0.050733  -0.128987  0  3.862317  0
C  C53  1  0.55375292  0.75046510  0.56427735  1  0  0.139863  0  3.759815  0  0  0.128142  0  4.014265  0  0  0.132568  0  4.033567  0  0  0.072535  0.124157  0  4.001068  0
C  C54  1  0.44403698  0.24734727  0.43678415  1  0  0.138684  0  3.760919  0  0  0.126992  0  4.016274  0  0  0.13154  0  4.035647  0  0  0.072518  0.122997  0  4.003108  0
C  C55  1  0.31304239  0.88216695  0.43372954  1  0  0.061777  0  3.708884  0  0  0.071448  0  3.961176  0  0  0.071437  0  3.986681  0  0  -0.01219  0.070593  0  3.945111  0
C  C56  1  0.68393159  0.11378783  0.56710035  1  0  0.0584  0  3.711852  0  0  0.068053  0  3.964641  0  0  0.067864  0  3.990363  0  0  -0.013814  0.067306  0  3.948574  0
C  C57  1  0.07966883  0.72943580  0.80597246  1  0  0.168537  0  3.592785  0  0  0.093768  0  3.853295  0  0  0.11021  0  3.865094  0  0  0.163584  0.082521  0  3.846662  0
C  C58  1  0.92308241  0.27229916  0.20123419  1  0  0.165673  0  3.637753  0  0  0.094347  0  3.901048  0  0  0.113791  0  3.916362  0  0  0.163657  0.085981  0  3.890924  0
C  C59  1  0.43581024  0.84553346  0.36816175  1  0  -0.034231  0  3.694505  0  0  -0.029347  0  3.943253  0  0  -0.032816  0  3.969572  0  0  -0.018795  -0.025847  0  3.924973  0
C  C60  1  0.56208396  0.15244133  0.63307596  1  0  -0.034286  0  3.693827  0  0  -0.029065  0  3.942972  0  0  -0.032608  0  3.969491  0  0  -0.018676  -0.025376  0  3.92427  0
C  C61  1  0.31122392  0.84730097  0.56479810  1  0  -0.034468  0  3.69703  0  0  -0.028565  0  3.94699  0  0  -0.031243  0  3.971193  0  0  -0.020858  -0.02727  0  3.931258  0
C  C62  1  0.68528770  0.14745661  0.43577675  1  0  -0.03044  0  3.697825  0  0  -0.024128  0  3.945503  0  0  -0.026654  0  3.968575  0  0  -0.01934  -0.023227  0  3.930197  0
C  C63  1  0.55742748  0.77876408  0.43284780  1  0  0.022932  0  3.736917  0  0  0.034024  0  3.985304  0  0  0.033588  0  4.009134  0  0  -0.014713  0.035063  0  3.96777  0
C  C64  1  0.44055830  0.21937807  0.56833363  1  0  0.024497  0  3.73573  0  0  0.036079  0  3.98389  0  0  0.035542  0  4.007735  0  0  -0.014692  0.037085  0  3.966349  0
C  C65  1  0.04539060  0.52994130  0.69738722  1  0  0.198137  0  3.661492  0  0  0.146887  0  3.958839  0  0  0.160752  0  3.970338  0  0  0.153076  0.137648  0  3.950841  0
C  C66  1  0.95726004  0.46473155  0.31769429  1  0  0.193282  0  3.714887  0  0  0.145918  0  4.008644  0  0  0.157695  0  4.020458  0  0  0.148902  0.138143  0  3.998854  0
C  C67  1  0.43776794  0.75241399  0.77376169  1  0  -0.326822  0  3.729595  0  0  -0.410365  0  3.973585  0  0  -0.411819  0  3.983453  0  0  -0.248048  -0.408896  0  3.967237  0
C  C68  1  0.56084182  0.24594360  0.22757289  1  0  -0.32659  0  3.72944  0  0  -0.410985  0  3.972828  0  0  -0.412312  0  3.982425  0  0  -0.248069  -0.409527  0  3.966524  0
C  C69  1  0.17668818  0.87793034  0.63393139  1  0  -0.040306  0  3.648243  0  0  -0.117362  0  3.890373  0  0  -0.113217  0  3.901393  0  0  -0.045595  -0.119374  0  3.882465  0
C  C70  1  0.81935782  0.11606765  0.36631196  1  0  -0.044986  0  3.65863  0  0  -0.120106  0  3.899193  0  0  -0.11007  0  3.910615  0  0  -0.048617  -0.122434  0  3.891451  0
C  C71  1  0.66717242  0.53279656  0.62283085  1  0  -0.072959  0  3.624366  0  0  -0.168484  0  3.889785  0  0  -0.16267  0  3.893876  0  0  -0.150528  -0.172721  0  3.887258  0
C  C72  1  0.33278187  0.46576028  0.37508484  1  0  -0.076459  0  3.62539  0  0  -0.170496  0  3.890319  0  0  -0.164771  0  3.894456  0  0  -0.150627  -0.174699  0  3.887892  0
C  C73  1  0.68926279  0.73607718  0.36537132  1  0  -0.331334  0  3.73564  0  0  -0.412688  0  3.975986  0  0  -0.414544  0  3.984912  0  0  -0.246685  -0.410995  0  3.969127  0
C  C74  1  0.30937300  0.26332466  0.63614780  1  0  -0.334452  0  3.736827  0  0  -0.415272  0  3.977482  0  0  -0.417052  0  3.986448  0  0  -0.24824  -0.413594  0  3.970493  0
S  S75  1  0.23575523  0.05965344  0.96369409  1  0  -0.403172  0  2.053366  0  0  -0.392564  0  2.358215  0  0  -0.402029  0  2.347547  0  0  -0.181363  -0.387454  0  2.369207  0
S  S76  1  0.75922022  0.94580359  0.03497966  1  0  -0.395167  0  2.064159  0  0  -0.387142  0  2.370514  0  0  -0.396608  0  2.360104  0  0  -0.177864  -0.380774  0  2.380328  0
N  N77  1  0.19711215  0.59747371  0.05858996  1  0  -0.307349  0  3.320863  0  0  -0.261053  0  3.62391  0  0  -0.287893  0  3.638296  0  0  -0.342467  -0.242491  0  3.612543  0
N  N78  1  0.80743851  0.41131369  0.92702019  1  0  -0.311928  0  3.295885  0  0  -0.26537  0  3.597627  0  0  -0.291556  0  3.611501  0  0  -0.337711  -0.24713  0  3.586627  0
N  N79  1  0.36259957  0.74871317  0.14911673  1  0  0.053975  0  3.540995  0  0  0.174377  0  3.724473  0  0  0.164675  0  3.74725  0  0  -0.129963  0.179636  0  3.710904  0
N  N80  1  0.64013889  0.25444861  0.84896184  1  0  0.053249  0  3.536376  0  0  0.173885  0  3.72006  0  0  0.163927  0  3.743187  0  0  -0.129493  0.179087  0  3.706436  0
N  N81  1  0.03755515  0.59104285  0.81822173  1  0  -0.290958  0  3.306323  0  0  -0.247271  0  3.610903  0  0  -0.277359  0  3.6267  0  0  -0.340975  -0.227256  0  3.599211  0
N  N82  1  0.96804843  0.40961110  0.19603697  1  0  -0.327276  0  3.101551  0  0  -0.285082  0  3.391221  0  0  -0.309939  0  3.405293  0  0  -0.305882  -0.267321  0  3.379189  0
N  N83  1  0.11322740  0.74740424  0.68465557  1  0  0.044264  0  3.56433  0  0  0.168158  0  3.745185  0  0  0.157254  0  3.769466  0  0  -0.134383  0.173864  0  3.731106  0
N  N84  1  0.88576618  0.24768149  0.32087603  1  0  0.039279  0  3.567907  0  0  0.162618  0  3.747027  0  0  0.135284  0  3.790594  0  0  -0.136542  0.170151  0  3.729082  0
N  N85  1  0.43863710  0.63464829  0.10565908  1  0  -0.269924  0  2.857265  0  0  -0.266761  0  3.124391  0  0  -0.276143  0  3.138814  0  0  -0.215486  -0.259573  0  3.11497  0
N  N86  1  0.56526053  0.36766771  0.89548116  1  0  -0.271227  0  2.861395  0  0  -0.266689  0  3.127544  0  0  -0.276093  0  3.142093  0  0  -0.215112  -0.259238  0  3.117983  0
N  N87  1  0.09854490  0.33020258  0.95323161  1  0  -0.473443  0  3.19645  0  0  -0.442336  0  3.498913  0  0  -0.46208  0  3.498528  0  0  -0.419358  -0.430604  0  3.498938  0
N  N88  1  0.90658773  0.68094762  0.03006702  1  0  -0.471466  0  3.206346  0  0  -0.440722  0  3.50846  0  0  -0.460674  0  3.508266  0  0  -0.420861  -0.428056  0  3.507313  0
N  N89  1  0.09105556  0.62226287  0.61329267  1  0  -0.266244  0  2.836016  0  0  -0.270753  0  3.104751  0  0  -0.27971  0  3.118721  0  0  -0.218045  -0.2638  0  3.095385  0
N  N90  1  0.90784359  0.36918351  0.39753453  1  0  -0.282107  0  2.843926  0  0  -0.280643  0  3.107583  0  0  -0.284348  0  3.125171  0  0  -0.223321  -0.273419  0  3.096776  0
O  O91  1  0.67430442  0.68851426  0.63038515  1  0  -0.277021  0  2.295692  0  0  -0.202093  0  2.529648  0  0  -0.216452  0  2.53229  0  0  -0.216094  -0.1919  0  2.527997  0
O  O92  1  0.32385974  0.31002750  0.37073119  1  0  -0.275186  0  2.300379  0  0  -0.201715  0  2.53512  0  0  -0.216193  0  2.537986  0  0  -0.215747  -0.191521  0  2.533406  0
