# generated using pymatgen
data_ZnH26C30(N3O4)2
_symmetry_space_group_name_H-M   'P 1'
_cell_length_a   10.35652628
_cell_length_b   11.77424953
_cell_length_c   12.97384405
_cell_angle_alpha   75.98309131
_cell_angle_beta   88.00801961
_cell_angle_gamma   69.58654669
_symmetry_Int_Tables_number   1
_chemical_formula_structural   ZnH26C30(N3O4)2
_chemical_formula_sum   'Zn2 H52 C60 N12 O16'
_cell_volume   1436.38302279
_cell_formula_units_Z   2
loop_
 _symmetry_equiv_pos_site_id
 _symmetry_equiv_pos_as_xyz
  1  'x, y, z'
loop_
 _atom_site_type_symbol
 _atom_site_label
 _atom_site_symmetry_multiplicity
 _atom_site_fract_x
 _atom_site_fract_y
 _atom_site_fract_z
 _atom_site_occupancy
 _atom_site_hle17_bader_spin_density
 _atom_site_hle17_ddec_charge
 _atom_site_hle17_ddec_spin_density
 _atom_site_hle17_ddec_sum_bond_order
 _atom_site_hle17_magmom
 _atom_site_hse06_10hf_bader_spin_density
 _atom_site_hse06_10hf_ddec_charge
 _atom_site_hse06_10hf_ddec_spin_density
 _atom_site_hse06_10hf_ddec_sum_bond_order
 _atom_site_hse06_10hf_magmom
 _atom_site_hse06_bader_spin_density
 _atom_site_hse06_ddec_charge
 _atom_site_hse06_ddec_spin_density
 _atom_site_hse06_ddec_sum_bond_order
 _atom_site_hse06_magmom
 _atom_site_pbe_bader_spin_density
 _atom_site_pbe_cm5_charge
 _atom_site_pbe_ddec_charge
 _atom_site_pbe_ddec_spin_density
 _atom_site_pbe_ddec_sum_bond_order
 _atom_site_pbe_magmom
Zn  Zn0  1  0.49999641  0.99999988  0.49999819  1  0  1.036565  0  1.820842  0  0  0.863928  0  2.259377  0  0  0.909994  0  2.208006  0  0  0.675355  0.831731  0  2.294451  0
Zn  Zn1  1  0.00000367  0.00000290  0.00000232  1  0  1.045346  0  1.821733  0  0  0.871583  0  2.2656  0  0  0.918188  0  2.213337  0  0  0.666088  0.839392  0  2.300857  0
H  H2  1  0.81726513  0.09669892  0.14890967  1  0  0.4245  0  0.819385  0  0  0.40814  0  0.873665  0  0  0.416833  0  0.863414  0  0  0.317009  0.401934  0  0.881048  0
H  H3  1  0.18273226  0.90331042  0.85108479  1  0  0.424495  0  0.819464  0  0  0.408091  0  0.87379  0  0  0.416781  0  0.863549  0  0  0.316992  0.401886  0  0.881169  0
H  H4  1  0.91636700  0.95024226  0.18524225  1  0  0.413643  0  0.90164  0  0  0.378468  0  0.972239  0  0  0.391522  0  0.953318  0  0  0.279491  0.369283  0  0.985541  0
H  H5  1  0.08363351  0.04977116  0.81476197  1  0  0.41376  0  0.901485  0  0  0.378609  0  0.972058  0  0  0.391665  0  0.953133  0  0  0.279591  0.369424  0  0.985361  0
H  H6  1  0.69830106  0.91865475  0.35376277  1  0  0.426902  0  0.823873  0  0  0.409264  0  0.880607  0  0  0.417964  0  0.870232  0  0  0.31342  0.403061  0  0.888113  0
H  H7  1  0.30169994  0.08134790  0.64622860  1  0  0.426931  0  0.823856  0  0  0.409294  0  0.880583  0  0  0.417993  0  0.870211  0  0  0.313447  0.403091  0  0.888089  0
H  H8  1  0.61456690  0.06591136  0.33200726  1  0  0.405491  0  0.913988  0  0  0.371029  0  0.984507  0  0  0.383604  0  0.966267  0  0  0.276904  0.362212  0  0.997256  0
H  H9  1  0.38543269  0.93408967  0.66799223  1  0  0.405502  0  0.913982  0  0  0.371036  0  0.984509  0  0  0.383611  0  0.966269  0  0  0.276901  0.36222  0  0.997257  0
H  H10  1  0.68094628  0.62114713  0.38055924  1  0  0.290192  0  0.88684  0  0  0.279586  0  0.940676  0  0  0.285675  0  0.936396  0  0  0.322755  0.27515  0  0.944046  0
H  H11  1  0.31904588  0.37884821  0.61943866  1  0  0.290197  0  0.886737  0  0  0.279525  0  0.940679  0  0  0.285611  0  0.936414  0  0  0.322768  0.275074  0  0.94405  0
H  H12  1  0.47503552  0.72625792  0.06800217  1  0  0.285839  0  0.892813  0  0  0.276416  0  0.945087  0  0  0.28233  0  0.941038  0  0  0.321029  0.272102  0  0.948263  0
H  H13  1  0.52496432  0.27374764  0.93199160  1  0  0.285834  0  0.892875  0  0  0.276413  0  0.945141  0  0  0.282325  0  0.941093  0  0  0.321059  0.272105  0  0.948312  0
H  H14  1  0.04242948  0.11731003  0.47222070  1  0  0.067521  0  0.948381  0  0  0.077043  0  1.010981  0  0  0.079433  0  1.00926  0  0  0.106919  0.075062  0  1.012765  0
H  H15  1  0.95757599  0.88268824  0.52778088  1  0  0.067517  0  0.948318  0  0  0.077023  0  1.010944  0  0  0.079416  0  1.00922  0  0  0.106876  0.075042  0  1.012731  0
H  H16  1  0.24046927  0.71410953  0.30665823  1  0  0.103383  0  0.972619  0  0  0.111861  0  1.037313  0  0  0.113964  0  1.036439  0  0  0.110361  0.110294  0  1.037957  0
H  H17  1  0.75952459  0.28587065  0.69336562  1  0  0.1032  0  0.972865  0  0  0.111855  0  1.037308  0  0  0.113933  0  1.03652  0  0  0.110332  0.110285  0  1.037945  0
H  H18  1  0.81905139  0.13043151  0.39028856  1  0  0.107164  0  0.951572  0  0  0.11735  0  1.010706  0  0  0.120688  0  1.009024  0  0  0.103941  0.114946  0  1.012014  0
H  H19  1  0.18095624  0.86956115  0.60971431  1  0  0.107158  0  0.951616  0  0  0.117386  0  1.010694  0  0  0.120726  0  1.009009  0  0  0.10393  0.11498  0  1.012003  0
H  H20  1  0.83682491  0.65481403  0.16487152  1  0  0.122196  0  0.961816  0  0  0.12843  0  1.027097  0  0  0.131645  0  1.024959  0  0  0.109368  0.126175  0  1.028533  0
H  H21  1  0.16317577  0.34518685  0.83512335  1  0  0.122193  0  0.961741  0  0  0.128425  0  1.027027  0  0  0.131642  0  1.024893  0  0  0.109388  0.12617  0  1.028465  0
H  H22  1  0.00833852  0.43859360  0.17964907  1  0  0.098655  0  0.975736  0  0  0.109321  0  1.034143  0  0  0.110633  0  1.036599  0  0  0.101769  0.108833  0  1.031579  0
H  H23  1  0.99165783  0.56140569  0.82035475  1  0  0.098594  0  0.975736  0  0  0.109285  0  1.034126  0  0  0.1106  0  1.03658  0  0  0.101755  0.108797  0  1.031562  0
H  H24  1  0.62474268  0.33618694  0.34579016  1  0  0.124743  0  0.951769  0  0  0.131818  0  1.014545  0  0  0.135216  0  1.012467  0  0  0.109704  0.129383  0  1.015959  0
H  H25  1  0.37525771  0.66380198  0.65421297  1  0  0.124822  0  0.951715  0  0  0.131835  0  1.014546  0  0  0.135274  0  1.012418  0  0  0.109721  0.129393  0  1.015985  0
H  H26  1  0.89094214  0.49520796  0.46140921  1  0  0.07447  0  0.937928  0  0  0.08676  0  0.998572  0  0  0.088748  0  0.997344  0  0  0.11205  0.085273  0  0.999575  0
H  H27  1  0.10905465  0.50479295  0.53858650  1  0  0.07445  0  0.938025  0  0  0.086768  0  0.998626  0  0  0.088756  0  0.997393  0  0  0.112035  0.085282  0  0.999628  0
H  H28  1  0.50950262  0.05248193  0.16564787  1  0  0.11368  0  0.950899  0  0  0.121049  0  1.01487  0  0  0.125099  0  1.010663  0  0  0.11269  0.118119  0  1.017837  0
H  H29  1  0.49051303  0.94751785  0.83434235  1  0  0.113624  0  0.950854  0  0  0.121036  0  1.014798  0  0  0.125085  0  1.01059  0  0  0.112662  0.118098  0  1.017779  0
H  H30  1  0.92633721  0.27194329  0.14871825  1  0  0.070193  0  0.950325  0  0  0.077879  0  1.016616  0  0  0.080324  0  1.01478  0  0  0.107544  0.075976  0  1.018293  0
H  H31  1  0.07365845  0.72805517  0.85128887  1  0  0.07012  0  0.950317  0  0  0.077911  0  1.016504  0  0  0.08036  0  1.014659  0  0  0.107518  0.076004  0  1.018183  0
H  H32  1  0.10720179  0.94092611  0.30157867  1  0  0.119305  0  0.943296  0  0  0.130914  0  0.997593  0  0  0.134067  0  0.997123  0  0  0.112799  0.128474  0  0.998474  0
H  H33  1  0.89279767  0.05906011  0.69842821  1  0  0.119313  0  0.943064  0  0  0.130909  0  0.997407  0  0  0.134061  0  0.996939  0  0  0.112804  0.128467  0  0.998287  0
H  H34  1  0.22685445  0.05915920  0.37782545  1  0  0.085961  0  0.945014  0  0  0.093078  0  1.009694  0  0  0.095577  0  1.0077  0  0  0.120271  0.091005  0  1.011542  0
H  H35  1  0.77314477  0.94083044  0.62217136  1  0  0.0859  0  0.944917  0  0  0.093014  0  1.009602  0  0  0.095516  0  1.007608  0  0  0.120251  0.090941  0  1.011448  0
H  H36  1  0.52462116  0.52007474  0.08631115  1  0  0.07122  0  0.96265  0  0  0.08058  0  1.030193  0  0  0.082482  0  1.029294  0  0  0.10905  0.079531  0  1.030196  0
H  H37  1  0.47537695  0.47993008  0.91368901  1  0  0.071182  0  0.962603  0  0  0.080584  0  1.030103  0  0  0.082484  0  1.029207  0  0  0.109031  0.079533  0  1.030107  0
H  H38  1  0.29157454  0.23840932  0.11577380  1  0  0.108341  0  0.961933  0  0  0.116397  0  1.024232  0  0  0.11887  0  1.025061  0  0  0.108632  0.114525  0  1.023884  0
H  H39  1  0.70843973  0.76158881  0.88422377  1  0  0.10834  0  0.961981  0  0  0.116429  0  1.024226  0  0  0.118906  0  1.02505  0  0  0.108656  0.114553  0  1.023885  0
H  H40  1  0.08632954  0.21133829  0.03963113  1  0  0.084898  0  0.946822  0  0  0.093044  0  1.010339  0  0  0.095556  0  1.008131  0  0  0.120801  0.090912  0  1.012386  0
H  H41  1  0.91367818  0.78866394  0.96037639  1  0  0.084848  0  0.946827  0  0  0.092983  0  1.010379  0  0  0.095492  0  1.008176  0  0  0.120782  0.090847  0  1.012431  0
H  H42  1  0.58185244  0.75096713  0.45896350  1  0  0.087453  0  0.955072  0  0  0.096868  0  1.018046  0  0  0.099912  0  1.014858  0  0  0.123679  0.09457  0  1.020518  0
H  H43  1  0.41815623  0.24902809  0.54103103  1  0  0.087406  0  0.955222  0  0  0.096812  0  1.018182  0  0  0.099855  0  1.014992  0  0  0.123661  0.094515  0  1.020657  0
H  H44  1  0.17836505  0.36370366  0.40778984  1  0  0.096978  0  0.981353  0  0  0.095857  0  1.062005  0  0  0.100702  0  1.057407  0  0  0.096636  0.092325  0  1.065488  0
H  H45  1  0.82161604  0.63630287  0.59220483  1  0  0.0969  0  0.98138  0  0  0.095793  0  1.062023  0  0  0.100638  0  1.057417  0  0  0.096586  0.092263  0  1.065501  0
H  H46  1  0.25881639  0.61545278  0.06111298  1  0  0.0881  0  1.010765  0  0  0.090027  0  1.08872  0  0  0.094164  0  1.085419  0  0  0.091455  0.086846  0  1.091534  0
H  H47  1  0.74119065  0.38455126  0.93889258  1  0  0.087982  0  1.010814  0  0  0.090021  0  1.088671  0  0  0.094152  0  1.085375  0  0  0.091449  0.086839  0  1.091487  0
H  H48  1  0.03220651  0.59167224  0.34323532  1  0  0.094269  0  0.964149  0  0  0.099078  0  1.036132  0  0  0.102878  0  1.033133  0  0  0.100384  0.09629  0  1.038374  0
H  H49  1  0.96777642  0.40833707  0.65675789  1  0  0.094261  0  0.964336  0  0  0.099046  0  1.036325  0  0  0.102847  0  1.033321  0  0  0.100368  0.096258  0  1.038568  0
H  H50  1  0.41222571  0.39024883  0.12963701  1  0  0.087453  0  0.9682  0  0  0.094143  0  1.038038  0  0  0.097998  0  1.03489  0  0  0.095931  0.091402  0  1.040109  0
H  H51  1  0.58777050  0.60975328  0.87036691  1  0  0.087374  0  0.968188  0  0  0.094021  0  1.038093  0  0  0.097908  0  1.034894  0  0  0.095914  0.09128  0  1.04016  0
H  H52  1  0.29358907  0.83772784  0.06572802  1  0  0.081277  0  0.963168  0  0  0.088202  0  1.031343  0  0  0.091803  0  1.027129  0  0  0.118857  0.085425  0  1.034636  0
H  H53  1  0.70641389  0.16227430  0.93427654  1  0  0.081263  0  0.963202  0  0  0.088258  0  1.031273  0  0  0.091856  0  1.027063  0  0  0.118893  0.085487  0  1.034561  0
C  C54  1  0.95609102  0.20596250  0.45009472  1  0  0.084698  0  3.762785  0  0  0.06053  0  4.020811  0  0  0.06371  0  4.040379  0  0  0.02883  0.058671  0  4.007748  0
C  C55  1  0.04391483  0.79403481  0.54990630  1  0  0.084813  0  3.762622  0  0  0.060654  0  4.020648  0  0  0.063815  0  4.040255  0  0  0.028973  0.058795  0  4.007583  0
C  C56  1  0.28713146  0.77121360  0.33527025  1  0  -0.001019  0  3.664501  0  0  -0.033021  0  3.914451  0  0  -0.02713  0  3.931974  0  0  -0.055804  -0.036544  0  3.902485  0
C  C57  1  0.71286470  0.22877360  0.66473801  1  0  -0.001082  0  3.664583  0  0  -0.033068  0  3.91445  0  0  -0.027196  0  3.931975  0  0  -0.055862  -0.036582  0  3.902474  0
C  C58  1  0.83178759  0.21322477  0.40549033  1  0  -0.114757  0  3.771527  0  0  -0.124855  0  4.020579  0  0  -0.130474  0  4.044486  0  0  -0.089326  -0.121097  0  4.004318  0
C  C59  1  0.16821684  0.78676876  0.59451008  1  0  -0.114723  0  3.77151  0  0  -0.124866  0  4.020545  0  0  -0.13048  0  4.044451  0  0  -0.0893  -0.121105  0  4.004278  0
C  C60  1  0.80578985  0.58076284  0.14976389  1  0  -0.117868  0  3.686087  0  0  -0.142442  0  3.934747  0  0  -0.143709  0  3.953937  0  0  -0.079795  -0.141259  0  3.921418  0
C  C61  1  0.19420999  0.41924006  0.85023514  1  0  -0.117867  0  3.685982  0  0  -0.142407  0  3.93463  0  0  -0.143682  0  3.953833  0  0  -0.07978  -0.141225  0  3.9213  0
C  C62  1  0.90012428  0.46018121  0.15818417  1  0  -0.107198  0  3.760309  0  0  -0.11538  0  4.002604  0  0  -0.120634  0  4.027532  0  0  -0.086071  -0.111933  0  3.985061  0
C  C63  1  0.09987559  0.53981898  0.84181859  1  0  -0.107152  0  3.760304  0  0  -0.115361  0  4.002629  0  0  -0.120616  0  4.027559  0  0  -0.086067  -0.111915  0  3.985083  0
C  C64  1  0.72242031  0.32727311  0.38113961  1  0  -0.107922  0  3.684227  0  0  -0.134265  0  3.93416  0  0  -0.135321  0  3.954088  0  0  -0.078804  -0.133349  0  3.920759  0
C  C65  1  0.27758250  0.67271954  0.61886259  1  0  -0.107978  0  3.684276  0  0  -0.134255  0  3.934169  0  0  -0.13534  0  3.954069  0  0  -0.078838  -0.133342  0  3.920761  0
C  C66  1  0.87300906  0.41451389  0.44544989  1  0  0.013061  0  3.726203  0  0  -0.015966  0  3.987415  0  0  -0.014504  0  4.006238  0  0  0.037673  -0.016511  0  3.974149  0
C  C67  1  0.12698726  0.58548326  0.55454596  1  0  0.013184  0  3.726211  0  0  -0.015873  0  3.98739  0  0  -0.014407  0  4.006206  0  0  0.037694  -0.01642  0  3.97413  0
C  C68  1  0.41928838  0.04488698  0.13135430  1  0  -0.001301  0  3.674338  0  0  -0.035426  0  3.92786  0  0  -0.029696  0  3.944286  0  0  -0.057479  -0.038841  0  3.916563  0
C  C69  1  0.58072515  0.95511570  0.86863835  1  0  -0.001358  0  3.674094  0  0  -0.0355  0  3.927592  0  0  -0.029768  0  3.944019  0  0  -0.057472  -0.038914  0  3.916294  0
C  C70  1  0.85488942  0.36738988  0.14093070  1  0  0.099189  0  3.742641  0  0  0.072087  0  4.00331  0  0  0.075109  0  4.022687  0  0  0.035335  0.070133  0  3.990472  0
C  C71  1  0.14510998  0.63260656  0.85907220  1  0  0.099266  0  3.742652  0  0  0.072078  0  4.003334  0  0  0.0751  0  4.022708  0  0  0.035369  0.070124  0  3.990493  0
C  C72  1  0.21346609  0.89561673  0.33423424  1  0  -0.118954  0  3.715277  0  0  -0.129404  0  3.967736  0  0  -0.138203  0  3.990424  0  0  -0.079564  -0.123771  0  3.952551  0
C  C73  1  0.78652563  0.10437214  0.66576753  1  0  -0.11887  0  3.715405  0  0  -0.129356  0  3.967918  0  0  -0.138148  0  3.990606  0  0  -0.079514  -0.123718  0  3.952723  0
C  C74  1  0.55476201  0.81989876  0.14644854  1  0  0.537671  0  3.85764  0  0  0.489207  0  4.151787  0  0  0.517982  0  4.153374  0  0  0.237992  0.469872  0  4.150099  0
C  C75  1  0.44524278  0.18010133  0.85355107  1  0  0.5376  0  3.857589  0  0  0.48909  0  4.151838  0  0  0.517863  0  4.153429  0  0  0.237924  0.469761  0  4.150146  0
C  C76  1  0.50324256  0.58301982  0.37836303  1  0  0.546864  0  3.839574  0  0  0.49916  0  4.129113  0  0  0.52919  0  4.127415  0  0  0.239378  0.478831  0  4.129907  0
C  C77  1  0.49675819  0.41696816  0.62164032  1  0  0.546846  0  3.839232  0  0  0.499108  0  4.128974  0  0  0.529139  0  4.127277  0  0  0.239308  0.478748  0  4.129768  0
C  C78  1  0.27820827  0.96158447  0.37618061  1  0  0.138356  0  3.676125  0  0  0.103733  0  3.93119  0  0  0.111692  0  3.949114  0  0  0.055641  0.098807  0  3.918933  0
C  C79  1  0.72179083  0.03842033  0.62381876  1  0  0.138422  0  3.676413  0  0  0.103804  0  3.931523  0  0  0.111758  0  3.949449  0  0  0.05567  0.098879  0  3.919267  0
C  C80  1  0.63240569  0.50351217  0.10668129  1  0  0.017468  0  3.717344  0  0  -0.012252  0  3.979729  0  0  -0.010583  0  3.997525  0  0  0.038124  -0.013014  0  3.966712  0
C  C81  1  0.36758904  0.49648889  0.89331905  1  0  0.017424  0  3.71732  0  0  -0.012301  0  3.979702  0  0  -0.010633  0  3.997502  0  0  0.038149  -0.013058  0  3.966671  0
C  C82  1  0.74329015  0.43094251  0.40234293  1  0  0.204818  0  3.799302  0  0  0.203321  0  4.045896  0  0  0.207973  0  4.068342  0  0  0.098303  0.199906  0  4.030802  0
C  C83  1  0.25671032  0.56905380  0.59765613  1  0  0.204453  0  3.799484  0  0  0.203051  0  4.046001  0  0  0.207701  0  4.068458  0  0  0.098177  0.199613  0  4.030898  0
C  C84  1  0.29794212  0.14801977  0.10429629  1  0  -0.112754  0  3.711161  0  0  -0.122706  0  3.963744  0  0  -0.130594  0  3.984875  0  0  -0.079349  -0.117753  0  3.949655  0
C  C85  1  0.70206964  0.85198488  0.89569901  1  0  -0.112691  0  3.711114  0  0  -0.122679  0  3.963703  0  0  -0.130566  0  3.984825  0  0  -0.079353  -0.117723  0  3.949609  0
C  C86  1  0.18384208  0.13386643  0.06281190  1  0  0.147665  0  3.659605  0  0  0.114466  0  3.909341  0  0  0.123082  0  3.925411  0  0  0.059031  0.108947  0  3.898574  0
C  C87  1  0.81616625  0.86613189  0.93719114  1  0  0.147798  0  3.659373  0  0  0.114584  0  3.909148  0  0  0.123213  0  3.925213  0  0  0.059058  0.109069  0  3.898373  0
C  C88  1  0.42421958  0.71709983  0.37571039  1  0  -0.107242  0  3.764743  0  0  -0.084283  0  4.006954  0  0  -0.095155  0  4.029082  0  0  -0.010383  -0.077556  0  3.992449  0
C  C89  1  0.57578047  0.28289484  0.62429600  1  0  -0.107079  0  3.764244  0  0  -0.084238  0  4.006637  0  0  -0.095111  0  4.028759  0  0  -0.010377  -0.077511  0  3.992146  0
C  C90  1  0.42368904  0.93021295  0.11555121  1  0  -0.119417  0  3.777473  0  0  -0.094847  0  4.017726  0  0  -0.10709  0  4.043897  0  0  -0.014111  -0.087005  0  4.000043  0
C  C91  1  0.57632128  0.06978794  0.88444424  1  0  -0.119203  0  3.777331  0  0  -0.094648  0  4.017636  0  0  -0.106892  0  4.043811  0  0  -0.01403  -0.086797  0  3.999933  0
C  C92  1  0.05521475  0.75376685  0.16232666  1  0  0.633571  0  3.908071  0  0  0.582087  0  4.205424  0  0  0.615917  0  4.19841  0  0  0.205614  0.559147  0  4.209403  0
C  C93  1  0.94478790  0.24624364  0.83767436  1  0  0.633484  0  3.908159  0  0  0.582003  0  4.205605  0  0  0.615848  0  4.198587  0  0  0.20555  0.559065  0  4.209583  0
C  C94  1  0.66774562  0.60299251  0.12298218  1  0  0.200949  0  3.802485  0  0  0.197648  0  4.051921  0  0  0.202426  0  4.074104  0  0  0.094496  0.194359  0  4.036713  0
C  C95  1  0.33225399  0.39700850  0.87701654  1  0  0.200968  0  3.802435  0  0  0.197613  0  4.051957  0  0  0.202386  0  4.074143  0  0  0.094458  0.19433  0  4.036744  0
C  C96  1  0.47960502  0.78906036  0.41858008  1  0  0.110576  0  3.683497  0  0  0.066533  0  3.936175  0  0  0.075362  0  3.952694  0  0  0.052502  0.060766  0  3.92533  0
C  C97  1  0.52039162  0.21093106  0.58141328  1  0  0.110535  0  3.683444  0  0  0.066564  0  3.936112  0  0  0.075405  0  3.952612  0  0  0.052513  0.060806  0  3.925249  0
C  C98  1  0.30569886  0.36517428  0.27318178  1  0  -0.054039  0  3.738661  0  0  -0.031789  0  3.969189  0  0  -0.03747  0  3.989416  0  0  -0.016668  -0.028494  0  3.95623  0
C  C99  1  0.69429216  0.63483143  0.72681675  1  0  -0.054341  0  3.738819  0  0  -0.032054  0  3.969294  0  0  -0.037776  0  3.989595  0  0  -0.016779  -0.028751  0  3.956316  0
C  C100  1  0.40486256  0.23452359  0.31690616  1  0  0.648631  0  3.889031  0  0  0.597004  0  4.18426  0  0  0.63139  0  4.176474  0  0  0.210452  0.573862  0  4.188584  0
C  C101  1  0.59513112  0.76548026  0.68309277  1  0  0.648656  0  3.889008  0  0  0.597032  0  4.184253  0  0  0.631421  0  4.176458  0  0  0.210459  0.573892  0  4.188574  0
C  C102  1  0.19708435  0.42041800  0.33297767  1  0  -0.062913  0  3.709524  0  0  -0.086594  0  3.964062  0  0  -0.086612  0  3.981332  0  0  -0.084087  -0.086772  0  3.952901  0
C  C103  1  0.80290368  0.57959049  0.66701949  1  0  -0.062877  0  3.709504  0  0  -0.086578  0  3.964016  0  0  -0.086584  0  3.981265  0  0  -0.084112  -0.086756  0  3.952854  0
C  C104  1  0.24344893  0.55985040  0.13760736  1  0  -0.087298  0  3.757426  0  0  -0.111215  0  4.00946  0  0  -0.112201  0  4.029661  0  0  -0.096988  -0.110367  0  3.995207  0
C  C105  1  0.75655424  0.44015630  0.86239302  1  0  -0.087256  0  3.75735  0  0  -0.111226  0  4.00946  0  0  -0.112209  0  4.029675  0  0  -0.096984  -0.110379  0  3.995205  0
C  C106  1  0.13785881  0.61652581  0.19903947  1  0  -0.073674  0  3.763573  0  0  -0.049651  0  3.994609  0  0  -0.056199  0  4.01595  0  0  -0.024181  -0.045247  0  3.979995  0
C  C107  1  0.86213773  0.38347807  0.80096094  1  0  -0.073515  0  3.763369  0  0  -0.049732  0  3.994809  0  0  -0.0563  0  4.016153  0  0  -0.024201  -0.045324  0  3.980191  0
C  C108  1  0.11448529  0.54564660  0.29652977  1  0  -0.071746  0  3.728089  0  0  -0.096124  0  3.982609  0  0  -0.096436  0  4.001456  0  0  -0.083152  -0.095958  0  3.969765  0
C  C109  1  0.88550813  0.45435805  0.70346512  1  0  -0.071641  0  3.727988  0  0  -0.09592  0  3.982498  0  0  -0.09622  0  4.001336  0  0  -0.08303  -0.095757  0  3.969652  0
C  C110  1  0.32681418  0.43526289  0.17456811  1  0  -0.084491  0  3.763051  0  0  -0.107705  0  4.016098  0  0  -0.108393  0  4.03558  0  0  -0.093003  -0.106745  0  4.00191  0
C  C111  1  0.67318366  0.56474009  0.82543326  1  0  -0.08426  0  3.762802  0  0  -0.107434  0  4.015864  0  0  -0.108132  0  4.035326  0  0  -0.092927  -0.106472  0  4.001671  0
C  C112  1  0.30323619  0.92422484  0.07520622  1  0  0.101374  0  3.691675  0  0  0.061721  0  3.941026  0  0  0.069506  0  3.958783  0  0  0.051392  0.056394  0  3.92999  0
C  C113  1  0.69676480  0.07578000  0.92479464  1  0  0.101243  0  3.691531  0  0  0.061556  0  3.940858  0  0  0.069346  0  3.95863  0  0  0.051254  0.056195  0  3.92988  0
N  N114  1  0.64387780  0.55139601  0.38230600  1  0  -0.442399  0  3.386868  0  0  -0.39324  0  3.629568  0  0  -0.414731  0  3.639839  0  0  -0.397894  -0.37831  0  3.622483  0
N  N115  1  0.35612087  0.44859748  0.61769300  1  0  -0.442254  0  3.386646  0  0  -0.393125  0  3.629551  0  0  -0.414623  0  3.63983  0  0  -0.397816  -0.37812  0  3.622406  0
N  N116  1  0.97735271  0.30539033  0.46947806  1  0  -0.289127  0  3.113658  0  0  -0.251605  0  3.383619  0  0  -0.261288  0  3.399544  0  0  -0.323151  -0.244957  0  3.372535  0
N  N117  1  0.02264694  0.69461063  0.53051913  1  0  -0.289184  0  3.11357  0  0  -0.251663  0  3.383555  0  0  -0.261343  0  3.399481  0  0  -0.323213  -0.245016  0  3.372474  0
N  N118  1  0.72253518  0.38825028  0.11519226  1  0  -0.294893  0  3.111277  0  0  -0.258849  0  3.385861  0  0  -0.267866  0  3.400147  0  0  -0.32677  -0.252818  0  3.376091  0
N  N119  1  0.27745972  0.61175275  0.88481069  1  0  -0.29487  0  3.111267  0  0  -0.25883  0  3.385892  0  0  -0.267848  0  3.400178  0  0  -0.326781  -0.252798  0  3.376117  0
N  N120  1  0.18625792  0.02336887  0.04957452  1  0  -0.306349  0  3.267122  0  0  -0.229179  0  3.530679  0  0  -0.247741  0  3.54758  0  0  -0.314575  -0.216803  0  3.519026  0
N  N121  1  0.81375158  0.97663136  0.95042958  1  0  -0.306477  0  3.26662  0  0  -0.229292  0  3.530183  0  0  -0.247881  0  3.547106  0  0  -0.314572  -0.216907  0  3.518521  0
N  N122  1  0.40816169  0.90810825  0.41920796  1  0  -0.315377  0  3.289236  0  0  -0.234731  0  3.555708  0  0  -0.254244  0  3.573011  0  0  -0.322764  -0.221542  0  3.543666  0
N  N123  1  0.59183714  0.09188986  0.58078838  1  0  -0.315382  0  3.28966  0  0  -0.234748  0  3.556148  0  0  -0.254259  0  3.573447  0  0  -0.322762  -0.221565  0  3.544119  0
N  N124  1  0.56067634  0.71902475  0.10877870  1  0  -0.443932  0  3.384617  0  0  -0.390827  0  3.624323  0  0  -0.413109  0  3.636149  0  0  -0.397159  -0.37539  0  3.615823  0
N  N125  1  0.43932898  0.28097902  0.89121847  1  0  -0.443877  0  3.384563  0  0  -0.390785  0  3.624386  0  0  -0.413039  0  3.636163  0  0  -0.397168  -0.375361  0  3.615894  0
O  O126  1  0.44399523  0.50851897  0.37751917  1  0  -0.515516  0  1.93598  0  0  -0.472411  0  2.15458  0  0  -0.494123  0  2.153647  0  0  -0.277583  -0.457237  0  2.154634  0
O  O127  1  0.55600174  0.49147639  0.62247941  1  0  -0.515424  0  1.935583  0  0  -0.472308  0  2.15426  0  0  -0.494008  0  2.153322  0  0  -0.277526  -0.45717  0  2.154398  0
O  O128  1  0.64901530  0.82146209  0.20162330  1  0  -0.524955  0  1.903168  0  0  -0.485909  0  2.12049  0  0  -0.505517  0  2.11502  0  0  -0.287532  -0.472419  0  2.12399  0
O  O129  1  0.35098440  0.17853349  0.79838211  1  0  -0.524922  0  1.903189  0  0  -0.485857  0  2.120522  0  0  -0.505467  0  2.115055  0  0  -0.287481  -0.47237  0  2.124024  0
O  O130  1  0.96583592  0.80414447  0.22210251  1  0  -0.595477  0  1.947399  0  0  -0.542856  0  2.162451  0  0  -0.565733  0  2.151273  0  0  -0.315281  -0.527021  0  2.169919  0
O  O131  1  0.03417200  0.19586232  0.77790083  1  0  -0.595557  0  1.947505  0  0  -0.542894  0  2.162517  0  0  -0.565779  0  2.151334  0  0  -0.315294  -0.527061  0  2.169982  0
O  O132  1  0.51026501  0.19411773  0.26477776  1  0  -0.626105  0  1.950061  0  0  -0.571861  0  2.169266  0  0  -0.595758  0  2.157548  0  0  -0.323925  -0.555178  0  2.176671  0
O  O133  1  0.48972804  0.80588520  0.73522217  1  0  -0.626045  0  1.949897  0  0  -0.571817  0  2.169118  0  0  -0.595711  0  2.157399  0  0  -0.323882  -0.55513  0  2.176521  0
O  O134  1  0.91192598  0.03982357  0.15050226  1  0  -0.828696  0  1.86551  0  0  -0.776285  0  2.064616  0  0  -0.796187  0  2.033038  0  0  -0.574998  -0.762274  0  2.086507  0
O  O135  1  0.08806875  0.96018983  0.84950131  1  0  -0.828788  0  1.865491  0  0  -0.776344  0  2.064663  0  0  -0.796246  0  2.033072  0  0  -0.575067  -0.762329  0  2.086545  0
O  O136  1  0.67099430  0.98799233  0.38802471  1  0  -0.821019  0  1.845652  0  0  -0.768586  0  2.037873  0  0  -0.787999  0  2.007066  0  0  -0.577385  -0.754747  0  2.059259  0
O  O137  1  0.32900586  0.01200484  0.61197183  1  0  -0.821076  0  1.845667  0  0  -0.76862  0  2.03787  0  0  -0.788034  0  2.007062  0  0  -0.577418  -0.754782  0  2.059258  0
O  O138  1  0.37656853  0.17424121  0.40556483  1  0  -0.649538  0  2.073013  0  0  -0.580454  0  2.33079  0  0  -0.608578  0  2.31898  0  0  -0.320863  -0.56061  0  2.338071  0
O  O139  1  0.62342465  0.82576374  0.59443925  1  0  -0.649505  0  2.073188  0  0  -0.580439  0  2.330998  0  0  -0.60856  0  2.319179  0  0  -0.320843  -0.560596  0  2.338278  0
O  O140  1  0.08531811  0.81074593  0.07199263  1  0  -0.663658  0  2.076218  0  0  -0.593102  0  2.341633  0  0  -0.621817  0  2.329896  0  0  -0.330255  -0.572795  0  2.348866  0
O  O141  1  0.91468799  0.18926072  0.92800616  1  0  -0.663601  0  2.076255  0  0  -0.593073  0  2.341739  0  0  -0.621738  0  2.329879  0  0  -0.33023  -0.572763  0  2.34897  0
