# generated using pymatgen
data_Zr3H18C30Br5O16
_symmetry_space_group_name_H-M   'P 1'
_cell_length_a   14.90374309
_cell_length_b   14.90069086
_cell_length_c   14.85850715
_cell_angle_alpha   58.95523504
_cell_angle_beta   60.30101550
_cell_angle_gamma   59.76439234
_symmetry_Int_Tables_number   1
_chemical_formula_structural   Zr3H18C30Br5O16
_chemical_formula_sum   'Zr6 H36 C60 Br10 O32'
_cell_volume   2315.29659344
_cell_formula_units_Z   2
loop_
 _symmetry_equiv_pos_site_id
 _symmetry_equiv_pos_as_xyz
  1  'x, y, z'
loop_
 _atom_site_type_symbol
 _atom_site_label
 _atom_site_symmetry_multiplicity
 _atom_site_fract_x
 _atom_site_fract_y
 _atom_site_fract_z
 _atom_site_occupancy
 _atom_site_pbe_bader_charge
 _atom_site_pbe_bader_spin_density
 _atom_site_pbe_cm5_charge
 _atom_site_pbe_ddec_charge
 _atom_site_pbe_ddec_spin_density
 _atom_site_pbe_ddec_sum_bond_order
 _atom_site_pbe_magmom
Zr  Zr0  1  0.87962883  0.38517189  0.61619608  1  2.634541  0  1.6248  2.381142  0  2.744989  0
Zr  Zr1  1  0.11875203  0.62287325  0.38291318  1  2.634962  0  1.615936  2.3738  0  2.717886  0
Zr  Zr2  1  0.11809210  0.37839433  0.62297940  1  2.635428  0  1.623052  2.376598  0  2.75065  0
Zr  Zr3  1  0.88462273  0.62707479  0.37548231  1  2.632701  0  1.620627  2.374716  0  2.725647  0
Zr  Zr4  1  0.88155645  0.61737011  0.62167530  1  2.633497  0  1.619894  2.380631  0  2.721837  0
Zr  Zr5  1  0.11931437  0.38400504  0.38305416  1  2.637515  0  1.625332  2.377918  0  2.758096  0
H  H6  1  0.90504608  0.40096613  0.78262176  1  0.5914  0  0.330892  0.422627  0  0.857132  0
H  H7  1  0.91058238  0.78602972  0.40453093  1  0.6016  0  0.326608  0.417397  0  0.865817  0
H  H8  1  0.28136510  0.40751290  0.41239469  1  0.597744  0  0.324683  0.41598  0  0.870939  0
H  H9  1  0.90661455  0.41633032  0.40013489  1  0.603791  0  0.331243  0.424401  0  0.855391  0
H  H10  1  0.50175213  0.75850115  0.81375321  1  0.053927  0  0.100603  0.115708  0  0.972789  0
H  H11  1  0.57841981  0.72506486  0.89461180  1  0.060777  0  0.101686  0.116386  0  0.97924  0
H  H12  1  0.40567645  0.73558841  0.05914348  1  0.05248  0  0.090242  0.109117  0  1.005437  0
H  H13  1  0.33117471  0.76197236  0.97983840  1  0.061751  0  0.098671  0.110788  0  1.017094  0
H  H14  1  0.22375193  0.07716692  0.30042155  1  0.074834  0  0.094552  0.103884  0  1.014899  0
H  H15  1  0.11405086  0.15776208  0.24444164  1  0.072218  0  0.091321  0.105285  0  1.004629  0
H  H16  1  0.11669177  0.98519256  0.24852296  1  0.053558  0  0.096481  0.107421  0  0.995715  0
H  H17  1  0.22728929  0.90392096  0.30395458  1  0.06256  0  0.099502  0.11404  0  0.980088  0
H  H18  1  0.47838235  0.80573055  0.47119192  1  0.074691  0  0.095204  0.109716  0  0.983327  0
H  H19  1  0.54255653  0.88278857  0.33362622  1  0.07193  0  0.090816  0.104447  0  1.013162  0
H  H20  1  0.37097176  0.04883660  0.33794981  1  0.071657  0  0.094579  0.108382  0  0.9988  0
H  H21  1  0.30529042  0.97304814  0.47602608  1  0.068442  0  0.099833  0.114388  0  0.973595  0
H  H22  1  0.85206051  0.75029017  0.00407751  1  0.02971  0  0.096332  0.113745  0  0.986239  0
H  H23  1  0.77754509  0.66799475  0.12978584  1  0.087974  0  0.074869  0.095308  0  1.1017  0
H  H24  1  0.75058074  0.60137994  0.02371150  1  0.09441  0  0.100882  0.115693  0  0.9706  0
H  H25  1  0.79013221  0.70842230  0.90004104  1  0.04955  0  0.082941  0.10859  0  1.057581  0
H  H26  1  0.88015015  0.01692044  0.17513401  1  0.035712  0  0.091653  0.089654  0  0.977712  0
H  H27  1  0.01538553  0.00688504  0.14389088  1  0.018266  0  0.089961  0.085486  0  0.997324  0
H  H28  1  0.98686622  0.17190279  0.99336693  1  0.041781  0  0.086186  0.083275  0  1.004535  0
H  H29  1  0.86277039  0.16593336  0.01133344  1  0.05317  0  0.077489  0.074636  0  1.038313  0
H  H30  1  0.16541068  0.05237807  0.90174022  1  0.017111  0  0.089956  0.092358  0  0.990701  0
H  H31  1  0.17293430  0.99168571  0.82220047  1  0.009087  0  0.090277  0.089123  0  0.975146  0
H  H32  1  0.17750535  0.87824736  0.04498758  1  0.033334  0  0.092995  0.091982  0  1.005824  0
H  H33  1  0.15598670  0.82849901  0.97439510  1  0.011736  0  0.090268  0.085828  0  0.977945  0
H  H34  1  0.85003560  0.93899686  0.07999606  1  0.041243  0  0.0904  0.091864  0  0.981857  0
H  H35  1  0.95925600  0.84358271  0.01675599  1  0.026951  0  0.090818  0.091415  0  0.985168  0
H  H36  1  0.99411818  0.98464165  0.84419493  1  -0.002372  0  0.0843  0.083385  0  0.988351  0
H  H37  1  0.86765669  0.07289139  0.90092776  1  0.017531  0  0.077125  0.082705  0  1.036778  0
H  H38  1  0.50609118  0.42392213  0.76359828  1  0.039349  0  0.096153  0.113271  0  0.980367  0
H  H39  1  0.58200588  0.30561850  0.72279318  1  0.085052  0  0.094249  0.109079  0  1.001355  0
H  H40  1  0.40640206  0.30298801  0.73873680  1  0.058581  0  0.088023  0.103695  0  1.014162  0
H  H41  1  0.33202188  0.42541758  0.77217535  1  0.06034  0  0.090841  0.10639  0  0.998494  0
C  C42  1  0.69597901  0.49817331  0.80105114  1  1.571649  0  0.233876  0.650248  0  4.103888  0
C  C43  1  0.00764433  0.79464202  0.51084588  1  1.569547  0  0.233575  0.65183  0  4.095261  0
C  C44  1  0.30379060  0.50376929  0.20029885  1  1.573389  0  0.231262  0.650788  0  4.095722  0
C  C45  1  0.99866118  0.20070512  0.50143769  1  1.578876  0  0.234933  0.654022  0  4.097856  0
C  C46  1  0.00437428  0.18917853  0.79874743  1  1.527158  0  0.242012  0.640846  0  4.009029  0
C  C47  1  0.69213818  0.51989631  0.49548059  1  1.596078  0  0.235614  0.653673  0  4.094872  0
C  C48  1  0.00668728  0.80691811  0.18948894  1  1.547177  0  0.246029  0.643335  0  4.017781  0
C  C49  1  0.29623932  0.50225977  0.51161278  1  1.59946  0  0.232201  0.652102  0  4.102089  0
C  C50  1  0.99981774  0.48630363  0.81170358  1  1.588055  0  0.233421  0.650352  0  4.102857  0
C  C51  1  0.30187306  0.19834031  0.50459587  1  1.573249  0  0.231802  0.651495  0  4.111834  0
C  C52  1  0.01731151  0.51053242  0.18532003  1  1.577  0  0.234533  0.651224  0  4.100799  0
C  C53  1  0.70264068  0.80838250  0.49620702  1  1.580496  0  0.23471  0.65689  0  4.102613  0
C  C54  1  0.60166574  0.49032494  0.90715069  1  0.052959  0  -0.015757  -0.115958  0  3.937596  0
C  C55  1  0.40988079  0.49423268  0.10607105  1  0.078645  0  -0.015194  -0.112778  0  3.924504  0
C  C56  1  0.53340351  0.58523327  0.93489311  1  -0.005435  0  -0.004773  0.068925  0  3.899038  0
C  C57  1  0.48371187  0.39402321  0.08456240  1  -0.044232  0  -0.017531  0.031853  0  3.908222  0
C  C58  1  0.44058970  0.58782041  0.02872822  1  -0.065654  0  -0.007611  0.063775  0  3.88942  0
C  C59  1  0.57432391  0.39267094  0.98644489  1  -0.060744  0  -0.017816  0.029774  0  3.912624  0
C  C60  1  0.51488917  0.70773304  0.89481172  1  0.005778  0  -0.147855  -0.193138  0  3.860371  0
C  C61  1  0.40816547  0.71160152  0.99917579  1  -0.034015  0  -0.151203  -0.192957  0  3.847483  0
C  C62  1  0.99629257  0.09767679  0.50903844  1  0.05631  0  -0.015041  -0.115716  0  3.93034  0
C  C63  1  0.00777025  0.89204639  0.51698643  1  0.066397  0  -0.017267  -0.116475  0  3.932179  0
C  C64  1  0.06480277  0.05560715  0.42312561  1  -0.070877  0  -0.004676  0.067532  0  3.887452  0
C  C65  1  0.94357091  0.92923802  0.60832373  1  -0.069263  0  -0.023281  0.028797  0  3.922923  0
C  C66  1  0.06753104  0.95951224  0.42525983  1  -0.010214  0  -0.005207  0.068692  0  3.891105  0
C  C67  1  0.93073052  0.03302158  0.60169813  1  -0.025513  0  -0.015595  0.035929  0  3.896719  0
C  C68  1  0.14593094  0.07988525  0.30690377  1  -0.046301  0  -0.153286  -0.200514  0  3.876075  0
C  C69  1  0.14817319  0.97165711  0.30909290  1  -0.013928  0  -0.149232  -0.191699  0  3.861181  0
C  C70  1  0.60806583  0.91493197  0.49034528  1  0.061753  0  -0.015484  -0.111029  0  3.948807  0
C  C71  1  0.41012213  0.10706932  0.49510040  1  0.006775  0  -0.018211  -0.115099  0  3.959239  0
C  C72  1  0.52475839  0.93345921  0.45885543  1  -0.023678  0  -0.006132  0.06877  0  3.895477  0
C  C73  1  0.49817533  0.09500204  0.51817191  1  -0.025581  0  -0.019576  0.030031  0  3.923831  0
C  C74  1  0.42949405  0.02571069  0.46138056  1  0.006044  0  -0.009867  0.06253  0  3.900383  0
C  C75  1  0.59435406  0.00130716  0.51618949  1  -0.060384  0  -0.019361  0.031938  0  3.922962  0
C  C76  1  0.48989922  0.88670725  0.41636335  1  -0.053348  0  -0.153391  -0.197441  0  3.869637  0
C  C77  1  0.38172440  0.99123836  0.41928584  1  -0.051178  0  -0.149346  -0.190237  0  3.847949  0
C  C78  1  0.02585324  0.50395644  0.08385315  1  0.044016  0  -0.016015  -0.116402  0  3.927638  0
C  C79  1  0.00512125  0.47861624  0.91351187  1  0.087413  0  -0.01548  -0.116644  0  3.930462  0
C  C80  1  0.93979515  0.57273512  0.04012209  1  -0.045226  0  -0.004657  0.074909  0  3.905294  0
C  C81  1  0.09251977  0.40410393  0.95940836  1  -0.072223  0  -0.015257  0.035097  0  3.893765  0
C  C82  1  0.92727928  0.55830215  0.96194453  1  -0.039718  0  -0.005727  0.069233  0  3.895629  0
C  C83  1  0.10641186  0.42040574  0.03690870  1  -0.031641  0  -0.01679  0.032232  0  3.900011  0
C  C84  1  0.83589576  0.67129557  0.04718717  1  0.000205  0  -0.161873  -0.204823  0  3.871922  0
C  C85  1  0.81261794  0.64294620  0.97378059  1  -0.057837  0  -0.154875  -0.198819  0  3.844398  0
C  C86  1  0.96056088  0.01288851  0.11029747  1  -0.031857  0  -0.153942  -0.163853  0  3.83531  0
C  C87  1  0.94952113  0.11783556  0.00446196  1  -0.063942  0  -0.160181  -0.168846  0  3.830928  0
C  C88  1  0.00718768  0.08351813  0.90125768  1  0.053337  0  -0.016371  0.022052  0  3.790597  0
C  C89  1  0.12578751  0.00814408  0.90017924  1  0.002744  0  -0.160911  -0.171862  0  3.86553  0
C  C90  1  0.12474397  0.89839872  0.00106893  1  -0.022734  0  -0.161235  -0.180684  0  3.873698  0
C  C91  1  0.00739568  0.90751747  0.08243982  1  0.041381  0  -0.015324  0.018986  0  3.801611  0
C  C92  1  0.93566198  0.92193989  0.02588693  1  -0.037246  0  -0.164244  -0.174766  0  3.878023  0
C  C93  1  0.94778341  0.01714545  0.91224690  1  0.026761  0  -0.169482  -0.184098  0  3.89013  0
C  C94  1  0.58902704  0.52420124  0.49604956  1  -0.004273  0  -0.01647  -0.120322  0  3.935208  0
C  C95  1  0.39894627  0.50579667  0.50343456  1  0.00781  0  -0.016589  -0.111528  0  3.927985  0
C  C96  1  0.52700272  0.46041228  0.59050251  1  0.0223  0  -0.002377  0.075795  0  3.87901  0
C  C97  1  0.46505347  0.56528523  0.40437958  1  -0.030643  0  -0.018455  0.032372  0  3.917931  0
C  C98  1  0.43327158  0.45562344  0.59558132  1  0.009711  0  -0.007102  0.069667  0  3.870383  0
C  C99  1  0.55026600  0.58252746  0.40375378  1  -0.089411  0  -0.017833  0.028663  0  3.927762  0
C  C100  1  0.51608620  0.38627113  0.71080549  1  -0.010948  0  -0.1508  -0.192755  0  3.855507  0
C  C101  1  0.40761198  0.38462182  0.71781709  1  -0.018436  0  -0.1561  -0.200177  0  3.865769  0
Br  Br102  1  0.46814454  0.25572611  0.19539436  1  -0.015661  0  0.040166  -0.037361  0  1.684505  0
Br  Br103  1  0.66342875  0.25450025  0.96439622  1  -0.024191  0  0.053183  -0.024865  0  1.665519  0
Br  Br104  1  0.88103003  0.83380091  0.74791049  1  -0.003447  0  0.056132  -0.034553  0  1.831613  0
Br  Br105  1  0.81892242  0.08300122  0.72001558  1  -0.004741  0  0.057403  -0.019366  0  1.663084  0
Br  Br106  1  0.49055960  0.21328590  0.54083402  1  -0.018382  0  0.040502  -0.035194  0  1.638004  0
Br  Br107  1  0.71247743  0.99482238  0.53902952  1  -0.0222  0  0.030031  -0.050482  0  1.64247  0
Br  Br108  1  0.18604391  0.27037081  0.92885227  1  -0.013088  0  0.060241  -0.019332  0  1.610343  0
Br  Br109  1  0.24104949  0.33424208  0.06898953  1  -0.004773  0  0.049828  -0.026607  0  1.631715  0
Br  Br110  1  0.44908656  0.61294353  0.26568451  1  -0.015738  0  0.041693  -0.053493  0  1.706473  0
Br  Br111  1  0.60735538  0.69142542  0.27524205  1  -0.008082  0  0.079513  -0.004687  0  1.754508  0
O  O112  1  0.73273282  0.42851752  0.75550189  1  -1.179749  0  -0.355434  -0.621484  0  2.366228  0
O  O113  1  0.07966837  0.76570648  0.42780080  1  -1.162527  0  -0.339785  -0.591316  0  2.249442  0
O  O114  1  0.26503546  0.58377121  0.23367421  1  -1.171875  0  -0.342081  -0.607233  0  2.257226  0
O  O115  1  0.92227152  0.24633940  0.57159406  1  -1.184468  0  -0.365654  -0.627023  0  2.420243  0
O  O116  1  0.07857287  0.23040055  0.76179513  1  -1.183219  0  -0.360764  -0.621892  0  2.310476  0
O  O117  1  0.73643121  0.59322829  0.41850720  1  -1.186735  0  -0.360194  -0.631145  0  2.371644  0
O  O118  1  0.92924364  0.76839458  0.23161919  1  -1.183244  0  -0.361787  -0.625579  0  2.322704  0
O  O119  1  0.26148172  0.42276960  0.58947980  1  -1.173007  0  -0.335956  -0.594961  0  2.260533  0
O  O120  1  0.92070406  0.56520471  0.77606345  1  -1.175121  0  -0.340361  -0.602563  0  2.256201  0
O  O121  1  0.25826444  0.23358306  0.43186976  1  -1.17129  0  -0.350945  -0.614055  0  2.293681  0
O  O122  1  0.08412789  0.43039790  0.23702819  1  -1.181814  0  -0.370817  -0.620678  0  2.429169  0
O  O123  1  0.73713863  0.76107420  0.57851093  1  -1.174462  0  -0.356164  -0.620511  0  2.321316  0
O  O124  1  0.26014697  0.23227360  0.58429011  1  -1.175355  0  -0.350032  -0.611081  0  2.325531  0
O  O125  1  0.93959960  0.58990654  0.21775263  1  -1.172227  0  -0.331839  -0.59426  0  2.215645  0
O  O126  1  0.73877906  0.77227709  0.41910317  1  -1.16555  0  -0.341569  -0.595065  0  2.243993  0
O  O127  1  0.07705290  0.41785662  0.76416631  1  -1.190741  0  -0.366077  -0.622609  0  2.416651  0
O  O128  1  0.92734804  0.23218690  0.75849001  1  -1.184254  0  -0.353101  -0.620973  0  2.308291  0
O  O129  1  0.24972068  0.58185112  0.43981749  1  -1.182629  0  -0.36671  -0.626109  0  2.401552  0
O  O130  1  0.08070278  0.76874911  0.23226523  1  -1.186306  0  -0.353506  -0.622278  0  2.262757  0
O  O131  1  0.72997462  0.43866615  0.57300760  1  -1.173779  0  -0.340082  -0.592945  0  2.258291  0
O  O132  1  0.07772766  0.23561243  0.42505924  1  -1.171349  0  -0.338325  -0.594565  0  2.227774  0
O  O133  1  0.73232847  0.57642701  0.76373574  1  -1.161932  0  -0.341601  -0.599211  0  2.246141  0
O  O134  1  0.93337173  0.75155516  0.58409673  1  -1.189731  0  -0.362762  -0.634823  0  2.416705  0
O  O135  1  0.25872552  0.43260446  0.23844612  1  -1.174071  0  -0.356758  -0.62073  0  2.396818  0
O  O136  1  0.93291072  0.44183762  0.42788872  1  -1.233421  0  -0.692249  -1.06798  0  2.353252  0
O  O137  1  0.20183645  0.43421260  0.43707609  1  -1.231865  0  -0.689516  -1.061366  0  2.343391  0
O  O138  1  0.93509278  0.70546679  0.43248939  1  -1.228196  0  -0.690211  -1.062114  0  2.360767  0
O  O139  1  0.93107312  0.43094037  0.70233377  1  -1.216595  0  -0.695954  -1.068176  0  2.374801  0
O  O140  1  0.04809268  0.54841090  0.55239776  1  -1.197879  0  -0.789417  -1.143271  0  2.128324  0
O  O141  1  0.85355118  0.55417153  0.54590215  1  -1.19249  0  -0.790086  -1.146459  0  2.130705  0
O  O142  1  0.05107076  0.55443930  0.35176009  1  -1.199533  0  -0.790846  -1.1469  0  2.132122  0
O  O143  1  0.04804299  0.35361344  0.55032362  1  -1.200796  0  -0.793567  -1.152698  0  2.135795  0
