# generated using pymatgen
data_RbH2C5N3O5
_symmetry_space_group_name_H-M   'P 1'
_cell_length_a   4.06145074
_cell_length_b   13.69074007
_cell_length_c   14.72060058
_cell_angle_alpha   90.00002137
_cell_angle_beta   90.00002098
_cell_angle_gamma   93.17955090
_symmetry_Int_Tables_number   1
_chemical_formula_structural   RbH2C5N3O5
_chemical_formula_sum   'Rb4 H8 C20 N12 O20'
_cell_volume   817.26817328
_cell_formula_units_Z   4
loop_
 _symmetry_equiv_pos_site_id
 _symmetry_equiv_pos_as_xyz
  1  'x, y, z'
loop_
 _atom_site_type_symbol
 _atom_site_label
 _atom_site_symmetry_multiplicity
 _atom_site_fract_x
 _atom_site_fract_y
 _atom_site_fract_z
 _atom_site_occupancy
 _atom_site_hle17_bader_spin_density
 _atom_site_hle17_ddec_charge
 _atom_site_hle17_ddec_spin_density
 _atom_site_hle17_ddec_sum_bond_order
 _atom_site_hle17_magmom
 _atom_site_hse06_10hf_bader_spin_density
 _atom_site_hse06_10hf_ddec_charge
 _atom_site_hse06_10hf_ddec_spin_density
 _atom_site_hse06_10hf_ddec_sum_bond_order
 _atom_site_hse06_10hf_magmom
 _atom_site_hse06_bader_spin_density
 _atom_site_hse06_ddec_charge
 _atom_site_hse06_ddec_spin_density
 _atom_site_hse06_ddec_sum_bond_order
 _atom_site_hse06_magmom
 _atom_site_pbe_bader_spin_density
 _atom_site_pbe_cm5_charge
 _atom_site_pbe_ddec_charge
 _atom_site_pbe_ddec_spin_density
 _atom_site_pbe_ddec_sum_bond_order
 _atom_site_pbe_magmom
Rb  Rb0  1  0.92737213  0.30712637  0.92609615  1  0  0.920339  0  0.534305  0  0  0.851609  0  0.774416  0  0  0.86853  0  0.749485  0  0  0.821127  0.839235  0  0.792081  0
Rb  Rb1  1  0.07263139  0.19287404  0.42609610  1  0  0.92034  0  0.534309  0  0  0.851617  0  0.774401  0  0  0.868536  0  0.74947  0  0  0.821138  0.839248  0  0.792065  0
Rb  Rb2  1  0.07262791  0.69287428  0.07390336  1  0  0.920333  0  0.534312  0  0  0.85161  0  0.774411  0  0  0.868531  0  0.749479  0  0  0.821136  0.839236  0  0.792075  0
Rb  Rb3  1  0.92737111  0.80712661  0.57390340  1  0  0.920322  0  0.534325  0  0  0.851601  0  0.774413  0  0  0.868523  0  0.74948  0  0  0.821132  0.839235  0  0.792079  0
H  H4  1  0.45629823  0.27713412  0.23330305  1  0  0.107594  0  0.945823  0  0  0.108025  0  1.018162  0  0  0.11199  0  1.012888  0  0  0.127832  0.105078  0  1.022005  0
H  H5  1  0.54370009  0.22286620  0.73330303  1  0  0.107592  0  0.945834  0  0  0.108029  0  1.018164  0  0  0.111995  0  1.012889  0  0  0.127831  0.105083  0  1.022006  0
H  H6  1  0.54370194  0.72286726  0.76669713  1  0  0.107578  0  0.94582  0  0  0.108011  0  1.018161  0  0  0.111978  0  1.012885  0  0  0.127821  0.105064  0  1.02201  0
H  H7  1  0.45629735  0.77713372  0.26669716  1  0  0.107591  0  0.945817  0  0  0.108021  0  1.018164  0  0  0.111987  0  1.012888  0  0  0.127824  0.105076  0  1.022005  0
H  H8  1  0.78778121  0.45036785  0.44951303  1  0  0.092726  0  0.946934  0  0  0.09437  0  1.020044  0  0  0.098205  0  1.014543  0  0  0.121454  0.091554  0  1.024019  0
H  H9  1  0.21221741  0.04963257  0.94951291  1  0  0.092715  0  0.946915  0  0  0.094357  0  1.020025  0  0  0.098192  0  1.014524  0  0  0.121441  0.091541  0  1.024006  0
H  H10  1  0.21222129  0.54963280  0.55048716  1  0  0.092724  0  0.946918  0  0  0.094365  0  1.020029  0  0  0.098201  0  1.014528  0  0  0.121447  0.091547  0  1.024009  0
H  H11  1  0.78778002  0.95036735  0.05048660  1  0  0.092724  0  0.946926  0  0  0.094363  0  1.020037  0  0  0.098198  0  1.014537  0  0  0.121439  0.091544  0  1.024012  0
C  C12  1  0.52260233  0.34982408  0.26009613  1  0  0.122925  0  3.722098  0  0  0.081807  0  3.996881  0  0  0.096663  0  4.009686  0  0  0.054548  0.072409  0  3.987893  0
C  C13  1  0.47739836  0.15017553  0.76009608  1  0  0.122927  0  3.72212  0  0  0.081816  0  3.996885  0  0  0.096669  0  4.009689  0  0  0.054546  0.072424  0  3.98789  0
C  C14  1  0.47740003  0.65017584  0.73990405  1  0  0.12295  0  3.722086  0  0  0.081821  0  3.996854  0  0  0.096673  0  4.009658  0  0  0.054561  0.072427  0  3.987869  0
C  C15  1  0.52260154  0.84982439  0.23990343  1  0  0.122964  0  3.722081  0  0  0.081846  0  3.996848  0  0  0.0967  0  4.009653  0  0  0.054602  0.072453  0  3.987853  0
C  C16  1  0.49264856  0.43082610  0.20459026  1  0  -0.100671  0  3.621632  0  0  -0.116601  0  3.876446  0  0  -0.133285  0  3.899235  0  0  0.064508  -0.106124  0  3.861462  0
C  C17  1  0.50735231  0.06917494  0.70459018  1  0  -0.100702  0  3.621597  0  0  -0.116615  0  3.876405  0  0  -0.133287  0  3.899181  0  0  0.064495  -0.106148  0  3.861435  0
C  C18  1  0.50735380  0.56917381  0.79540993  1  0  -0.100699  0  3.621657  0  0  -0.1166  0  3.876437  0  0  -0.133272  0  3.89921  0  0  0.064507  -0.106128  0  3.861462  0
C  C19  1  0.49264786  0.93082644  0.29541001  1  0  -0.100737  0  3.621656  0  0  -0.116651  0  3.876465  0  0  -0.133326  0  3.899242  0  0  0.064471  -0.106179  0  3.861493  0
C  C20  1  0.58047936  0.53066735  0.23389751  1  0  0.367639  0  3.897452  0  0  0.341254  0  4.176963  0  0  0.366272  0  4.185035  0  0  0.122606  0.32475  0  4.170862  0
C  C21  1  0.41951961  0.96933215  0.73389620  1  0  0.367716  0  3.89752  0  0  0.341338  0  4.177019  0  0  0.366349  0  4.185099  0  0  0.122664  0.324837  0  4.170917  0
C  C22  1  0.41952067  0.46933330  0.76610268  1  0  0.367682  0  3.897535  0  0  0.341288  0  4.177056  0  0  0.366303  0  4.185128  0  0  0.122626  0.324778  0  4.170957  0
C  C23  1  0.58048029  0.03066777  0.26610331  1  0  0.367641  0  3.897585  0  0  0.341259  0  4.177096  0  0  0.366274  0  4.185169  0  0  0.122629  0.324747  0  4.171009  0
C  C24  1  0.69977767  0.53018499  0.32743106  1  0  -0.110797  0  3.621852  0  0  -0.123937  0  3.884437  0  0  -0.140483  0  3.908276  0  0  0.058205  -0.113535  0  3.868677  0
C  C25  1  0.30022143  0.96981455  0.82743110  1  0  -0.110841  0  3.621937  0  0  -0.123993  0  3.884535  0  0  -0.140541  0  3.908378  0  0  0.058179  -0.113585  0  3.868767  0
C  C26  1  0.30022223  0.46981493  0.67256912  1  0  -0.110879  0  3.621821  0  0  -0.124028  0  3.884432  0  0  -0.140576  0  3.908272  0  0  0.058157  -0.113618  0  3.868657  0
C  C27  1  0.69977847  0.03018537  0.17256841  1  0  -0.110772  0  3.621887  0  0  -0.123933  0  3.884495  0  0  -0.140482  0  3.908338  0  0  0.05819  -0.113529  0  3.868731  0
C  C28  1  0.70333885  0.44540568  0.37924687  1  0  0.126657  0  3.739409  0  0  0.08721  0  4.012598  0  0  0.101913  0  4.025711  0  0  0.055584  0.077897  0  4.003319  0
C  C29  1  0.29665954  0.05459397  0.87924744  1  0  0.126714  0  3.739397  0  0  0.087279  0  4.01258  0  0  0.101984  0  4.025693  0  0  0.055611  0.077962  0  4.003303  0
C  C30  1  0.29666118  0.55459497  0.62075264  1  0  0.126706  0  3.739305  0  0  0.087259  0  4.012494  0  0  0.101963  0  4.025606  0  0  0.055612  0.077948  0  4.003206  0
C  C31  1  0.70333790  0.94540595  0.12075275  1  0  0.126636  0  3.739418  0  0  0.087205  0  4.012603  0  0  0.10191  0  4.025716  0  0  0.055589  0.077899  0  4.003312  0
N  N32  1  0.61958573  0.35541497  0.34738945  1  0  -0.385565  0  3.116117  0  0  -0.349705  0  3.40605  0  0  -0.369833  0  3.420534  0  0  -0.408652  -0.33597  0  3.395504  0
N  N33  1  0.38041261  0.14458466  0.84738938  1  0  -0.385597  0  3.116107  0  0  -0.349734  0  3.40604  0  0  -0.369862  0  3.420524  0  0  -0.408654  -0.335992  0  3.395485  0
N  N34  1  0.38041417  0.64458494  0.65261073  1  0  -0.385529  0  3.116133  0  0  -0.349678  0  3.406067  0  0  -0.369806  0  3.420553  0  0  -0.408631  -0.335943  0  3.395519  0
N  N35  1  0.61958482  0.85541525  0.15261080  1  0  -0.385528  0  3.116105  0  0  -0.349672  0  3.406033  0  0  -0.369801  0  3.420519  0  0  -0.408628  -0.335935  0  3.395478  0
N  N36  1  0.37284035  0.41255656  0.11398117  1  0  0.512334  0  3.957161  0  0  0.576197  0  4.19377  0  0  0.600353  0  4.200162  0  0  0.038413  0.559966  0  4.189564  0
N  N37  1  0.62716012  0.08744298  0.61398111  1  0  0.512408  0  3.957111  0  0  0.576224  0  4.193774  0  0  0.600376  0  4.200167  0  0  0.03841  0.559986  0  4.189577  0
N  N38  1  0.62715954  0.58744336  0.88601901  1  0  0.512323  0  3.957201  0  0  0.576182  0  4.193787  0  0  0.600334  0  4.20018  0  0  0.038402  0.559948  0  4.18959  0
N  N39  1  0.37284224  0.91255694  0.38601839  1  0  0.512392  0  3.957161  0  0  0.576208  0  4.193814  0  0  0.600361  0  4.200207  0  0  0.038399  0.559974  0  4.189615  0
N  N40  1  0.82644542  0.61968248  0.36989470  1  0  0.505499  0  3.947752  0  0  0.548777  0  4.223778  0  0  0.571494  0  4.232927  0  0  0.0519  0.533552  0  4.217629  0
N  N41  1  0.17355374  0.88031708  0.86989402  1  0  0.505429  0  3.948001  0  0  0.548713  0  4.224029  0  0  0.571432  0  4.233179  0  0  0.051926  0.533486  0  4.217881  0
N  N42  1  0.17355448  0.38031744  0.63010616  1  0  0.50546  0  3.947921  0  0  0.54875  0  4.223946  0  0  0.571469  0  4.233094  0  0  0.051945  0.533526  0  4.217793  0
N  N43  1  0.82644370  0.11968284  0.13010481  1  0  0.505484  0  3.947817  0  0  0.54876  0  4.223852  0  0  0.571478  0  4.233002  0  0  0.051928  0.533538  0  4.217697  0
O  O44  1  0.45374674  0.33627813  0.07478915  1  0  -0.433325  0  1.806505  0  0  -0.43205  0  2.02581  0  0  -0.445641  0  2.019757  0  0  -0.21971  -0.42297  0  2.030121  0
O  O45  1  0.54625382  0.16372212  0.57478978  1  0  -0.433324  0  1.806471  0  0  -0.432042  0  2.025783  0  0  -0.445634  0  2.019731  0  0  -0.219697  -0.422956  0  2.030093  0
O  O46  1  0.54625563  0.66372179  0.92521036  1  0  -0.433264  0  1.806523  0  0  -0.432026  0  2.025819  0  0  -0.445617  0  2.019767  0  0  -0.219696  -0.422945  0  2.030134  0
O  O47  1  0.45374608  0.83627780  0.42521040  1  0  -0.433308  0  1.806482  0  0  -0.432052  0  2.0258  0  0  -0.445645  0  2.019748  0  0  -0.219712  -0.422964  0  2.030107  0
O  O48  1  0.18961015  0.47163669  0.07833181  1  0  -0.376435  0  1.793113  0  0  -0.374078  0  2.000028  0  0  -0.384951  0  1.994797  0  0  -0.163288  -0.366766  0  2.00374  0
O  O49  1  0.81038795  0.02836356  0.57833175  1  0  -0.376477  0  1.793142  0  0  -0.374113  0  2.000089  0  0  -0.384986  0  1.994858  0  0  -0.16329  -0.366794  0  2.003804  0
O  O50  1  0.81039234  0.52836396  0.92166837  1  0  -0.376466  0  1.793119  0  0  -0.374095  0  2.000061  0  0  -0.384969  0  1.994831  0  0  -0.163294  -0.366778  0  2.003774  0
O  O51  1  0.18961195  0.97163636  0.42166776  1  0  -0.376478  0  1.793131  0  0  -0.374083  0  2.000068  0  0  -0.384956  0  1.994837  0  0  -0.163281  -0.366768  0  2.003784  0
O  O52  1  0.55910771  0.60548110  0.18562096  1  0  -0.596159  0  2.044203  0  0  -0.566927  0  2.298689  0  0  -0.590841  0  2.293987  0  0  -0.43385  -0.549773  0  2.301106  0
O  O53  1  0.44089146  0.89451984  0.68562098  1  0  -0.59619  0  2.044326  0  0  -0.56695  0  2.298818  0  0  -0.590861  0  2.294117  0  0  -0.433867  -0.549799  0  2.301243  0
O  O54  1  0.44089232  0.39451955  0.81437923  1  0  -0.59619  0  2.044263  0  0  -0.566933  0  2.298779  0  0  -0.590847  0  2.294077  0  0  -0.433857  -0.549777  0  2.301198  0
O  O55  1  0.55911090  0.10548008  0.31437852  1  0  -0.596167  0  2.044355  0  0  -0.56693  0  2.298845  0  0  -0.590842  0  2.294143  0  0  -0.433859  -0.549773  0  2.301271  0
O  O56  1  0.96767831  0.68359159  0.32171191  1  0  -0.34276  0  1.773397  0  0  -0.330355  0  1.98167  0  0  -0.340392  0  1.976858  0  0  -0.115722  -0.323509  0  1.985051  0
O  O57  1  0.03232571  0.81640794  0.82171118  1  0  -0.342669  0  1.773552  0  0  -0.330285  0  1.981822  0  0  -0.340325  0  1.97701  0  0  -0.115692  -0.323434  0  1.985203  0
O  O58  1  0.03232392  0.31640759  0.67828964  1  0  -0.342733  0  1.773484  0  0  -0.330303  0  1.981764  0  0  -0.340341  0  1.976951  0  0  -0.115705  -0.323456  0  1.985146  0
O  O59  1  0.96767652  0.18359124  0.17828696  1  0  -0.342742  0  1.773492  0  0  -0.330305  0  1.981724  0  0  -0.34034  0  1.97691  0  0  -0.115698  -0.323456  0  1.9851  0
O  O60  1  0.79475807  0.62737116  0.45429615  1  0  -0.409997  0  1.761972  0  0  -0.395596  0  1.976119  0  0  -0.409994  0  1.971738  0  0  -0.174972  -0.385809  0  1.979169  0
O  O61  1  0.20523875  0.87262843  0.95429614  1  0  -0.41004  0  1.762029  0  0  -0.395635  0  1.976194  0  0  -0.410033  0  1.971813  0  0  -0.175034  -0.385844  0  1.979243  0
O  O62  1  0.20523678  0.37262802  0.54570403  1  0  -0.409989  0  1.762018  0  0  -0.395626  0  1.976176  0  0  -0.410024  0  1.971793  0  0  -0.175027  -0.385841  0  1.979225  0
O  O63  1  0.79475609  0.12737076  0.04570268  1  0  -0.410039  0  1.76198  0  0  -0.395642  0  1.976143  0  0  -0.41004  0  1.971762  0  0  -0.175019  -0.385852  0  1.979192  0
