# generated using pymatgen
data_CdH16C12S2(NO4)2
_symmetry_space_group_name_H-M   'P 1'
_cell_length_a   5.71582699
_cell_length_b   7.24209365
_cell_length_c   19.14993059
_cell_angle_alpha   97.42016339
_cell_angle_beta   90.00072487
_cell_angle_gamma   90.00053682
_symmetry_Int_Tables_number   1
_chemical_formula_structural   CdH16C12S2(NO4)2
_chemical_formula_sum   'Cd2 H32 C24 S4 N4 O16'
_cell_volume   786.06457160
_cell_formula_units_Z   2
loop_
 _symmetry_equiv_pos_site_id
 _symmetry_equiv_pos_as_xyz
  1  'x, y, z'
loop_
 _atom_site_type_symbol
 _atom_site_label
 _atom_site_symmetry_multiplicity
 _atom_site_fract_x
 _atom_site_fract_y
 _atom_site_fract_z
 _atom_site_occupancy
 _atom_site_hle17_bader_spin_density
 _atom_site_hle17_ddec_charge
 _atom_site_hle17_ddec_spin_density
 _atom_site_hle17_ddec_sum_bond_order
 _atom_site_hle17_magmom
 _atom_site_hse06_10hf_bader_spin_density
 _atom_site_hse06_10hf_ddec_charge
 _atom_site_hse06_10hf_ddec_spin_density
 _atom_site_hse06_10hf_ddec_sum_bond_order
 _atom_site_hse06_10hf_magmom
 _atom_site_hse06_bader_spin_density
 _atom_site_hse06_ddec_charge
 _atom_site_hse06_ddec_spin_density
 _atom_site_hse06_ddec_sum_bond_order
 _atom_site_hse06_magmom
 _atom_site_pbe_bader_spin_density
 _atom_site_pbe_cm5_charge
 _atom_site_pbe_ddec_charge
 _atom_site_pbe_ddec_spin_density
 _atom_site_pbe_ddec_sum_bond_order
 _atom_site_pbe_magmom
Cd  Cd0  1  0.99999703  0.00000011  0.00000023  1  0  1.216752  0  1.554719  0  0  1.0426  0  1.987698  0  0  1.091406  0  1.937355  0  0  0.780635  1.007877  0  2.022162  0
Cd  Cd1  1  0.50000126  0.50000410  0.50000008  1  0  1.21674  0  1.554743  0  0  1.042579  0  1.987739  0  0  1.091392  0  1.937382  0  0  0.780637  1.007858  0  2.022201  0
H  H2  1  0.66103647  0.21787490  0.57453666  1  0  0.326152  0  0.903686  0  0  0.314058  0  0.960271  0  0  0.320957  0  0.954885  0  0  0.299858  0.309119  0  0.964135  0
H  H3  1  0.83897481  0.71786239  0.07453871  1  0  0.32618  0  0.903613  0  0  0.314074  0  0.960247  0  0  0.320982  0  0.954831  0  0  0.299809  0.309146  0  0.96408  0
H  H4  1  0.33896955  0.78212646  0.42546052  1  0  0.32612  0  0.903723  0  0  0.31402  0  0.960322  0  0  0.320927  0  0.954916  0  0  0.299849  0.309083  0  0.964185  0
H  H5  1  0.16101897  0.28213048  0.92546114  1  0  0.326088  0  0.903747  0  0  0.314018  0  0.960293  0  0  0.320917  0  0.95491  0  0  0.29982  0.309081  0  0.964151  0
H  H6  1  0.89922819  0.34203471  0.56087489  1  0  0.315317  0  0.931026  0  0  0.301315  0  0.98995  0  0  0.308773  0  0.984295  0  0  0.288376  0.295944  0  0.994034  0
H  H7  1  0.60077878  0.84202837  0.06088008  1  0  0.315384  0  0.930908  0  0  0.301358  0  0.989853  0  0  0.308812  0  0.984205  0  0  0.288399  0.295987  0  0.993939  0
H  H8  1  0.10077608  0.65796939  0.43912349  1  0  0.315351  0  0.930947  0  0  0.301353  0  0.989864  0  0  0.308811  0  0.984206  0  0  0.288369  0.295982  0  0.993949  0
H  H9  1  0.39922025  0.15797687  0.93912410  1  0  0.315416  0  0.930829  0  0  0.301356  0  0.98983  0  0  0.308811  0  0.984181  0  0  0.288392  0.295985  0  0.993915  0
H  H10  1  0.39497100  0.30795286  0.67484810  1  0  0.105466  0  0.970156  0  0  0.114377  0  1.0328  0  0  0.117064  0  1.032985  0  0  0.102322  0.112382  0  1.032983  0
H  H11  1  0.10503304  0.80793807  0.17485598  1  0  0.105448  0  0.970189  0  0  0.114357  0  1.032838  0  0  0.117044  0  1.033021  0  0  0.102326  0.11236  0  1.033025  0
H  H12  1  0.60503152  0.69203734  0.32514898  1  0  0.105445  0  0.970187  0  0  0.114362  0  1.03284  0  0  0.117048  0  1.033027  0  0  0.102327  0.112368  0  1.033023  0
H  H13  1  0.89496948  0.19205606  0.82514706  1  0  0.105444  0  0.970207  0  0  0.114366  0  1.032835  0  0  0.117054  0  1.033016  0  0  0.102311  0.112369  0  1.033023  0
H  H14  1  0.40641992  0.41810441  0.80268544  1  0  0.102423  0  0.963428  0  0  0.111219  0  1.02602  0  0  0.113938  0  1.025062  0  0  0.105025  0.109194  0  1.026911  0
H  H15  1  0.09357538  0.91810344  0.30269404  1  0  0.102446  0  0.963288  0  0  0.111227  0  1.025907  0  0  0.113943  0  1.024955  0  0  0.105073  0.109203  0  1.026794  0
H  H16  1  0.59357561  0.58188723  0.19731068  1  0  0.102432  0  0.963393  0  0  0.111235  0  1.025976  0  0  0.113954  0  1.025016  0  0  0.105053  0.109208  0  1.026867  0
H  H17  1  0.90641315  0.08190057  0.69730642  1  0  0.102447  0  0.963357  0  0  0.111251  0  1.025962  0  0  0.113971  0  1.025004  0  0  0.10508  0.109225  0  1.026849  0
H  H18  1  0.08406859  0.66285933  0.77824850  1  0  0.103102  0  0.956134  0  0  0.112561  0  1.018735  0  0  0.114712  0  1.018676  0  0  0.105466  0.110919  0  1.019011  0
H  H19  1  0.41594520  0.16286333  0.27824095  1  0  0.10316  0  0.956194  0  0  0.112543  0  1.018859  0  0  0.114695  0  1.018797  0  0  0.105463  0.110901  0  1.019136  0
H  H20  1  0.91592868  0.33713338  0.22175499  1  0  0.103117  0  0.956137  0  0  0.112567  0  1.018749  0  0  0.114718  0  1.018689  0  0  0.105476  0.110926  0  1.019025  0
H  H21  1  0.58405732  0.83715056  0.72175692  1  0  0.103141  0  0.956149  0  0  0.112512  0  1.01883  0  0  0.114663  0  1.018767  0  0  0.105505  0.110871  0  1.019106  0
H  H22  1  0.07349268  0.55168881  0.65028868  1  0  0.113539  0  0.980563  0  0  0.121207  0  1.044408  0  0  0.124786  0  1.042899  0  0  0.102069  0.118604  0  1.045661  0
H  H23  1  0.42652284  0.05168580  0.15028391  1  0  0.113552  0  0.980547  0  0  0.12124  0  1.044357  0  0  0.124812  0  1.04287  0  0  0.102092  0.118651  0  1.04559  0
H  H24  1  0.92650809  0.44830949  0.34971460  1  0  0.113538  0  0.980503  0  0  0.121222  0  1.044337  0  0  0.12479  0  1.04286  0  0  0.102072  0.118633  0  1.045568  0
H  H25  1  0.57349018  0.94832255  0.84971313  1  0  0.113602  0  0.980429  0  0  0.12126  0  1.044277  0  0  0.124826  0  1.042804  0  0  0.102092  0.118639  0  1.045548  0
H  H26  1  0.62586791  0.26808598  0.02505090  1  0  0.437433  0  0.862743  0  0  0.407504  0  0.923477  0  0  0.418206  0  0.908053  0  0  0.295802  0.399935  0  0.934375  0
H  H27  1  0.87413307  0.76808900  0.52505100  1  0  0.437457  0  0.862715  0  0  0.407521  0  0.923463  0  0  0.418223  0  0.90804  0  0  0.295804  0.399952  0  0.934362  0
H  H28  1  0.37412412  0.73191385  0.97494933  1  0  0.437457  0  0.862717  0  0  0.407525  0  0.923459  0  0  0.418228  0  0.908035  0  0  0.295822  0.399955  0  0.93436  0
H  H29  1  0.12587121  0.23191503  0.47494894  1  0  0.437472  0  0.862692  0  0  0.407535  0  0.923439  0  0  0.418238  0  0.908014  0  0  0.295812  0.399966  0  0.934338  0
H  H30  1  0.76773868  0.30537421  0.95781158  1  0  0.421789  0  0.885916  0  0  0.387986  0  0.954879  0  0  0.398736  0  0.939368  0  0  0.292114  0.380389  0  0.965818  0
H  H31  1  0.73225558  0.80537761  0.45781151  1  0  0.421777  0  0.885924  0  0  0.38798  0  0.954878  0  0  0.398732  0  0.939361  0  0  0.29211  0.380387  0  0.965811  0
H  H32  1  0.23224985  0.69462147  0.04218790  1  0  0.421758  0  0.885932  0  0  0.387966  0  0.954879  0  0  0.398716  0  0.939365  0  0  0.292106  0.380371  0  0.965814  0
H  H33  1  0.26774694  0.19462918  0.54218910  1  0  0.421762  0  0.885949  0  0  0.387974  0  0.954889  0  0  0.398725  0  0.939374  0  0  0.292122  0.380379  0  0.965826  0
C  C34  1  0.73524046  0.41932239  0.65430205  1  0  0.306232  0  3.765262  0  0  0.301109  0  4.012188  0  0  0.31133  0  4.031958  0  0  0.091775  0.294144  0  3.998665  0
C  C35  1  0.76475934  0.91932741  0.15430323  1  0  0.306081  0  3.765172  0  0  0.300924  0  4.012187  0  0  0.311144  0  4.03196  0  0  0.091732  0.293959  0  3.998667  0
C  C36  1  0.26476206  0.58067322  0.34569899  1  0  0.306148  0  3.765334  0  0  0.300986  0  4.012335  0  0  0.311208  0  4.032107  0  0  0.091769  0.29402  0  3.998815  0
C  C37  1  0.23524669  0.08068356  0.84569761  1  0  0.306116  0  3.765337  0  0  0.300938  0  4.01237  0  0  0.31116  0  4.03214  0  0  0.09173  0.293973  0  3.998844  0
C  C38  1  0.54642862  0.38454608  0.69740073  1  0  -0.156688  0  3.695052  0  0  -0.17302  0  3.945787  0  0  -0.179616  0  3.966477  0  0  -0.094747  -0.168758  0  3.93202  0
C  C39  1  0.95357789  0.88454293  0.19740266  1  0  -0.156652  0  3.69508  0  0  -0.172964  0  3.94582  0  0  -0.17956  0  3.966508  0  0  -0.094765  -0.168706  0  3.932058  0
C  C40  1  0.45357390  0.61545371  0.30260054  1  0  -0.156616  0  3.694902  0  0  -0.172951  0  3.945649  0  0  -0.179549  0  3.966339  0  0  -0.094748  -0.168691  0  3.931885  0
C  C41  1  0.04642813  0.11546240  0.80259944  1  0  -0.156746  0  3.695043  0  0  -0.173079  0  3.94583  0  0  -0.179675  0  3.966517  0  0  -0.094804  -0.168819  0  3.932067  0
C  C42  1  0.55279362  0.44537886  0.76918611  1  0  -0.051761  0  3.772548  0  0  -0.076794  0  4.022432  0  0  -0.074495  0  4.043074  0  0  -0.085708  -0.078009  0  4.00836  0
C  C43  1  0.94719582  0.94537566  0.26918801  1  0  -0.051654  0  3.772558  0  0  -0.076684  0  4.022453  0  0  -0.074386  0  4.0431  0  0  -0.085679  -0.077898  0  4.008378  0
C  C44  1  0.44720366  0.55461684  0.23081285  1  0  -0.051703  0  3.772459  0  0  -0.076731  0  4.02235  0  0  -0.074431  0  4.042987  0  0  -0.085675  -0.077948  0  4.00828  0
C  C45  1  0.05280495  0.05462710  0.73080924  1  0  -0.051678  0  3.772378  0  0  -0.076702  0  4.022306  0  0  -0.074407  0  4.04296  0  0  -0.085685  -0.077914  0  4.008228  0
C  C46  1  0.74790224  0.54332655  0.79829209  1  0  -0.162161  0  3.792819  0  0  -0.136578  0  4.042753  0  0  -0.1465  0  4.065622  0  0  -0.030647  -0.130056  0  4.027121  0
C  C47  1  0.75210098  0.04333163  0.29829132  1  0  -0.162285  0  3.792875  0  0  -0.13669  0  4.042784  0  0  -0.146609  0  4.065645  0  0  -0.030707  -0.130175  0  4.027171  0
C  C48  1  0.25210028  0.45666209  0.20170857  1  0  -0.16222  0  3.79295  0  0  -0.136655  0  4.042905  0  0  -0.146581  0  4.065789  0  0  -0.03076  -0.130134  0  4.027274  0
C  C49  1  0.24790329  0.95667099  0.70170906  1  0  -0.162117  0  3.792766  0  0  -0.136594  0  4.042753  0  0  -0.146514  0  4.065615  0  0  -0.030645  -0.130079  0  4.027134  0
C  C50  1  0.93429103  0.58372168  0.75554384  1  0  -0.03807  0  3.752171  0  0  -0.063364  0  4.002873  0  0  -0.060385  0  4.023076  0  0  -0.082342  -0.065057  0  3.989126  0
C  C51  1  0.56571432  0.08372945  0.25554047  1  0  -0.038069  0  3.752194  0  0  -0.063303  0  4.002893  0  0  -0.060321  0  4.02309  0  0  -0.082332  -0.064996  0  3.989152  0
C  C52  1  0.06571675  0.41626832  0.24445793  1  0  -0.038097  0  3.752247  0  0  -0.063365  0  4.002929  0  0  -0.060383  0  4.023127  0  0  -0.082334  -0.065059  0  3.989187  0
C  C53  1  0.43429171  0.91628711  0.74446016  1  0  -0.038115  0  3.752378  0  0  -0.063327  0  4.003117  0  0  -0.060342  0  4.023313  0  0  -0.082377  -0.065017  0  3.989362  0
C  C54  1  0.92734343  0.52199790  0.68361430  1  0  -0.175103  0  3.691392  0  0  -0.190741  0  3.941823  0  0  -0.197716  0  3.961683  0  0  -0.098047  -0.186189  0  3.928724  0
C  C55  1  0.57266497  0.02199861  0.18361422  1  0  -0.175116  0  3.691425  0  0  -0.190749  0  3.941878  0  0  -0.19773  0  3.961737  0  0  -0.098062  -0.186203  0  3.928771  0
C  C56  1  0.07265559  0.47799639  0.31638510  1  0  -0.175113  0  3.691386  0  0  -0.190761  0  3.941859  0  0  -0.197741  0  3.961716  0  0  -0.09805  -0.186214  0  3.928749  0
C  C57  1  0.42734455  0.97800824  0.81638535  1  0  -0.175137  0  3.691385  0  0  -0.190727  0  3.941802  0  0  -0.197706  0  3.961653  0  0  -0.098079  -0.186158  0  3.928713  0
S  S58  1  0.75944630  0.60648213  0.89049929  1  0  1.325861  0  5.606096  0  0  1.222407  0  6.124949  0  0  1.270831  0  6.100266  0  0  0.522917  1.188986  0  6.140969  0
S  S59  1  0.74053553  0.10648430  0.39049884  1  0  1.326024  0  5.605872  0  0  1.222561  0  6.124715  0  0  1.270985  0  6.100035  0  0  0.522944  1.189146  0  6.14073  0
S  S60  1  0.24054048  0.39351350  0.10950123  1  0  1.325734  0  5.606239  0  0  1.222297  0  6.125083  0  0  1.270719  0  6.100406  0  0  0.522874  1.18888  0  6.141101  0
S  S61  1  0.25946175  0.89351973  0.60950110  1  0  1.325954  0  5.60558  0  0  1.222578  0  6.124389  0  0  1.271002  0  6.099708  0  0  0.523015  1.189164  0  6.1404  0
N  N62  1  0.73171137  0.34950676  0.58133215  1  0  -0.690867  0  3.081963  0  0  -0.635483  0  3.316411  0  0  -0.65749  0  3.312925  0  0  -0.605915  -0.619847  0  3.318481  0
N  N63  1  0.76830009  0.84949508  0.08133295  1  0  -0.69087  0  3.081695  0  0  -0.635477  0  3.316229  0  0  -0.65748  0  3.312747  0  0  -0.605861  -0.619835  0  3.31831  0
N  N64  1  0.26829290  0.65049454  0.41866659  1  0  -0.690805  0  3.081943  0  0  -0.635407  0  3.316388  0  0  -0.65741  0  3.312904  0  0  -0.60588  -0.619771  0  3.318459  0
N  N65  1  0.23170419  0.15050343  0.91866564  1  0  -0.690813  0  3.081793  0  0  -0.635397  0  3.31638  0  0  -0.657405  0  3.312889  0  0  -0.60587  -0.619758  0  3.318458  0
O  O66  1  0.86421122  0.79439077  0.90225449  1  0  -0.702622  0  2.0452  0  0  -0.636104  0  2.32159  0  0  -0.66006  0  2.305707  0  0  -0.345142  -0.619167  0  2.332004  0
O  O67  1  0.63578396  0.29439048  0.40225771  1  0  -0.702579  0  2.045207  0  0  -0.636069  0  2.321603  0  0  -0.660025  0  2.305724  0  0  -0.345093  -0.619134  0  2.332017  0
O  O68  1  0.13578431  0.20560494  0.09774446  1  0  -0.702529  0  2.045292  0  0  -0.636059  0  2.321723  0  0  -0.660015  0  2.305842  0  0  -0.345104  -0.619126  0  2.33214  0
O  O69  1  0.36422556  0.70562043  0.59774469  1  0  -0.702563  0  2.045107  0  0  -0.636105  0  2.321514  0  0  -0.660061  0  2.305631  0  0  -0.345168  -0.619171  0  2.331929  0
O  O70  1  0.51600170  0.59882966  0.91467275  1  0  -0.663456  0  1.975718  0  0  -0.609368  0  2.217846  0  0  -0.629655  0  2.202434  0  0  -0.338024  -0.595183  0  2.228242  0
O  O71  1  0.98398285  0.09882536  0.41467648  1  0  -0.663614  0  1.975663  0  0  -0.609502  0  2.217764  0  0  -0.629787  0  2.20235  0  0  -0.338059  -0.595314  0  2.228157  0
O  O72  1  0.48398858  0.40117159  0.08532703  1  0  -0.663463  0  1.975686  0  0  -0.609366  0  2.217786  0  0  -0.629653  0  2.202377  0  0  -0.337998  -0.595176  0  2.22817  0
O  O73  1  0.01600918  0.90117022  0.58532508  1  0  -0.663571  0  1.975611  0  0  -0.609445  0  2.217648  0  0  -0.629727  0  2.202237  0  0  -0.338026  -0.595257  0  2.228036  0
O  O74  1  0.90847089  0.46816090  0.91983472  1  0  -0.683028  0  2.005611  0  0  -0.623881  0  2.250948  0  0  -0.645265  0  2.235674  0  0  -0.338647  -0.608768  0  2.261104  0
O  O75  1  0.59151147  0.96816045  0.41983132  1  0  -0.683062  0  2.005509  0  0  -0.623907  0  2.250845  0  0  -0.645299  0  2.235578  0  0  -0.338708  -0.608809  0  2.261012  0
O  O76  1  0.09151588  0.53183467  0.08016737  1  0  -0.682974  0  2.00569  0  0  -0.623818  0  2.25103  0  0  -0.645203  0  2.235754  0  0  -0.338665  -0.608722  0  2.261196  0
O  O77  1  0.40848581  0.03183952  0.58016578  1  0  -0.683055  0  2.005478  0  0  -0.623934  0  2.250785  0  0  -0.645345  0  2.235561  0  0  -0.338728  -0.608833  0  2.260951  0
O  O78  1  0.69821755  0.20182234  0.98102904  1  0  -0.841999  0  1.88086  0  0  -0.769733  0  2.068796  0  0  -0.793867  0  2.037116  0  0  -0.576809  -0.752545  0  2.090672  0
O  O79  1  0.80178170  0.70182499  0.48102813  1  0  -0.841973  0  1.880782  0  0  -0.769751  0  2.06875  0  0  -0.793888  0  2.037068  0  0  -0.576818  -0.752561  0  2.090623  0
O  O80  1  0.30177448  0.79817608  0.01897164  1  0  -0.841955  0  1.880775  0  0  -0.769719  0  2.068716  0  0  -0.793854  0  2.037038  0  0  -0.576814  -0.75253  0  2.090593  0
O  O81  1  0.19822257  0.29818044  0.51897188  1  0  -0.841955  0  1.880792  0  0  -0.769724  0  2.068745  0  0  -0.793859  0  2.037065  0  0  -0.576821  -0.752533  0  2.090619  0
