# generated using pymatgen
data_Zn2H9C20N2Cl3O8
_symmetry_space_group_name_H-M   'P 1'
_cell_length_a   7.35014306
_cell_length_b   9.11519131
_cell_length_c   12.20762083
_cell_angle_alpha   113.22599891
_cell_angle_beta   102.16350136
_cell_angle_gamma   77.58039882
_symmetry_Int_Tables_number   1
_chemical_formula_structural   Zn2H9C20N2Cl3O8
_chemical_formula_sum   'Zn2 H9 C20 N2 Cl3 O8'
_cell_volume   726.75575486
_cell_formula_units_Z   1
loop_
 _symmetry_equiv_pos_site_id
 _symmetry_equiv_pos_as_xyz
  1  'x, y, z'
loop_
 _atom_site_type_symbol
 _atom_site_label
 _atom_site_symmetry_multiplicity
 _atom_site_fract_x
 _atom_site_fract_y
 _atom_site_fract_z
 _atom_site_occupancy
 _atom_site_pbe_bader_charge
 _atom_site_pbe_bader_spin_density
 _atom_site_pbe_cm5_charge
 _atom_site_pbe_ddec_charge
 _atom_site_pbe_ddec_spin_density
 _atom_site_pbe_ddec_sum_bond_order
 _atom_site_pbe_magmom
Zn  Zn0  1  0.80904335  0.57508078  0.50739479  1  1.305283  0  0.68315  0.853664  0  2.36643  0
Zn  Zn1  1  0.18791713  0.42263744  0.46181249  1  1.294327  0  0.682336  0.847055  0  2.324437  0
H  H2  1  0.11401506  0.31304685  0.06652701  1  0.114848  0  0.108345  0.116137  0  0.98906  0
H  H3  1  0.59057997  0.34829643  0.48896882  1  0.477409  0  0.308113  0.256278  0  0.976084  0
H  H4  1  0.40652196  0.64400942  0.48190461  1  0.502857  0  0.309925  0.26856  0  0.971832  0
H  H5  1  0.78624753  0.54539346  0.78332049  1  0.092237  0  0.107606  0.133313  0  1.014656  0
H  H6  1  0.99835626  0.37973783  0.88099073  1  0.071902  0  0.104796  0.11108  0  0.984532  0
H  H7  1  0.58812995  0.53768500  0.19508509  1  0.108778  0  0.086204  0.094474  0  1.110931  0
H  H8  1  0.89033334  0.79796512  0.89328841  1  0.110641  0  0.109558  0.117453  0  1.004935  0
H  H9  1  0.98961638  0.81338088  0.10637668  1  0.09867  0  0.110472  0.127003  0  0.97844  0
H  H10  1  0.15676861  0.94097266  0.43371819  1  0.135893  0  0.108606  0.14015  0  1.02251  0
C  C11  1  0.00502605  0.78097722  0.46567952  1  1.592642  0  0.211076  0.65468  0  4.156743  0
C  C12  1  0.16643794  0.69915098  0.84464621  1  -0.006764  0  -0.023537  -0.089732  0  3.95373  0
C  C13  1  0.03283423  0.93881982  0.46862951  1  0.111781  0  -0.091864  -0.258943  0  3.87515  0
C  C14  1  0.09588994  0.64115949  0.71230346  1  1.585324  0  0.208693  0.588971  0  4.179494  0
C  C15  1  0.92537438  0.08237135  0.51438832  1  -0.049125  0  0.015954  0.044653  0  3.958354  0
C  C16  1  0.97277008  0.23336388  0.51018523  1  1.620861  0  0.214818  0.583884  0  4.176354  0
C  C17  1  0.92215017  0.40326270  0.25793946  1  1.547137  0  0.213007  0.597078  0  4.154748  0
C  C18  1  0.90788066  0.41258112  0.94986536  1  -0.047474  0  -0.08799  -0.129919  0  3.985259  0
C  C19  1  0.85292402  0.42338205  0.13994390  1  -0.019678  0  -0.020886  -0.029385  0  3.974788  0
C  C20  1  0.03627779  0.76105491  0.92494912  1  -0.084166  0  -0.077637  -0.062938  0  3.984305  0
C  C21  1  0.09070643  0.76533685  0.04260783  1  0.078314  0  -0.095616  -0.15263  0  4.01534  0
C  C22  1  0.41234415  0.63251370  0.99985483  1  0.036203  0  0.001082  -0.017353  0  3.876204  0
C  C23  1  0.26906958  0.69365597  0.07684432  1  0.025214  0  0.025386  0.109446  0  3.978  0
C  C24  1  0.35870113  0.65807993  0.88770971  1  0.040786  0  0.001957  0.026145  0  3.933585  0
C  C25  1  0.60166209  0.54742447  0.02188789  1  -0.011958  0  -0.004722  0.03624  0  3.921788  0
C  C26  1  0.72684416  0.50041868  0.93397049  1  -0.064896  0  -0.003102  0.091673  0  4.000504  0
C  C27  1  0.67951820  0.55927161  0.83783028  1  0.083079  0  -0.093375  -0.202891  0  3.990249  0
C  C28  1  0.50643586  0.64457533  0.82172546  1  -0.006232  0  0.018748  0.116226  0  4.024881  0
C  C29  1  0.67204859  0.50512976  0.12386181  1  -0.026655  0  -0.087571  -0.134644  0  3.935584  0
C  C30  1  0.97234732  0.37533205  0.05170578  1  0.008193  0  -0.082276  -0.089052  0  3.998199  0
N  N31  1  0.47310500  0.43122818  0.47648222  1  -0.424605  0  -0.25016  -0.11433  0  3.176761  0
N  N32  1  0.52523146  0.55922087  0.49029797  1  -0.429192  0  -0.254306  -0.138768  0  3.237113  0
Cl  Cl33  1  0.72766407  0.11004105  0.57882133  1  -0.172453  0  0.018578  -0.017155  0  1.563203  0
Cl  Cl34  1  0.29684693  0.68612801  0.21943087  1  -0.201097  0  0.037866  -0.028049  0  1.62093  0
Cl  Cl35  1  0.47326425  0.76693698  0.73826791  1  -0.181965  0  0.025424  -0.034795  0  1.60983  0
O  O36  1  0.83866635  0.75776321  0.46136714  1  -1.146518  0  -0.315463  -0.53284  0  2.315283  0
O  O37  1  0.15326367  0.67810013  0.46751166  1  -1.183213  0  -0.313148  -0.586705  0  2.320662  0
O  O38  1  0.92673059  0.69350101  0.67835218  1  -1.16274  0  -0.31664  -0.542994  0  2.3438  0
O  O39  1  0.20450689  0.52991316  0.64413270  1  -1.173922  0  -0.32048  -0.564476  0  2.423603  0
O  O40  1  0.85402593  0.36068265  0.54433855  1  -1.181238  0  -0.313572  -0.570712  0  2.427459  0
O  O41  1  0.12492993  0.22041510  0.47153528  1  -1.147928  0  -0.305354  -0.502996  0  2.28199  0
O  O42  1  0.80202114  0.42698949  0.32711911  1  -1.180232  0  -0.332862  -0.574218  0  2.335048  0
O  O43  1  0.10032583  0.37108476  0.28552467  1  -1.14033  0  -0.321143  -0.538639  0  2.295337  0
