# generated using pymatgen
data_CuH9C10(NO)4
_symmetry_space_group_name_H-M   'P 1'
_cell_length_a   8.12065744
_cell_length_b   7.92752661
_cell_length_c   11.93162597
_cell_angle_alpha   76.55456883
_cell_angle_beta   85.60493066
_cell_angle_gamma   61.52935984
_symmetry_Int_Tables_number   1
_chemical_formula_structural   CuH9C10(NO)4
_chemical_formula_sum   'Cu2 H18 C20 N8 O8'
_cell_volume   656.19126802
_cell_formula_units_Z   2
loop_
 _symmetry_equiv_pos_site_id
 _symmetry_equiv_pos_as_xyz
  1  'x, y, z'
loop_
 _atom_site_type_symbol
 _atom_site_label
 _atom_site_symmetry_multiplicity
 _atom_site_fract_x
 _atom_site_fract_y
 _atom_site_fract_z
 _atom_site_occupancy
 _atom_site_hle17_ddec_charge
 _atom_site_hle17_ddec_spin_density
 _atom_site_hle17_ddec_sum_bond_order
 _atom_site_hle17_magmom
 _atom_site_hse06_10hf_ddec_charge
 _atom_site_hse06_10hf_ddec_spin_density
 _atom_site_hse06_10hf_ddec_sum_bond_order
 _atom_site_hse06_10hf_magmom
 _atom_site_hse06_ddec_charge
 _atom_site_hse06_ddec_spin_density
 _atom_site_hse06_ddec_sum_bond_order
 _atom_site_hse06_magmom
 _atom_site_pbe_cm5_charge
 _atom_site_pbe_ddec_charge
 _atom_site_pbe_ddec_spin_density
 _atom_site_pbe_ddec_sum_bond_order
 _atom_site_pbe_magmom
Cu  Cu0  1  0.94424402  0.98997117  0.22994534  1  0.846232  0.712455  1.885921  0.514  0.826234  0.807897  2.288911  0.638  0.915798  0.885985  2.220875  0.726  0.734615  0.767854  0.730605  2.337292  0.564
Cu  Cu1  1  0.05577398  0.01000786  0.77004387  1  0.845894  -0.712443  1.886378  -0.514  0.82599  -0.807873  2.289167  -0.638  0.915474  -0.885962  2.221301  -0.726  0.734592  0.767647  -0.730583  2.337563  -0.564
H  H2  1  0.32635294  0.77624373  0.59560741  1  0.319245  0.000412  0.921735  0.001  0.298407  0.000418  0.988634  0.001  0.307924  0.000358  0.979622  0.0  0.309574  0.291272  0.000489  0.995698  0.001
H  H3  1  0.67365488  0.22375041  0.40439012  1  0.319247  -0.00041  0.921776  -0.001  0.298402  -0.000418  0.988685  -0.001  0.307921  -0.000358  0.97967  0.0  0.309553  0.291264  -0.000489  0.995743  -0.001
H  H4  1  0.30353255  0.33944391  0.27885128  1  0.321882  0.000389  0.874058  0.001  0.310258  0.00035  0.919807  0.0  0.31803  0.00027  0.913823  0.0  0.328832  0.304488  0.000404  0.924534  0.0
H  H5  1  0.69644488  0.66056927  0.72115648  1  0.321955  -0.000389  0.873937  -0.001  0.310353  -0.00035  0.919684  0.0  0.318119  -0.00027  0.913692  0.0  0.328816  0.304586  -0.000404  0.924418  0.0
H  H6  1  0.56278791  0.73252153  0.39210113  1  0.104804  -0.000472  0.944377  -0.001  0.117186  -0.000167  1.010259  0.0  0.119654  -0.000138  1.009261  0.0  0.099665  0.115574  -0.000183  1.010898  0.0
H  H7  1  0.43721750  0.26749277  0.60790078  1  0.104734  0.000463  0.944336  0.001  0.117117  0.000167  1.010242  0.0  0.11958  0.000137  1.009243  0.0  0.099652  0.115511  0.000183  1.010884  0.0
H  H8  1  0.47335614  0.83291303  0.24823412  1  0.133616  -0.000354  0.897884  0.0  0.152499  -0.000109  0.945152  0.0  0.155963  -9e-05  0.943141  0.0  0.113834  0.149699  -0.000118  0.946993  0.0
H  H9  1  0.52663189  0.16711887  0.75177175  1  0.133573  0.000343  0.897858  0.0  0.152433  0.000109  0.945165  0.0  0.155906  9e-05  0.943136  0.0  0.113789  0.149639  0.000118  0.947005  0.0
H  H10  1  0.31858907  0.05252867  0.44322964  1  0.100408  -0.000256  0.921685  0.0  0.107602  -0.000109  0.985328  0.0  0.110147  -0.000104  0.984369  0.0  0.115107  0.105822  -0.000107  0.985973  0.0
H  H11  1  0.68139748  0.94748915  0.55678091  1  0.10032  0.000252  0.921803  0.0  0.107551  0.000109  0.985394  0.0  0.110096  0.000104  0.984436  0.0  0.115081  0.105773  0.000107  0.986032  0.0
H  H12  1  0.17225837  0.54743400  0.63940829  1  0.113352  0.000394  0.965599  0.0  0.122678  0.000382  1.026541  0.0  0.125293  0.000298  1.025855  0.0  0.123982  0.120665  0.000439  1.027249  0.001
H  H13  1  0.82775309  0.45256027  0.36059072  1  0.113279  -0.000397  0.965658  -0.001  0.122597  -0.000382  1.026626  0.0  0.12521  -0.000297  1.025942  0.0  0.123954  0.120581  -0.000439  1.027326  -0.001
H  H14  1  0.96198221  0.64593194  0.43716943  1  0.105328  -5e-05  0.979901  0.0  0.114408  0.000183  1.042576  0.001  0.116537  0.00013  1.042361  0.0  0.115506  0.112753  0.000226  1.042916  0.001
H  H15  1  0.03803185  0.35405619  0.56282903  1  0.105298  4.5e-05  0.980024  0.0  0.114346  -0.000183  1.042744  -0.001  0.116472  -0.00013  1.042536  0.0  0.115501  0.112694  -0.000227  1.043083  -0.001
H  H16  1  0.83226117  0.43384209  0.09272415  1  0.121006  -6.1e-05  0.943456  0.0  0.131066  0.000119  0.997479  0.0  0.134401  7.2e-05  0.995732  0.0  0.124385  0.128159  0.000162  0.999366  0.001
H  H17  1  0.16772345  0.56613649  0.90729209  1  0.120896  5.8e-05  0.943646  0.0  0.131098  -0.000118  0.997502  0.0  0.134438  -7.2e-05  0.995746  0.0  0.124377  0.128152  -0.000161  0.99943  -0.001
H  H18  1  0.04606797  0.61022159  0.13015642  1  0.121332  0.000395  0.979368  0.001  0.130771  0.000324  1.039138  0.0  0.133578  0.000242  1.037549  0.0  0.123962  0.12817  0.000377  1.04096  0.001
H  H19  1  0.95389105  0.38978248  0.86985584  1  0.121403  -0.000395  0.979182  -0.001  0.130835  -0.000324  1.038979  0.0  0.133646  -0.000242  1.037383  0.0  0.123962  0.128232  -0.000377  1.040799  -0.001
C  C20  1  0.61412812  0.96951160  0.30885043  1  0.700123  -0.002899  3.825065  -0.006  0.658551  0.000209  4.135675  -0.001  0.694591  -0.000246  4.128109  -0.001  0.20936  0.633909  0.000601  4.140247  -0.001
C  C21  1  0.38588469  0.03048824  0.69114651  1  0.700122  0.002891  3.824843  0.006  0.658641  -0.000208  4.135337  0.001  0.694672  0.000248  4.12777  0.001  0.209543  0.634012  -0.000601  4.139915  0.001
C  C22  1  0.48792085  0.87190177  0.32813619  1  -0.269606  0.007365  3.609885  0.008  -0.314824  0.004056  3.857095  0.004  -0.320126  0.002678  3.862255  0.003  -0.156967  -0.311043  0.005111  3.853646  0.005
C  C23  1  0.51207854  0.12811790  0.67186996  1  -0.269457  -0.007333  3.60945  -0.008  -0.3147  -0.004056  3.856693  -0.004  -0.319989  -0.002681  3.861825  -0.003  -0.157002  -0.310923  -0.005113  3.853255  -0.005
C  C24  1  0.29346236  0.99603105  0.37389370  1  -0.12489  0.001851  3.728421  0.003  -0.13535  0.001434  3.965959  0.002  -0.139882  0.000986  3.978589  0.002  -0.062727  -0.132302  0.001783  3.957076  0.002
C  C25  1  0.70654144  0.00396944  0.62611451  1  -0.124798  -0.001841  3.728162  -0.003  -0.1353  -0.001435  3.965871  -0.002  -0.139842  -0.000986  3.978506  -0.002  -0.062668  -0.132253  -0.001784  3.95699  -0.002
C  C26  1  0.20620404  0.86905268  0.42716862  1  0.35783  -0.003353  3.653004  -0.003  0.334194  -0.000352  3.917845  -0.001  0.351549  -0.001231  3.933066  -0.002  0.223582  0.322824  0.000489  3.907385  0.0
C  C27  1  0.79380372  0.13094726  0.57283698  1  0.357752  0.003325  3.652722  0.003  0.333966  0.000351  3.917748  0.001  0.351323  0.00123  3.93296  0.002  0.223419  0.322597  -0.000491  3.907296  0.0
C  C28  1  0.16083385  0.64551156  0.55665754  1  -0.005643  0.004375  3.710103  0.004  -0.045112  0.00232  3.978077  0.002  -0.042744  0.00188  3.995562  0.002  -0.002055  -0.04674  0.002644  3.966651  0.003
C  C29  1  0.83918168  0.35447900  0.44333783  1  -0.005646  -0.004357  3.709907  -0.004  -0.045139  -0.00232  3.97787  -0.002  -0.042773  -0.001881  3.995363  -0.002  -0.002069  -0.04675  -0.002644  3.96642  -0.003
C  C30  1  0.05690839  0.69546300  0.45743450  1  -0.021139  0.001181  3.754837  0.001  -0.053628  0.001707  4.030459  0.001  -0.050569  0.000866  4.050498  0.001  -0.015348  -0.055681  0.00223  4.017543  0.002
C  C31  1  0.94310601  0.30453011  0.54256712  1  -0.021102  -0.001174  3.7548  -0.001  -0.053599  -0.001708  4.030451  -0.001  -0.05054  -0.000865  4.050485  -0.001  -0.015351  -0.055649  -0.002231  4.01754  -0.002
C  C32  1  0.16932391  0.16984746  0.28333614  1  0.340227  -0.003351  3.698823  -0.003  0.313171  -0.00093  3.971425  -0.001  0.328869  -0.001628  3.988646  -0.002  0.218025  0.303206  -0.000361  3.959491  -0.001
C  C33  1  0.83066648  0.83015563  0.71666716  1  0.340399  0.003315  3.698712  0.003  0.313362  0.000932  3.971368  0.001  0.329041  0.001628  3.988586  0.002  0.218114  0.303407  0.000361  3.959441  0.001
C  C34  1  0.95218457  0.37936965  0.15037838  1  -0.017568  0.000615  3.743087  0.001  -0.045541  0.001327  4.011709  0.001  -0.043516  0.000659  4.031914  0.001  -0.007638  -0.047022  0.001669  3.999534  0.002
C  C35  1  0.04779516  0.62062051  0.84963486  1  -0.017514  -0.000613  3.742933  -0.001  -0.045624  -0.001328  4.011523  -0.001  -0.043602  -0.000659  4.031731  -0.001  -0.007657  -0.047058  -0.001669  3.99935  -0.002
C  C36  1  0.05545174  0.46768154  0.16720445  1  0.017262  0.004208  3.674834  0.004  -0.021726  0.002247  3.934709  0.002  -0.018245  0.0019  3.950752  0.002  0.00789  -0.024351  0.00251  3.924977  0.003
C  C37  1  0.94451659  0.53232110  0.83280090  1  0.017206  -0.004205  3.674703  -0.004  -0.02174  -0.002247  3.934578  -0.002  -0.018278  -0.0019  3.950624  -0.002  0.007904  -0.024346  -0.00251  3.924828  -0.003
C  C38  1  0.89907968  0.08906329  0.98993405  1  0.513428  -0.005297  3.922128  -0.009  0.48155  -0.000498  4.222745  -0.003  0.513992  -0.000475  4.22042  -0.003  0.193835  0.458552  -0.000372  4.223031  -0.003
C  C39  1  0.10092460  0.91092790  0.01004492  1  0.513213  0.005293  3.921143  0.009  0.481364  0.000499  4.22175  0.003  0.513805  0.000477  4.219412  0.003  0.19386  0.458339  0.000373  4.22207  0.003
N  N40  1  0.25387872  0.75590551  0.53592637  1  -0.327185  0.002629  3.401168  0.003  -0.266646  0.002339  3.633467  0.003  -0.283384  0.001786  3.64591  0.002  -0.376979  -0.255592  0.002623  3.625545  0.003
N  N41  1  0.74612947  0.24409059  0.46407410  1  -0.327179  -0.002631  3.400993  -0.003  -0.266514  -0.002338  3.633214  -0.003  -0.283255  -0.001786  3.64566  -0.002  -0.376864  -0.25545  -0.002624  3.625272  -0.003
N  N42  1  0.08594727  0.83518734  0.37762933  1  -0.39583  0.067312  3.285492  0.084  -0.35998  0.051283  3.598966  0.067  -0.390335  0.043022  3.614788  0.059  -0.378875  -0.341542  0.054185  3.590195  0.068
N  N43  1  0.91406071  0.16481507  0.62237322  1  -0.395736  -0.067285  3.285516  -0.083  -0.359801  -0.051271  3.598943  -0.067  -0.390135  -0.04301  3.614773  -0.059  -0.378841  -0.341376  -0.054169  3.590201  -0.068
N  N44  1  0.02534693  0.19358837  0.22282656  1  -0.421678  0.062278  3.323607  0.078  -0.38742  0.046091  3.642545  0.062  -0.417712  0.038859  3.660953  0.055  -0.37965  -0.369752  0.047947  3.632576  0.062
N  N45  1  0.97464458  0.80640328  0.77717988  1  -0.421675  -0.062261  3.323438  -0.078  -0.387441  -0.046097  3.642409  -0.062  -0.417717  -0.038863  3.660837  -0.055  -0.379639  -0.369777  -0.047955  3.632443  -0.062
N  N46  1  0.19064748  0.33384629  0.25091629  1  -0.31402  0.001299  3.418055  0.002  -0.250463  0.001258  3.644245  0.002  -0.265918  0.000906  3.656466  0.001  -0.37619  -0.240358  0.001379  3.636403  0.002
N  N47  1  0.80933277  0.66616323  0.74908787  1  -0.314105  -0.001293  3.418156  -0.002  -0.250649  -0.001258  3.644401  -0.002  -0.266059  -0.000906  3.656584  -0.001  -0.376198  -0.240545  -0.00138  3.636565  -0.002
O  O48  1  0.77048872  0.87122581  0.26555629  1  -0.594822  0.070438  2.051948  0.094  -0.567656  0.043848  2.330307  0.064  -0.606553  0.0335  2.321142  0.051  -0.325263  -0.541576  0.049656  2.336716  0.07
O  O49  1  0.22951907  0.12876823  0.73444968  1  -0.594887  -0.07047  2.051602  -0.094  -0.567795  -0.043866  2.329913  -0.064  -0.606681  -0.033513  2.32077  -0.051  -0.325407  -0.541709  -0.049672  2.336329  -0.07
O  O50  1  0.56180774  0.13033972  0.33910910  1  -0.648057  -0.000318  1.941322  0.0  -0.606844  -0.000599  2.170953  0.0  -0.630503  -0.000985  2.157617  -0.001  -0.324219  -0.590169  -0.000348  2.179991  0.0
O  O51  1  0.43821028  0.86968308  0.66087442  1  -0.648049  0.000327  1.941599  0.0  -0.606783  0.000599  2.171112  0.0  -0.630441  0.000987  2.157781  0.001  -0.324182  -0.590103  0.000349  2.180151  0.0
O  O52  1  0.80659933  0.13542919  0.07934008  1  -0.513972  0.097558  2.062559  0.129  -0.500864  0.061666  2.327089  0.089  -0.544265  0.046421  2.320769  0.071  -0.314909  -0.469034  0.06826  2.330234  0.095
O  O53  1  0.19342313  0.86453965  0.92063334  1  -0.513704  -0.097583  2.061276  -0.13  -0.500652  -0.061689  2.325827  -0.089  -0.544041  -0.046443  2.319523  -0.071  -0.314896  -0.468814  -0.068282  2.328979  -0.095
O  O54  1  0.16099668  0.82186999  0.11206232  1  -0.561554  -0.013822  1.997323  -0.017  -0.542415  -0.004803  2.237087  -0.006  -0.572464  -0.002209  2.22629  -0.002  -0.321376  -0.517727  -0.008015  2.242721  -0.01
O  O55  1  0.83901028  0.17814703  0.88791117  1  -0.561548  0.01385  1.997023  0.017  -0.54242  0.004809  2.236794  0.006  -0.572462  0.002211  2.226016  0.002  -0.321302  -0.517736  0.008026  2.242414  0.01
