# generated using pymatgen
data_CdH17C20N5O4
_symmetry_space_group_name_H-M   'P 1'
_cell_length_a   8.18550869
_cell_length_b   9.21660838
_cell_length_c   13.88649245
_cell_angle_alpha   92.77848442
_cell_angle_beta   97.43756792
_cell_angle_gamma   105.91536245
_symmetry_Int_Tables_number   1
_chemical_formula_structural   CdH17C20N5O4
_chemical_formula_sum   'Cd2 H34 C40 N10 O8'
_cell_volume   995.11816972
_cell_formula_units_Z   2
loop_
 _symmetry_equiv_pos_site_id
 _symmetry_equiv_pos_as_xyz
  1  'x, y, z'
loop_
 _atom_site_type_symbol
 _atom_site_label
 _atom_site_symmetry_multiplicity
 _atom_site_fract_x
 _atom_site_fract_y
 _atom_site_fract_z
 _atom_site_occupancy
 _atom_site_hle17_bader_spin_density
 _atom_site_hle17_ddec_charge
 _atom_site_hle17_ddec_spin_density
 _atom_site_hle17_ddec_sum_bond_order
 _atom_site_hle17_magmom
 _atom_site_hse06_10hf_bader_spin_density
 _atom_site_hse06_10hf_ddec_charge
 _atom_site_hse06_10hf_ddec_spin_density
 _atom_site_hse06_10hf_ddec_sum_bond_order
 _atom_site_hse06_10hf_magmom
 _atom_site_hse06_bader_spin_density
 _atom_site_hse06_ddec_charge
 _atom_site_hse06_ddec_spin_density
 _atom_site_hse06_ddec_sum_bond_order
 _atom_site_hse06_magmom
 _atom_site_pbe_bader_spin_density
 _atom_site_pbe_cm5_charge
 _atom_site_pbe_ddec_charge
 _atom_site_pbe_ddec_spin_density
 _atom_site_pbe_ddec_sum_bond_order
 _atom_site_pbe_magmom
Cd  Cd0  1  0.80078483  0.13340048  0.74625906  1  0  1.044654  0  1.732808  0  0  0.839019  0  2.180682  0  0  0.897927  0  2.130484  0  0  0.767246  0.797453  0  2.214458  0
Cd  Cd1  1  0.19921285  0.86660019  0.25374026  1  0  1.044604  0  1.732813  0  0  0.838933  0  2.180703  0  0  0.897846  0  2.130497  0  0  0.767202  0.797365  0  2.214476  0
H  H2  1  0.30247521  0.22658123  0.08219656  1  0  0.119278  0  0.976049  0  0  0.127111  0  1.039229  0  0  0.130963  0  1.036825  0  0  0.107171  0.124303  0  1.041478  0
H  H3  1  0.69752721  0.77341143  0.91780574  1  0  0.119307  0  0.976075  0  0  0.12715  0  1.039229  0  0  0.131  0  1.036828  0  0  0.107189  0.124337  0  1.041485  0
H  H4  1  0.53658365  0.45562147  0.16026600  1  0  0.095872  0  0.935447  0  0  0.110074  0  0.987973  0  0  0.112801  0  0.987265  0  0  0.105373  0.10842  0  0.987878  0
H  H5  1  0.46341535  0.54437576  0.83973691  1  0  0.095819  0  0.935442  0  0  0.110029  0  0.987965  0  0  0.112756  0  0.987257  0  0  0.105374  0.108376  0  0.987877  0
H  H6  1  0.81780001  0.52928126  0.10220604  1  0  0.111615  0  0.965701  0  0  0.119354  0  1.02756  0  0  0.123607  0  1.024589  0  0  0.100797  0.116239  0  1.030018  0
H  H7  1  0.18219804  0.47072052  0.89779551  1  0  0.111539  0  0.965749  0  0  0.11928  0  1.027609  0  0  0.123533  0  1.024639  0  0  0.100789  0.116167  0  1.030073  0
H  H8  1  0.86965722  0.39284279  0.95289544  1  0  0.115887  0  0.955371  0  0  0.127136  0  1.011262  0  0  0.130141  0  1.01025  0  0  0.108916  0.124877  0  1.012291  0
H  H9  1  0.13034601  0.60716350  0.04710595  1  0  0.115891  0  0.9554  0  0  0.127125  0  1.011303  0  0  0.130137  0  1.010278  0  0  0.108914  0.124865  0  1.012329  0
H  H10  1  0.16246504  0.97946520  0.99108494  1  0  0.132406  0  0.94635  0  0  0.14146  0  1.012124  0  0  0.144909  0  1.009792  0  0  0.121573  0.139049  0  1.013799  0
H  H11  1  0.83753255  0.02053890  0.00891162  1  0  0.132313  0  0.946411  0  0  0.141401  0  1.012151  0  0  0.144849  0  1.009823  0  0  0.121556  0.138988  0  1.013833  0
H  H12  1  0.17738524  0.85559829  0.89249486  1  0  0.109941  0  0.934669  0  0  0.121724  0  1.001737  0  0  0.123339  0  1.001605  0  0  0.121428  0.120376  0  1.002352  0
H  H13  1  0.82261650  0.14440348  0.10750410  1  0  0.109936  0  0.934711  0  0  0.121723  0  1.001784  0  0  0.123339  0  1.001652  0  0  0.121442  0.120378  0  1.002399  0
H  H14  1  0.51016636  0.81576738  0.76147155  1  0  0.070407  0  0.986666  0  0  0.070689  0  1.067393  0  0  0.072666  0  1.066021  0  0  0.11216  0.069196  0  1.068473  0
H  H15  1  0.48983559  0.18422757  0.23852935  1  0  0.070427  0  0.986671  0  0  0.070696  0  1.067417  0  0  0.072673  0  1.066045  0  0  0.11213  0.069204  0  1.068493  0
H  H16  1  0.33289236  0.57971229  0.66024838  1  0  0.10719  0  0.935341  0  0  0.121125  0  0.98627  0  0  0.124266  0  0.985336  0  0  0.112522  0.118709  0  0.987447  0
H  H17  1  0.66710504  0.42028382  0.33975364  1  0  0.107123  0  0.935464  0  0  0.121108  0  0.986331  0  0  0.124245  0  0.985402  0  0  0.112503  0.118691  0  0.987507  0
H  H18  1  0.35408502  0.56246482  0.47832540  1  0  0.093492  0  0.956616  0  0  0.102778  0  1.01956  0  0  0.10552  0  1.017675  0  0  0.105386  0.100904  0  1.020332  0
H  H19  1  0.64591030  0.43753244  0.52167650  1  0  0.093522  0  0.956619  0  0  0.102797  0  1.019563  0  0  0.105545  0  1.017666  0  0  0.105393  0.100918  0  1.020352  0
H  H20  1  0.55029281  0.76762962  0.41235775  1  0  0.130466  0  0.951654  0  0  0.140904  0  1.008862  0  0  0.144901  0  1.006063  0  0  0.114567  0.137978  0  1.010882  0
H  H21  1  0.44970043  0.23236880  0.58764188  1  0  0.130454  0  0.95171  0  0  0.140908  0  1.008898  0  0  0.144906  0  1.0061  0  0  0.114579  0.137986  0  1.010919  0
H  H22  1  0.73597779  0.93535573  0.36572300  1  0  0.123019  0  0.942531  0  0  0.131348  0  1.003664  0  0  0.135014  0  1.00141  0  0  0.114457  0.128597  0  1.005562  0
H  H23  1  0.26401006  0.06464502  0.63427485  1  0  0.123017  0  0.942563  0  0  0.131396  0  1.003633  0  0  0.13506  0  1.001378  0  0  0.114475  0.128646  0  1.005533  0
H  H24  1  0.95428493  0.14866903  0.31920845  1  0  0.09487  0  0.962827  0  0  0.106447  0  1.022661  0  0  0.108398  0  1.021571  0  0  0.109297  0.104789  0  1.023763  0
H  H25  1  0.04569828  0.85133630  0.68078847  1  0  0.094834  0  0.962803  0  0  0.106374  0  1.022677  0  0  0.108322  0  1.021593  0  0  0.109268  0.104714  0  1.023779  0
H  H26  1  0.11126920  0.36730730  0.44355687  1  0  0.101076  0  0.957766  0  0  0.114034  0  1.013991  0  0  0.116427  0  1.014321  0  0  0.107214  0.112455  0  1.013309  0
H  H27  1  0.88872025  0.63269456  0.55644258  1  0  0.101057  0  0.957827  0  0  0.114026  0  1.014036  0  0  0.116415  0  1.014369  0  0  0.107204  0.112445  0  1.013351  0
H  H28  1  0.03961891  0.35197558  0.61562126  1  0  0.081549  0  0.929043  0  0  0.091254  0  0.988979  0  0  0.094002  0  0.986618  0  0  0.118496  0.089223  0  0.99047  0
H  H29  1  0.96037444  0.64801943  0.38437897  1  0  0.081566  0  0.929057  0  0  0.091272  0  0.988999  0  0  0.094013  0  0.986646  0  0  0.118495  0.089241  0  0.990491  0
H  H30  1  0.78237740  0.66967496  0.72541219  1  0  0.122809  0  0.965464  0  0  0.140712  0  1.029163  0  0  0.142618  0  1.029564  0  0  0.087444  0.139482  0  1.0287  0
H  H31  1  0.21763183  0.33032335  0.27458723  1  0  0.12278  0  0.965411  0  0  0.140681  0  1.029135  0  0  0.142587  0  1.029536  0  0  0.087403  0.139445  0  1.028673  0
H  H32  1  0.99670397  0.67096364  0.77744596  1  0  0.119156  0  0.96103  0  0  0.138729  0  1.022469  0  0  0.140896  0  1.021651  0  0  0.090318  0.137105  0  1.023193  0
H  H33  1  0.00330355  0.32903696  0.22255196  1  0  0.119128  0  0.961077  0  0  0.138726  0  1.022497  0  0  0.140892  0  1.02168  0  0  0.090346  0.137101  0  1.023223  0
H  H34  1  0.82977636  0.63600706  0.84928116  1  0  0.133959  0  0.94805  0  0  0.155514  0  1.006444  0  0  0.157479  0  1.006372  0  0  0.098834  0.154205  0  1.006578  0
H  H35  1  0.17023438  0.36399579  0.15071709  1  0  0.13396  0  0.948186  0  0  0.155535  0  1.006551  0  0  0.157502  0  1.00648  0  0  0.098845  0.154221  0  1.006688  0
C  C36  1  0.45677326  0.18958144  0.97232670  1  0  0.098368  0  3.777994  0  0  0.069268  0  4.02758  0  0  0.072674  0  4.049777  0  0  0.104932  0.066973  0  4.013048  0
C  C37  1  0.54322933  0.81041918  0.02767516  1  0  0.09846  0  3.777912  0  0  0.069351  0  4.027478  0  0  0.072758  0  4.049674  0  0  0.104942  0.067062  0  4.012938  0
C  C38  1  0.42385626  0.26588427  0.05408167  1  0  -0.144189  0  3.739506  0  0  -0.162395  0  3.998674  0  0  -0.166409  0  4.01867  0  0  -0.090699  -0.161185  0  3.98797  0
C  C39  1  0.57614803  0.73411406  0.94592097  1  0  -0.144321  0  3.739449  0  0  -0.16254  0  3.998627  0  0  -0.166554  0  4.01862  0  0  -0.090737  -0.161322  0  3.987922  0
C  C40  1  0.55603127  0.39007481  0.09732301  1  0  -0.052118  0  3.747635  0  0  -0.069049  0  4.002202  0  0  -0.070101  0  4.024275  0  0  -0.08483  -0.067499  0  3.987676  0
C  C41  1  0.44397302  0.60992351  0.90268035  1  0  -0.051932  0  3.747491  0  0  -0.068866  0  4.002057  0  0  -0.069916  0  4.024128  0  0  -0.084791  -0.067318  0  3.987545  0
C  C42  1  0.71624173  0.43494290  0.06239343  1  0  -0.07829  0  3.752957  0  0  -0.096454  0  4.011377  0  0  -0.099483  0  4.033019  0  0  -0.093714  -0.09468  0  3.997846  0
C  C43  1  0.28375916  0.56506002  0.93760550  1  0  -0.078232  0  3.752921  0  0  -0.096389  0  4.011326  0  0  -0.099417  0  4.032971  0  0  -0.093706  -0.094622  0  3.997806  0
C  C44  1  0.74748017  0.35951428  0.98079331  1  0  -0.130664  0  3.723426  0  0  -0.147178  0  3.971186  0  0  -0.149782  0  3.992324  0  0  -0.087033  -0.145798  0  3.95753  0
C  C45  1  0.25252280  0.64048747  0.01920718  1  0  -0.130671  0  3.723463  0  0  -0.147169  0  3.971231  0  0  -0.149777  0  3.992362  0  0  -0.087032  -0.145785  0  3.957565  0
C  C46  1  0.61329094  0.23580304  0.93454825  1  0  0.118112  0  3.822684  0  0  0.114  0  4.077237  0  0  0.115197  0  4.100953  0  0  0.094236  0.113412  0  4.060594  0
C  C47  1  0.38671042  0.76419759  0.06545280  1  0  0.118019  0  3.822735  0  0  0.113887  0  4.077308  0  0  0.115084  0  4.101029  0  0  0.094204  0.113299  0  4.060657  0
C  C48  1  0.18848881  0.97400619  0.91547280  1  0  -0.176585  0  3.628456  0  0  -0.248947  0  3.875045  0  0  -0.250572  0  3.880027  0  0  -0.05167  -0.24785  0  3.871863  0
C  C49  1  0.81151455  0.02599673  0.08452416  1  0  -0.176467  0  3.628434  0  0  -0.248878  0  3.87504  0  0  -0.250506  0  3.880025  0  0  -0.051699  -0.247784  0  3.871862  0
C  C50  1  0.05576447  0.02772477  0.84938306  1  0  0.651797  0  3.920159  0  0  0.609987  0  4.215525  0  0  0.642304  0  4.210657  0  0  0.188264  0.588331  0  4.218063  0
C  C51  1  0.94424606  0.97228491  0.15061325  1  0  0.651693  0  3.920194  0  0  0.609875  0  4.215573  0  0  0.642192  0  4.210702  0  0  0.188136  0.588224  0  4.218111  0
C  C52  1  0.51802347  0.79982592  0.68417351  1  0  0.136994  0  3.723492  0  0  0.105421  0  3.979417  0  0  0.112419  0  3.99826  0  0  0.050673  0.100924  0  3.966722  0
C  C53  1  0.48197640  0.20017018  0.31582726  1  0  0.136969  0  3.723529  0  0  0.105402  0  3.979436  0  0  0.1124  0  3.998278  0  0  0.050721  0.100907  0  3.966731  0
C  C54  1  0.41823550  0.66936350  0.62701361  1  0  -0.117572  0  3.725712  0  0  -0.129479  0  3.973009  0  0  -0.136421  0  3.994233  0  0  -0.078706  -0.125463  0  3.959447  0
C  C55  1  0.58176596  0.33063371  0.37298877  1  0  -0.117497  0  3.725636  0  0  -0.129445  0  3.972899  0  0  -0.136386  0  3.994123  0  0  -0.078729  -0.125425  0  3.959329  0
C  C56  1  0.43072190  0.65913189  0.52800614  1  0  0.008211  0  3.723818  0  0  -0.010519  0  3.975842  0  0  -0.006906  0  3.994528  0  0  -0.064207  -0.012591  0  3.962305  0
C  C57  1  0.56927341  0.34086536  0.47199721  1  0  0.008173  0  3.723696  0  0  -0.010531  0  3.975707  0  0  -0.006917  0  3.994392  0  0  -0.064195  -0.012608  0  3.96218  0
C  C58  1  0.54413731  0.77645735  0.49008306  1  0  -0.138097  0  3.67806  0  0  -0.16003  0  3.929106  0  0  -0.166751  0  3.949144  0  0  -0.077264  -0.155183  0  3.914788  0
C  C59  1  0.45585689  0.22353651  0.50991864  1  0  -0.138062  0  3.678161  0  0  -0.15999  0  3.929234  0  0  -0.166713  0  3.949273  0  0  -0.077248  -0.155153  0  3.914935  0
C  C60  1  0.64291505  0.90264563  0.55229486  1  0  0.169303  0  3.771898  0  0  0.164113  0  4.015403  0  0  0.170538  0  4.037214  0  0  0.116622  0.159829  0  4.00019  0
C  C61  1  0.35707990  0.09735051  0.44770553  1  0  0.169191  0  3.771949  0  0  0.163948  0  4.015626  0  0  0.170372  0  4.037439  0  0  0.116541  0.159668  0  4.000416  0
C  C62  1  0.76998105  0.02960179  0.51694760  1  0  0.171049  0  3.766448  0  0  0.16834  0  4.006059  0  0  0.174477  0  4.028108  0  0  0.121871  0.164062  0  3.991014  0
C  C63  1  0.23000936  0.97039551  0.48305320  1  0  0.171159  0  3.766431  0  0  0.168307  0  4.006316  0  0  0.174445  0  4.028365  0  0  0.121922  0.164029  0  3.991274  0
C  C64  1  0.80257688  0.02865736  0.42029507  1  0  -0.123621  0  3.665407  0  0  -0.14561  0  3.91851  0  0  -0.15205  0  3.939635  0  0  -0.07246  -0.141729  0  3.904537  0
C  C65  1  0.19741058  0.97134224  0.57970559  1  0  -0.1238  0  3.665461  0  0  -0.145766  0  3.918586  0  0  -0.152204  0  3.939708  0  0  -0.072526  -0.141889  0  3.904622  0
C  C66  1  0.92629171  0.15021419  0.39358566  1  0  0.003178  0  3.720508  0  0  -0.01748  0  3.973719  0  0  -0.014489  0  3.993441  0  0  -0.065625  -0.019196  0  3.960567  0
C  C67  1  0.07369293  0.84978430  0.60641329  1  0  0.003471  0  3.720262  0  0  -0.017139  0  3.973465  0  0  -0.014144  0  3.99318  0  0  -0.065529  -0.018857  0  3.960316  0
C  C68  1  0.01394337  0.27057630  0.46254625  1  0  -0.130391  0  3.743398  0  0  -0.142872  0  3.994484  0  0  -0.150197  0  4.017796  0  0  -0.084785  -0.138052  0  3.977616  0
C  C69  1  0.98604241  0.72942560  0.53745003  1  0  -0.130485  0  3.743396  0  0  -0.142968  0  3.994472  0  0  -0.15029  0  4.017774  0  0  -0.08479  -0.138144  0  3.977605  0
C  C70  1  0.97503398  0.26313455  0.55726297  1  0  0.137355  0  3.716995  0  0  0.106861  0  3.969253  0  0  0.113471  0  3.987945  0  0  0.052374  0.10262  0  3.955905  0
C  C71  1  0.02495927  0.73686387  0.44273594  1  0  0.13733  0  3.717006  0  0  0.106826  0  3.969279  0  0  0.113441  0  3.987971  0  0  0.052399  0.102581  0  3.955934  0
C  C72  1  0.81712092  0.44822543  0.74966885  1  0  0.709356  0  3.908284  0  0  0.673317  0  4.199976  0  0  0.70615  0  4.194456  0  0  0.18116  0.65109  0  4.202258  0
C  C73  1  0.18288743  0.55177400  0.25033414  1  0  0.709289  0  3.908171  0  0  0.673269  0  4.199832  0  0  0.706111  0  4.194298  0  0  0.181124  0.651032  0  4.202125  0
C  C74  1  0.85902539  0.61715790  0.77549789  1  0  -0.444644  0  3.672594  0  0  -0.521213  0  3.906518  0  0  -0.527859  0  3.909528  0  0  -0.252344  -0.516322  0  3.903913  0
C  C75  1  0.14098459  0.38284268  0.22450094  1  0  -0.444541  0  3.672666  0  0  -0.521156  0  3.906545  0  0  -0.527807  0  3.909558  0  0  -0.252322  -0.516253  0  3.903936  0
N  N76  1  0.36303446  0.06321333  0.91313827  1  0  0.037998  0  3.555317  0  0  0.146756  0  3.749879  0  0  0.137076  0  3.772386  0  0  -0.122776  0.152987  0  3.734711  0
N  N77  1  0.63697107  0.93678500  0.08686231  1  0  0.037931  0  3.555493  0  0  0.14675  0  3.74997  0  0  0.137071  0  3.772475  0  0  -0.12277  0.152978  0  3.734806  0
N  N78  1  0.45078481  0.03410076  0.84268191  1  0  -0.059108  0  2.884668  0  0  -0.077125  0  3.165106  0  0  -0.069726  0  3.174322  0  0  -0.070397  -0.081705  0  3.159227  0
N  N79  1  0.54922223  0.96590211  0.15731750  1  0  -0.059202  0  2.884801  0  0  -0.077239  0  3.165223  0  0  -0.069842  0  3.174444  0  0  -0.070439  -0.081818  0  3.159342  0
N  N80  1  0.60105446  0.13591397  0.85487044  1  0  -0.258042  0  3.144123  0  0  -0.205956  0  3.442116  0  0  -0.218586  0  3.454383  0  0  -0.205945  -0.197123  0  3.433342  0
N  N81  1  0.39895001  0.86409232  0.14512961  1  0  -0.257872  0  3.143912  0  0  -0.205768  0  3.441895  0  0  -0.218395  0  3.45416  0  0  -0.205878  -0.196935  0  3.433115  0
N  N82  1  0.62691362  0.91316246  0.64787156  1  0  -0.355432  0  3.226899  0  0  -0.284252  0  3.487658  0  0  -0.304034  0  3.506016  0  0  -0.323045  -0.270763  0  3.47452  0
N  N83  1  0.37308586  0.08683249  0.35213059  1  0  -0.355438  0  3.226982  0  0  -0.284201  0  3.487721  0  0  -0.303983  0  3.506079  0  0  -0.323035  -0.270712  0  3.474579  0
N  N84  1  0.85673402  0.14587295  0.58311858  1  0  -0.34364  0  3.258707  0  0  -0.273394  0  3.516734  0  0  -0.292503  0  3.535935  0  0  -0.320672  -0.260404  0  3.503651  0
N  N85  1  0.14326045  0.85412546  0.41688186  1  0  -0.343579  0  3.258624  0  0  -0.27328  0  3.516697  0  0  -0.292391  0  3.535903  0  0  -0.320681  -0.260289  0  3.503611  0
O  O86  1  0.10383723  0.11552363  0.78525177  1  0  -0.614383  0  1.911886  0  0  -0.562792  0  2.135785  0  0  -0.588096  0  2.127601  0  0  -0.332158  -0.545242  0  2.140733  0
O  O87  1  0.89617970  0.88449052  0.21474807  1  0  -0.614276  0  1.911935  0  0  -0.562683  0  2.135849  0  0  -0.587987  0  2.127661  0  0  -0.332114  -0.545135  0  2.140799  0
O  O88  1  0.90032041  0.97636427  0.86415925  1  0  -0.651463  0  1.9554  0  0  -0.588298  0  2.191317  0  0  -0.617258  0  2.18332  0  0  -0.337866  -0.5677  0  2.195836  0
O  O89  1  0.09968584  0.02363981  0.13583006  1  0  -0.651433  0  1.955513  0  0  -0.588263  0  2.191441  0  0  -0.617224  0  2.183446  0  0  -0.337748  -0.567669  0  2.19596  0
O  O90  1  0.93056496  0.38446223  0.78594807  1  0  -0.670235  0  1.960491  0  0  -0.599457  0  2.199013  0  0  -0.629638  0  2.188469  0  0  -0.349538  -0.577787  0  2.205106  0
O  O91  1  0.06944376  0.61553832  0.21405643  1  0  -0.670232  0  1.960554  0  0  -0.599423  0  2.199025  0  0  -0.629606  0  2.188475  0  0  -0.349505  -0.577753  0  2.205121  0
O  O92  1  0.67725281  0.37775463  0.69776455  1  0  -0.660906  0  1.893405  0  0  -0.615031  0  2.120173  0  0  -0.639376  0  2.111626  0  0  -0.347605  -0.597355  0  2.12511  0
O  O93  1  0.32275925  0.62224480  0.30223513  1  0  -0.660912  0  1.893357  0  0  -0.615031  0  2.120087  0  0  -0.63938  0  2.111536  0  0  -0.347611  -0.597355  0  2.125025  0
