# generated using pymatgen
data_NaH10C9SNO7
_symmetry_space_group_name_H-M   'P 1'
_cell_length_a   5.36723031
_cell_length_b   7.59198800
_cell_length_c   14.13637498
_cell_angle_alpha   80.48883873
_cell_angle_beta   90.61760717
_cell_angle_gamma   76.04505772
_symmetry_Int_Tables_number   1
_chemical_formula_structural   NaH10C9SNO7
_chemical_formula_sum   'Na2 H20 C18 S2 N2 O14'
_cell_volume   550.57065017
_cell_formula_units_Z   2
loop_
 _symmetry_equiv_pos_site_id
 _symmetry_equiv_pos_as_xyz
  1  'x, y, z'
loop_
 _atom_site_type_symbol
 _atom_site_label
 _atom_site_symmetry_multiplicity
 _atom_site_fract_x
 _atom_site_fract_y
 _atom_site_fract_z
 _atom_site_occupancy
 _atom_site_hle17_bader_spin_density
 _atom_site_hle17_ddec_charge
 _atom_site_hle17_ddec_spin_density
 _atom_site_hle17_ddec_sum_bond_order
 _atom_site_hle17_magmom
 _atom_site_hse06_10hf_bader_spin_density
 _atom_site_hse06_10hf_ddec_charge
 _atom_site_hse06_10hf_ddec_spin_density
 _atom_site_hse06_10hf_ddec_sum_bond_order
 _atom_site_hse06_10hf_magmom
 _atom_site_hse06_bader_spin_density
 _atom_site_hse06_ddec_charge
 _atom_site_hse06_ddec_spin_density
 _atom_site_hse06_ddec_sum_bond_order
 _atom_site_hse06_magmom
 _atom_site_pbe_bader_spin_density
 _atom_site_pbe_cm5_charge
 _atom_site_pbe_ddec_charge
 _atom_site_pbe_ddec_spin_density
 _atom_site_pbe_ddec_sum_bond_order
 _atom_site_pbe_magmom
Na  Na0  1  0.83941474  0.43972862  0.20938613  1  0  0.925953  0  0.311095  0  0  0.888748  0  0.44543  0  0  0.898912  0  0.424998  0  0  0.637003  0.881033  0  0.460312  0
Na  Na1  1  0.16057294  0.56028196  0.79061051  1  0  0.925944  0  0.311119  0  0  0.888744  0  0.445454  0  0  0.898908  0  0.42501  0  0  0.637004  0.881032  0  0.460331  0
H  H2  1  0.66134231  0.46921476  0.69690731  1  0  0.392963  0  0.911575  0  0  0.359765  0  0.994096  0  0  0.373663  0  0.978299  0  0  0.300487  0.350036  0  1.004312  0
H  H3  1  0.33864852  0.53079313  0.30309665  1  0  0.392858  0  0.911801  0  0  0.359771  0  0.994129  0  0  0.373672  0  0.978294  0  0  0.300449  0.350041  0  1.004348  0
H  H4  1  0.85752552  0.62481013  0.03685466  1  0  0.411442  0  0.877886  0  0  0.384986  0  0.944519  0  0  0.394795  0  0.929694  0  0  0.296517  0.377996  0  0.955098  0
H  H5  1  0.14247097  0.37518932  0.96313167  1  0  0.411371  0  0.877992  0  0  0.384917  0  0.944619  0  0  0.394728  0  0.929793  0  0  0.296466  0.377925  0  0.955202  0
H  H6  1  0.67854601  0.56906595  0.96636150  1  0  0.427578  0  0.842183  0  0  0.405416  0  0.903574  0  0  0.413408  0  0.891779  0  0  0.308306  0.399737  0  0.911979  0
H  H7  1  0.32141839  0.43092128  0.03364449  1  0  0.427671  0  0.842113  0  0  0.405493  0  0.903497  0  0  0.413486  0  0.891702  0  0  0.30831  0.399806  0  0.911915  0
H  H8  1  0.68832254  0.86205637  0.12254961  1  0  0.308508  0  0.9206  0  0  0.289721  0  0.987746  0  0  0.298289  0  0.980641  0  0  0.305077  0.283622  0  0.992813  0
H  H9  1  0.31168535  0.13793907  0.87745051  1  0  0.308527  0  0.920614  0  0  0.289746  0  0.987737  0  0  0.298312  0  0.980636  0  0  0.305097  0.28365  0  0.992806  0
H  H10  1  0.90460645  0.63497210  0.47722160  1  0  0.109717  0  0.955504  0  0  0.116812  0  1.021889  0  0  0.120325  0  1.019092  0  0  0.111669  0.114296  0  1.023951  0
H  H11  1  0.09539640  0.36502750  0.52278026  1  0  0.109611  0  0.955649  0  0  0.116757  0  1.02199  0  0  0.12027  0  1.019193  0  0  0.111619  0.114241  0  1.024051  0
H  H12  1  0.91069209  0.81793169  0.31530819  1  0  0.105149  0  0.95888  0  0  0.114349  0  1.020806  0  0  0.117278  0  1.019712  0  0  0.110759  0.11222  0  1.021685  0
H  H13  1  0.08931685  0.18206653  0.68469449  1  0  0.105121  0  0.958919  0  0  0.114341  0  1.020823  0  0  0.117269  0  1.019728  0  0  0.110735  0.112213  0  1.021701  0
H  H14  1  0.10957204  0.09083018  0.32937146  1  0  0.114571  0  0.964885  0  0  0.120336  0  1.033429  0  0  0.12451  0  1.030442  0  0  0.112623  0.117326  0  1.035671  0
H  H15  1  0.89043703  0.90916660  0.67062428  1  0  0.114537  0  0.964938  0  0  0.120272  0  1.033529  0  0  0.124444  0  1.030543  0  0  0.112609  0.117262  0  1.035767  0
H  H16  1  0.10562243  0.89213996  0.48905554  1  0  0.093523  0  0.995568  0  0  0.103968  0  1.057178  0  0  0.106602  0  1.056104  0  0  0.10597  0.1021  0  1.057964  0
H  H17  1  0.89437017  0.10785541  0.51093685  1  0  0.093508  0  0.995589  0  0  0.103932  0  1.057236  0  0  0.106575  0  1.056135  0  0  0.106009  0.102067  0  1.058021  0
H  H18  1  0.29076834  0.88229033  0.02137477  1  0  0.110999  0  0.934168  0  0  0.120887  0  1.001239  0  0  0.123448  0  0.999191  0  0  0.116512  0.119064  0  1.00275  0
H  H19  1  0.70923305  0.11770787  0.97862582  1  0  0.110994  0  0.934138  0  0  0.120844  0  1.00122  0  0  0.12341  0  0.999168  0  0  0.116503  0.119024  0  1.00273  0
H  H20  1  0.11548406  0.02337476  0.09828488  1  0  0.115507  0  0.93634  0  0  0.128253  0  0.997451  0  0  0.130637  0  0.996024  0  0  0.119489  0.126503  0  0.998633  0
H  H21  1  0.88452286  0.97662894  0.90171446  1  0  0.115481  0  0.936369  0  0  0.128186  0  0.997491  0  0  0.130566  0  0.996073  0  0  0.119466  0.126439  0  0.998671  0
C  C22  1  0.48179773  0.65001686  0.59050646  1  0  0.651906  0  3.834397  0  0  0.603448  0  4.133166  0  0  0.635564  0  4.125997  0  0  0.228632  0.581628  0  4.137584  0
C  C23  1  0.51819689  0.34997448  0.40949833  1  0  0.651927  0  3.834732  0  0  0.603442  0  4.133563  0  0  0.63556  0  4.126393  0  0  0.228637  0.581621  0  4.137983  0
C  C24  1  0.50178512  0.75518180  0.49313545  1  0  -0.065462  0  3.749891  0  0  -0.04247  0  3.977217  0  0  -0.049429  0  4.000396  0  0  -0.011335  -0.037965  0  3.961664  0
C  C25  1  0.49821383  0.24481777  0.50686289  1  0  -0.065193  0  3.749854  0  0  -0.042186  0  3.977193  0  0  -0.049145  0  4.000367  0  0  -0.011256  -0.03768  0  3.961641  0
C  C26  1  0.73049502  0.73273581  0.44444524  1  0  -0.04436  0  3.673375  0  0  -0.068853  0  3.924948  0  0  -0.068622  0  3.942728  0  0  -0.069249  -0.068971  0  3.913045  0
C  C27  1  0.26950552  0.26725965  0.55555702  1  0  -0.04436  0  3.673491  0  0  -0.068921  0  3.925108  0  0  -0.06869  0  3.942888  0  0  -0.069233  -0.069038  0  3.913203  0
C  C28  1  0.73495658  0.83684236  0.35406854  1  0  -0.051834  0  3.702334  0  0  -0.078177  0  3.957241  0  0  -0.07779  0  3.974906  0  0  -0.074184  -0.078435  0  3.945501  0
C  C29  1  0.26504423  0.16315720  0.64592980  1  0  -0.05168  0  3.702509  0  0  -0.078114  0  3.957379  0  0  -0.077727  0  3.975047  0  0  -0.074159  -0.07837  0  3.945635  0
C  C30  1  0.51184488  0.96646782  0.31363374  1  0  -0.106848  0  3.732818  0  0  -0.081514  0  3.979817  0  0  -0.086654  0  4.001077  0  0  -0.010339  -0.078272  0  3.965807  0
C  C31  1  0.48816149  0.03353725  0.68636406  1  0  -0.107096  0  3.7333  0  0  -0.081482  0  3.97993  0  0  -0.086623  0  4.001194  0  0  -0.010317  -0.078235  0  3.965909  0
C  C32  1  0.28260229  0.99012922  0.36101538  1  0  -0.067538  0  3.721176  0  0  -0.093508  0  3.974319  0  0  -0.094323  0  3.993299  0  0  -0.080364  -0.092952  0  3.961645  0
C  C33  1  0.71740429  0.00986486  0.63898628  1  0  -0.067454  0  3.721337  0  0  -0.093472  0  3.974406  0  0  -0.09429  0  3.993387  0  0  -0.080342  -0.092916  0  3.96173  0
C  C34  1  0.28034583  0.88179799  0.45032512  1  0  -0.052979  0  3.718209  0  0  -0.075793  0  3.962763  0  0  -0.076952  0  3.984235  0  0  -0.074922  -0.074899  0  3.948241  0
C  C35  1  0.71965531  0.11819465  0.54967033  1  0  -0.053026  0  3.718029  0  0  -0.07584  0  3.962616  0  0  -0.076992  0  3.984084  0  0  -0.074967  -0.074954  0  3.948099  0
C  C36  1  0.28145943  0.90730156  0.09573919  1  0  -0.109296  0  3.647033  0  0  -0.168362  0  3.904172  0  0  -0.168457  0  3.91044  0  0  -0.06849  -0.168385  0  3.899943  0
C  C37  1  0.71854718  0.09269804  0.90426336  1  0  -0.109284  0  3.647004  0  0  -0.168189  0  3.904064  0  0  -0.168296  0  3.910338  0  0  -0.068475  -0.168215  0  3.899837  0
C  C38  1  0.23463421  0.73610209  0.15900843  1  0  0.70142  0  3.841478  0  0  0.656058  0  4.143952  0  0  0.688224  0  4.135934  0  0  0.217204  0.634231  0  4.148729  0
C  C39  1  0.76536544  0.26390717  0.84099466  1  0  0.701743  0  3.840941  0  0  0.656198  0  4.14362  0  0  0.688386  0  4.135579  0  0  0.217357  0.634372  0  4.148395  0
S  S40  1  0.51876614  0.09507624  0.19716379  1  0  1.224803  0  5.393425  0  0  1.131734  0  5.900887  0  0  1.175121  0  5.884579  0  0  0.571669  1.101825  0  5.911342  0
S  S41  1  0.48124552  0.90492472  0.80283721  1  0  1.224952  0  5.393362  0  0  1.131791  0  5.900815  0  0  1.175178  0  5.884507  0  0  0.571713  1.101881  0  5.911267  0
N  N42  1  0.51536770  0.96072769  0.11883915  1  0  -0.511446  0  3.191992  0  0  -0.451659  0  3.45874  0  0  -0.470564  0  3.460777  0  0  -0.451116  -0.438335  0  3.456979  0
N  N43  1  0.48463914  0.03927601  0.88115878  1  0  -0.51156  0  3.192187  0  0  -0.451806  0  3.45894  0  0  -0.470711  0  3.460981  0  0  -0.451139  -0.438482  0  3.457183  0
O  O44  1  0.70136410  0.54099560  0.63035019  1  0  -0.555205  0  2.084304  0  0  -0.503872  0  2.309179  0  0  -0.526739  0  2.295773  0  0  -0.321619  -0.487961  0  2.317443  0
O  O45  1  0.29862250  0.45900815  0.36965275  1  0  -0.555203  0  2.084345  0  0  -0.50391  0  2.309096  0  0  -0.526777  0  2.295662  0  0  -0.321615  -0.487999  0  2.317364  0
O  O46  1  0.27364663  0.66638175  0.62990096  1  0  -0.616728  0  1.936054  0  0  -0.580198  0  2.172663  0  0  -0.599241  0  2.163319  0  0  -0.345618  -0.567092  0  2.178894  0
O  O47  1  0.72634070  0.33361920  0.37009801  1  0  -0.616822  0  1.936279  0  0  -0.580278  0  2.172898  0  0  -0.599323  0  2.163551  0  0  -0.345662  -0.567173  0  2.179132  0
O  O48  1  0.76625235  0.14069205  0.18991563  1  0  -0.645979  0  1.994414  0  0  -0.605082  0  2.263272  0  0  -0.624636  0  2.249954  0  0  -0.348995  -0.591269  0  2.271951  0
O  O49  1  0.23375450  0.85931165  0.81008230  1  0  -0.645949  0  1.994105  0  0  -0.605105  0  2.263083  0  0  -0.624661  0  2.249765  0  0  -0.349055  -0.591289  0  2.271761  0
O  O50  1  0.28642495  0.24331265  0.17977869  1  0  -0.639637  0  1.974137  0  0  -0.593804  0  2.23118  0  0  -0.611914  0  2.216503  0  0  -0.326515  -0.581071  0  2.24082  0
O  O51  1  0.71358230  0.75668965  0.82021795  1  0  -0.639684  0  1.974263  0  0  -0.593831  0  2.231316  0  0  -0.611926  0  2.216607  0  0  -0.326528  -0.58111  0  2.24098  0
O  O52  1  0.41415553  0.64054018  0.21904601  1  0  -0.674019  0  2.061395  0  0  -0.623407  0  2.302509  0  0  -0.648549  0  2.292927  0  0  -0.358969  -0.605815  0  2.308362  0
O  O53  1  0.58584718  0.35947189  0.78096247  1  0  -0.674121  0  2.061217  0  0  -0.623386  0  2.302469  0  0  -0.648533  0  2.292888  0  0  -0.35896  -0.605807  0  2.308348  0
O  O54  1  0.01818072  0.70008343  0.14750240  1  0  -0.702199  0  1.957632  0  0  -0.649818  0  2.194424  0  0  -0.673119  0  2.181658  0  0  -0.371569  -0.633438  0  2.20275  0
O  O55  1  0.98183591  0.29991888  0.85249563  1  0  -0.70241  0  1.957426  0  0  -0.649966  0  2.194274  0  0  -0.673273  0  2.181494  0  0  -0.371723  -0.633583  0  2.202601  0
O  O56  1  0.72565364  0.55586520  0.03438716  1  0  -0.850435  0  1.768287  0  0  -0.807942  0  1.936663  0  0  -0.823777  0  1.908492  0  0  -0.628607  -0.796729  0  1.956452  0
O  O57  1  0.27433482  0.44413855  0.96561578  1  0  -0.850474  0  1.768248  0  0  -0.807968  0  1.936584  0  0  -0.823809  0  1.908403  0  0  -0.628568  -0.796751  0  1.95638  0
