# generated using pymatgen
data_CuH14C13S(NO2)3
_symmetry_space_group_name_H-M   'P 1'
_cell_length_a   8.83634724
_cell_length_b   8.79942645
_cell_length_c   10.55330646
_cell_angle_alpha   73.52792032
_cell_angle_beta   83.66586573
_cell_angle_gamma   77.04642364
_symmetry_Int_Tables_number   1
_chemical_formula_structural   CuH14C13S(NO2)3
_chemical_formula_sum   'Cu2 H28 C26 S2 N6 O12'
_cell_volume   765.90670363
_cell_formula_units_Z   2
loop_
 _symmetry_equiv_pos_site_id
 _symmetry_equiv_pos_as_xyz
  1  'x, y, z'
loop_
 _atom_site_type_symbol
 _atom_site_label
 _atom_site_symmetry_multiplicity
 _atom_site_fract_x
 _atom_site_fract_y
 _atom_site_fract_z
 _atom_site_occupancy
 _atom_site_hle17_bader_charge
 _atom_site_hle17_bader_spin_density
 _atom_site_hle17_ddec_charge
 _atom_site_hle17_ddec_spin_density
 _atom_site_hle17_ddec_sum_bond_order
 _atom_site_hle17_magmom
 _atom_site_hse06_10hf_ddec_charge
 _atom_site_hse06_10hf_ddec_spin_density
 _atom_site_hse06_10hf_ddec_sum_bond_order
 _atom_site_hse06_10hf_magmom
 _atom_site_hse06_ddec_charge
 _atom_site_hse06_ddec_spin_density
 _atom_site_hse06_ddec_sum_bond_order
 _atom_site_hse06_magmom
 _atom_site_pbe_cm5_charge
 _atom_site_pbe_ddec_charge
 _atom_site_pbe_ddec_spin_density
 _atom_site_pbe_ddec_sum_bond_order
 _atom_site_pbe_magmom
Cu  Cu0  1  0.12742429  0.10440731  0.16250737  1  1.112681  0.460846  0.847878  0.687852  1.839153  0.459  0.83916  0.781078  2.224885  0.588  0.929854  0.883329  2.157737  0.694  0.747792  0.791955  0.707285  2.268145  0.518
Cu  Cu1  1  0.87257711  0.89559245  0.83749104  1  1.11255  -0.460771  0.847715  -0.687769  1.839135  -0.459  0.839166  -0.78108  2.224871  -0.588  0.929806  -0.883314  2.157658  -0.694  0.747781  0.79196  -0.707293  2.26811  -0.518
H  H2  1  0.32156534  0.15262538  0.34609499  1  0.652316  -0.000112  0.420383  -6.5e-05  0.883746  0.0  0.397806  -4.7e-05  0.935321  0.0  0.4096  -2.8e-05  0.918226  0.0  0.290862  0.389985  -5e-05  0.946771  0.0
H  H3  1  0.67843103  0.84737071  0.65390751  1  0.652325  0.000112  0.420417  6.5e-05  0.883687  0.0  0.397855  4.7e-05  0.935251  0.0  0.409647  2.8e-05  0.918158  0.0  0.290872  0.390031  5e-05  0.946707  0.0
H  H4  1  0.42013619  0.12396672  0.21689053  1  0.659898  -9e-05  0.435574  -7.7e-05  0.865345  0.0  0.410623  -0.000112  0.919841  0.0  0.421572  -8e-05  0.90378  0.0  0.291832  0.403239  -0.000113  0.93071  0.0
H  H5  1  0.57986567  0.87602456  0.78311362  1  0.659966  9e-05  0.435561  7.7e-05  0.865368  0.0  0.410626  0.000112  0.91983  0.0  0.421571  8e-05  0.903775  0.0  0.291833  0.403242  0.000113  0.930697  0.0
H  H6  1  0.55629148  0.68053872  0.98140192  1  0.066092  0.000692  0.111042  0.000288  0.951545  0.001  0.11763  -3.3e-05  1.016957  0.0  0.119681  -2.2e-05  1.016581  0.0  0.109061  0.11611  -6.2e-05  1.017234  0.0
H  H7  1  0.44370849  0.31945618  0.01860342  1  0.066047  -0.000692  0.111034  -0.000287  0.951571  -0.001  0.117671  3.3e-05  1.016929  0.0  0.119713  2.2e-05  1.01657  0.0  0.109064  0.116169  6.2e-05  1.017156  0.0
H  H8  1  0.63571603  0.43025282  0.16327088  1  0.003724  -0.001224  0.098984  -0.000821  0.930762  -0.001  0.11092  8e-06  0.985012  0.0  0.113241  -2e-06  0.985841  0.0  0.10452  0.108749  2.9e-05  0.985768  0.0
H  H9  1  0.36427710  0.56974204  0.83673595  1  0.003446  0.001224  0.098934  0.000821  0.930725  0.001  0.110935  -9e-06  0.984909  0.0  0.113255  2e-06  0.985738  0.0  0.10452  0.108763  -2.9e-05  0.985669  0.0
H  H10  1  0.47285842  0.38458368  0.37530945  1  0.027449  0.00106  0.093412  0.000554  0.97228  0.001  0.100143  0.000186  1.039985  0.0  0.103177  0.000123  1.037825  0.0  0.102624  0.09847  0.000154  1.040274  0.0
H  H11  1  0.52713546  0.61541845  0.62469847  1  0.027099  -0.001059  0.093337  -0.000553  0.972258  -0.001  0.100078  -0.000186  1.039963  0.0  0.103108  -0.000122  1.037797  0.0  0.102573  0.098404  -0.000154  1.040251  0.0
H  H12  1  0.24352676  0.59484231  0.40702351  1  0.01877  -0.000813  0.097478  -0.000435  0.974588  -0.001  0.106139  0.00033  1.041965  0.0  0.109244  0.000133  1.041007  0.0  0.1035  0.103894  0.000512  1.042717  0.0
H  H13  1  0.75647073  0.40516469  0.59298205  1  0.018763  0.000811  0.097504  0.000434  0.974613  0.001  0.106164  -0.000331  1.041988  0.0  0.109262  -0.000133  1.041039  0.0  0.103501  0.103926  -0.000512  1.042732  0.0
H  H14  1  0.67977359  0.60130489  0.40376785  1  -0.059452  -1.7e-05  0.126367  -8.9e-05  0.957579  0.0  0.14664  -2e-06  1.016654  0.0  0.14815  -7e-06  1.017005  0.0  0.094063  0.145233  6.7e-05  1.017252  0.0
H  H15  1  0.32022080  0.39869604  0.59622799  1  -0.059425  1.6e-05  0.126447  8.8e-05  0.957539  0.0  0.146724  2e-06  1.016604  0.0  0.148233  7e-06  1.016957  0.0  0.094093  0.145315  -6.7e-05  1.017204  0.0
H  H16  1  0.88820229  0.57125998  0.37286231  1  -0.034093  0.000187  0.126381  0.000303  0.946246  0.0  0.141852  0.0004  1.014503  0.0  0.144116  0.000221  1.013334  0.0  0.095787  0.13967  0.000659  1.016693  0.0
H  H17  1  0.11179569  0.42873975  0.62713637  1  -0.03413  -0.000187  0.126468  -0.000304  0.946272  0.0  0.141951  -0.000401  1.014498  0.0  0.144214  -0.000222  1.013328  0.0  0.095817  0.139768  -0.000658  1.016689  0.0
H  H18  1  0.76293560  0.70155761  0.24965939  1  0.001526  0.000314  0.144595  0.000205  0.947204  0.0  0.159664  7.6e-05  1.013293  0.0  0.161087  5.6e-05  1.01379  0.0  0.100296  0.158162  0.000165  1.014199  0.0
H  H19  1  0.23706131  0.29844212  0.75033653  1  0.001596  -0.000315  0.144632  -0.000206  0.94719  0.0  0.159711  -7.7e-05  1.013281  0.0  0.161138  -5.6e-05  1.013769  0.0  0.100295  0.158211  -0.000164  1.014187  0.0
H  H20  1  0.75276861  0.08070367  0.54865025  1  0.020384  -0.000903  0.140514  -0.000603  0.959443  -0.001  0.153715  -0.0004  1.029142  -0.001  0.155673  -0.000429  1.028889  -0.001  0.10311  0.151854  -0.000392  1.029686  -0.001
H  H21  1  0.24723599  0.91929732  0.45134574  1  0.020667  0.000902  0.140499  0.000602  0.959401  0.001  0.153771  0.000399  1.029047  0.001  0.155728  0.000428  1.028797  0.001  0.103144  0.151909  0.000393  1.02959  0.001
H  H22  1  0.63921634  0.12516337  0.41173906  1  0.025048  -0.000775  0.156813  -0.000507  0.935985  -0.001  0.174768  0.000449  0.994641  0.0  0.177336  0.000364  0.993409  0.0  0.108359  0.172137  0.000561  0.995835  0.001
H  H23  1  0.36078707  0.87483761  0.58825986  1  0.025017  0.000775  0.156806  0.000506  0.935993  0.001  0.174782  -0.00045  0.994646  0.0  0.177349  -0.000364  0.99342  0.0  0.108355  0.172151  -0.000561  0.995839  -0.001
H  H24  1  0.75620528  0.26527732  0.42159708  1  -0.021476  -0.000859  0.126068  -0.000406  0.943369  -0.001  0.148007  2.1e-05  1.000109  0.0  0.149975  -9e-06  0.999572  0.0  0.094438  0.144867  2.6e-05  1.003137  0.0
H  H25  1  0.24379956  0.73472246  0.57839916  1  -0.021475  0.000858  0.126062  0.000405  0.943272  0.001  0.148046  -2.2e-05  0.999993  0.0  0.150013  8e-06  0.999456  0.0  0.094476  0.1449  -2.6e-05  1.003027  0.0
H  H26  1  0.00382409  0.28168928  0.90009595  1  0.10564  0.001082  0.10871  0.000544  0.954855  0.001  0.111685  0.000271  1.02359  0.001  0.115412  0.000263  1.020504  0.001  0.127124  0.10908  0.000103  1.025447  0.001
H  H27  1  0.99618073  0.71831049  0.09990124  1  0.105984  -0.001083  0.108694  -0.000544  0.954869  -0.001  0.111682  -0.000272  1.023615  -0.001  0.11542  -0.000263  1.020503  -0.001  0.127129  0.109076  -0.000103  1.025471  -0.001
H  H28  1  0.10027435  0.42456169  0.21991054  1  0.081653  0.00096  0.107823  0.000562  0.926852  0.001  0.117107  0.00032  0.986015  0.001  0.120626  0.000239  0.983225  0.001  0.129603  0.114461  0.00055  0.988061  0.001
H  H29  1  0.89973365  0.57543932  0.78008612  1  0.081273  -0.000959  0.107766  -0.000561  0.926835  -0.001  0.117074  -0.000321  0.985969  -0.001  0.120592  -0.000239  0.98318  -0.001  0.129592  0.11443  -0.00055  0.988013  -0.001
C  C30  1  0.35716658  0.77548998  0.09227044  1  -0.153947  0.030939  -0.182148  0.023105  3.690296  0.021  -0.16709  0.005839  3.941769  0.006  -0.178953  0.005225  3.964995  0.006  -0.017882  -0.160117  0.006952  3.926672  0.006
C  C31  1  0.64283244  0.22450976  0.90773290  1  -0.154114  -0.030902  -0.182004  -0.023078  3.690125  -0.021  -0.167157  -0.005842  3.941868  -0.006  -0.179021  -0.005224  3.9651  -0.006  -0.017924  -0.160189  -0.006951  3.926779  -0.006
C  C32  1  0.48960811  0.66070588  0.07562309  1  0.078079  -0.021104  -0.039702  -0.01618  3.726621  -0.015  -0.067131  -0.002497  3.984997  -0.003  -0.065013  -0.003005  4.007449  -0.003  -0.079636  -0.068248  -0.002221  3.970456  -0.003
C  C33  1  0.51039307  0.33929388  0.92438576  1  0.078122  0.021072  -0.039798  0.016155  3.726568  0.015  -0.067222  0.0025  3.98504  0.003  -0.065107  0.003005  4.007493  0.003  -0.079664  -0.068332  0.002221  3.970506  0.003
C  C34  1  0.53319944  0.52061604  0.17746958  1  0.04755  0.041304  -0.055504  0.03172  3.720793  0.027  -0.075859  0.008213  3.983577  0.007  -0.081999  0.006836  4.007503  0.007  -0.085167  -0.072304  0.009836  3.968838  0.009
C  C35  1  0.46679912  0.47938006  0.82253654  1  0.047761  -0.041279  -0.055487  -0.031702  3.720686  -0.027  -0.075895  -0.008212  3.983515  -0.007  -0.082029  -0.006837  4.007435  -0.007  -0.085164  -0.072339  -0.009835  3.968779  -0.009
C  C36  1  0.44339062  0.49526111  0.29619042  1  0.071629  -0.022519  -0.047246  -0.017391  3.761516  -0.016  -0.062845  -0.002722  4.017831  -0.003  -0.060927  -0.003204  4.037575  -0.004  -0.086045  -0.063402  -0.002218  4.003322  -0.003
C  C37  1  0.55660668  0.50474104  0.70381723  1  0.072104  0.022493  -0.047085  0.017371  3.761382  0.016  -0.062684  0.002721  4.017708  0.003  -0.060759  0.003205  4.037442  0.004  -0.085965  -0.063239  0.002217  4.0032  0.003
C  C38  1  0.31315146  0.61121541  0.31427345  1  0.001664  0.036719  -0.136708  0.0281  3.721321  0.024  -0.160177  0.0084  3.973854  0.008  -0.166347  0.007181  3.995128  0.007  -0.089018  -0.156309  0.009222  3.958411  0.008
C  C39  1  0.68684566  0.38878795  0.68573109  1  0.001736  -0.036695  -0.136736  -0.028083  3.721352  -0.024  -0.160199  -0.008397  3.973857  -0.008  -0.166362  -0.007183  3.995135  -0.007  -0.089  -0.156339  -0.009222  3.95841  -0.008
C  C40  1  0.26820472  0.75292160  0.21333495  1  0.325326  -0.010616  0.175091  -0.006453  3.790297  -0.007  0.169991  0.002986  4.048781  0.003  0.178426  -0.000195  4.073959  -0.001  0.090211  0.16539  0.005486  4.031132  0.005
C  C41  1  0.73179379  0.24708056  0.78666881  1  0.325463  0.010582  0.175073  0.006424  3.790282  0.007  0.170022  -0.002988  4.04879  -0.003  0.178455  0.000191  4.073976  0.001  0.090235  0.165425  -0.005486  4.031145  -0.005
C  C42  1  0.89987553  0.89299546  0.36021593  1  0.454783  0.010178  -0.137148  0.009833  3.696802  0.012  -0.146034  0.002269  3.971615  0.005  -0.166396  -0.001195  3.996687  0.001  0.065249  -0.133103  0.004881  3.954787  0.007
C  C43  1  0.10012105  0.10700548  0.63978353  1  0.454896  -0.01018  -0.137199  -0.009836  3.696853  -0.012  -0.146066  -0.002264  3.971693  -0.005  -0.166427  0.001202  3.996763  -0.001  0.06523  -0.133136  -0.004879  3.95487  -0.007
C  C44  1  0.77652377  0.79962199  0.41136236  1  0.894324  -0.000726  0.496124  -0.000544  3.68159  0.0  0.479529  0.000588  3.951346  0.001  0.503835  -4.9e-05  3.955901  0.0  0.161542  0.462804  0.001047  3.947868  0.001
C  C45  1  0.22346880  0.20038256  0.58863088  1  0.894205  0.000723  0.496284  0.000541  3.681476  0.0  0.479622  -0.000593  3.951317  -0.001  0.503932  5.4e-05  3.955859  0.0  0.161557  0.462895  -0.001047  3.947847  -0.001
C  C46  1  0.77708148  0.65856126  0.35698728  1  0.229989  0.001738  -0.427186  0.00182  3.682784  0.001  -0.509356  0.00123  3.921878  0.001  -0.514646  0.00074  3.926979  0.0  -0.249017  -0.506178  0.00183  3.921445  0.001
C  C47  1  0.22291427  0.34143846  0.64300969  1  0.229977  -0.001736  -0.427474  -0.00182  3.682864  -0.001  -0.509658  -0.001225  3.921957  -0.001  -0.514948  -0.000742  3.927054  0.0  -0.249085  -0.506477  -0.00183  3.921531  -0.001
C  C48  1  0.88455638  0.05703320  0.36873740  1  0.793824  -0.018532  0.491075  -0.015375  3.657603  -0.016  0.476364  -0.003785  3.932468  -0.005  0.507729  -0.005121  3.934114  -0.006  0.152459  0.455621  -0.001353  3.92979  -0.003
C  C49  1  0.11544819  0.94296778  0.63126048  1  0.79378  0.018527  0.491027  0.015369  3.657407  0.016  0.476318  0.00378  3.932321  0.005  0.507684  0.00512  3.933956  0.006  0.152442  0.455574  0.001353  3.929644  0.003
C  C50  1  0.74973303  0.13768366  0.44171648  1  0.182352  0.018906  -0.41238  0.015477  3.652326  0.017  -0.492925  0.00961  3.886668  0.011  -0.500036  0.006314  3.890125  0.008  -0.242141  -0.486746  0.012105  3.884447  0.013
C  C51  1  0.25027090  0.86231490  0.55828107  1  0.182107  -0.018905  -0.412337  -0.015478  3.65201  -0.017  -0.493034  -0.009607  3.88638  -0.011  -0.50014  -0.006309  3.889833  -0.008  -0.242191  -0.48685  -0.012104  3.884173  -0.013
C  C52  1  0.00192040  0.37988492  0.94400175  1  0.575005  -0.016645  0.090788  -0.012821  3.640806  -0.012  0.068735  -0.003743  3.884926  -0.004  0.073936  -0.004402  3.898542  -0.005  0.063255  0.064904  -0.003208  3.877393  -0.004
C  C53  1  0.99808556  0.62011486  0.05599536  1  0.574588  0.016646  0.090836  0.01282  3.640753  0.012  0.068735  0.003745  3.884881  0.004  0.073936  0.0044  3.898501  0.005  0.063253  0.064908  0.003208  3.877342  0.004
C  C54  1  0.05407865  0.45931490  0.12204959  1  0.552005  -0.016806  0.08251  -0.013063  3.636651  -0.013  0.060816  -0.004036  3.875731  -0.005  0.066259  -0.004902  3.889336  -0.006  0.064609  0.056621  -0.00327  3.86873  -0.004
C  C55  1  0.94592935  0.54068611  0.87794708  1  0.551516  0.016803  0.082602  0.013062  3.636661  0.013  0.060873  0.004038  3.875702  0.005  0.066313  0.004902  3.889309  0.006  0.064649  0.05668  0.00327  3.868701  0.004
S  S56  1  0.28533344  0.93651211  0.95438987  1  3.116157  -0.000824  1.311475  -4.3e-05  5.645003  -0.002  1.222999  0.00245  6.15722  0.0  1.276016  0.001808  6.129561  0.0  0.51263  1.186602  0.003051  6.175109  0.0
S  S57  1  0.71466836  0.06348523  0.04561287  1  3.116297  0.000823  1.311411  4.2e-05  5.644968  0.002  1.223039  -0.002439  6.157157  0.0  1.276059  -0.001807  6.129498  0.0  0.512646  1.186645  -0.003051  6.175047  0.0
N  N58  1  0.13621884  0.87076263  0.23544252  1  -0.569177  0.172128  -0.221863  0.133498  3.270495  0.153  -0.208068  0.073621  3.609958  0.093  -0.24364  0.060912  3.635342  0.082  -0.225322  -0.190125  0.080878  3.595918  0.098
N  N59  1  0.86377908  0.12923710  0.76455901  1  -0.569231  -0.17213  -0.221827  -0.133504  3.270378  -0.153  -0.20808  -0.073622  3.609848  -0.093  -0.243636  -0.060915  3.635202  -0.082  -0.225293  -0.190139  -0.080875  3.595803  -0.098
N  N60  1  0.02429810  0.81048494  0.30486777  1  -0.565459  0.061794  -0.061551  0.046286  3.196243  0.044  -0.050732  0.027743  3.498719  0.029  -0.048216  0.011755  3.523826  0.012  -0.150025  -0.04956  0.041087  3.479059  0.041
N  N61  1  0.97570100  0.18951481  0.69513177  1  -0.56542  -0.061821  -0.06153  -0.046309  3.196172  -0.044  -0.050769  -0.027735  3.498667  -0.029  -0.048245  -0.011761  3.523763  -0.012  -0.150073  -0.049593  -0.04108  3.479007  -0.041
N  N62  1  0.05528525  0.34028158  0.06573449  1  -1.195255  0.06459  -0.225085  0.052209  3.290387  0.06  -0.172035  0.039286  3.560291  0.049  -0.191777  0.036376  3.576665  0.048  -0.322418  -0.163001  0.038922  3.553284  0.047
N  N63  1  0.94472047  0.65971941  0.93426235  1  -1.194316  -0.064588  -0.225212  -0.052211  3.290428  -0.06  -0.172101  -0.039287  3.56032  -0.049  -0.191839  -0.036378  3.576679  -0.048  -0.322478  -0.163071  -0.038922  3.553307  -0.047
O  O64  1  0.26543142  0.08709775  0.99921800  1  -1.27979  0.060152  -0.662454  0.046343  2.070226  0.056  -0.620331  0.038853  2.360702  0.052  -0.65229  0.032698  2.344729  0.047  -0.348719  -0.599484  0.041414  2.372216  0.053
O  O65  1  0.73457000  0.91290201  0.00077946  1  -1.279824  -0.06016  -0.662351  -0.046351  2.070122  -0.056  -0.620271  -0.03886  2.360626  -0.052  -0.652223  -0.032704  2.344635  -0.047  -0.348649  -0.599419  -0.041418  2.37213  -0.053
O  O66  1  0.13812627  0.90409415  0.93010724  1  -1.324926  0.002839  -0.676358  0.002343  2.052604  0.002  -0.650882  0.001051  2.33905  0.001  -0.675673  0.00067  2.325757  0.0  -0.336289  -0.633217  0.0013  2.347596  0.001
O  O67  1  0.86187069  0.09590437  0.06989750  1  -1.32498  -0.002838  -0.676405  -0.002343  2.052697  -0.002  -0.650925  -0.001054  2.33909  -0.001  -0.675706  -0.000669  2.325782  0.0  -0.336331  -0.633264  -0.001299  2.347642  -0.001
O  O68  1  0.39984858  0.93997323  0.84364716  1  -1.338757  0.010348  -0.647027  0.007947  1.995566  0.009  -0.585993  0.006418  2.225572  0.008  -0.60792  0.004538  2.210983  0.006  -0.326618  -0.56954  0.007953  2.234807  0.01
O  O69  1  0.60015243  0.06001683  0.15635544  1  -1.338739  -0.010351  -0.647059  -0.00795  1.995612  -0.009  -0.586044  -0.006421  2.225643  -0.008  -0.607971  -0.004538  2.211051  -0.006  -0.326674  -0.569592  -0.007954  2.234879  -0.01
O  O70  1  0.67072937  0.83606554  0.49225577  1  -1.148262  0.002305  -0.499274  0.001692  1.973267  0.002  -0.447926  -0.000471  2.174989  -0.001  -0.470662  -0.001268  2.171156  -0.002  -0.264767  -0.43217  0.000415  2.177151  0.001
O  O71  1  0.32926118  0.16394384  0.50773271  1  -1.148275  -0.002308  -0.499292  -0.001694  1.973346  -0.002  -0.447896  0.00047  2.175091  0.001  -0.470632  0.001266  2.171253  0.002  -0.264736  -0.432135  -0.000414  2.177248  -0.001
O  O72  1  0.98545910  0.14083357  0.31511188  1  -1.098856  0.112014  -0.491353  0.087597  2.091533  0.108  -0.463352  0.063081  2.357077  0.088  -0.504908  0.048032  2.353868  0.071  -0.281623  -0.4375  0.071144  2.360061  0.094
O  O73  1  0.01454479  0.85916499  0.68488756  1  -1.098805  -0.112025  -0.491296  -0.087609  2.091457  -0.108  -0.463294  -0.063082  2.357037  -0.088  -0.504843  -0.048037  2.353807  -0.071  -0.281602  -0.437446  -0.071144  2.360025  -0.094
O  O74  1  0.31522222  0.16721042  0.25047223  1  -1.308482  -0.001393  -0.866062  -0.000839  1.865316  0.0  -0.833546  -0.000958  2.054122  0.0  -0.855536  -0.001263  2.017663  -0.001  -0.608238  -0.818811  -0.000531  2.078593  0.0
O  O75  1  0.68477920  0.83278328  0.74952949  1  -1.308487  0.001393  -0.866055  0.000839  1.865308  0.0  -0.833567  0.000958  2.054068  0.0  -0.855548  0.001263  2.017597  0.001  -0.608227  -0.818819  0.000531  2.078535  0.0
