# generated using pymatgen
data_CdH6C12N2(O2F)2
_symmetry_space_group_name_H-M   'P 1'
_cell_length_a   8.93925804
_cell_length_b   8.93924991
_cell_length_c   9.14022552
_cell_angle_alpha   69.51699796
_cell_angle_beta   69.51718491
_cell_angle_gamma   61.44827692
_symmetry_Int_Tables_number   1
_chemical_formula_structural   CdH6C12N2(O2F)2
_chemical_formula_sum   'Cd2 H12 C24 N4 O8 F4'
_cell_volume   586.01070598
_cell_formula_units_Z   2
loop_
 _symmetry_equiv_pos_site_id
 _symmetry_equiv_pos_as_xyz
  1  'x, y, z'
loop_
 _atom_site_type_symbol
 _atom_site_label
 _atom_site_symmetry_multiplicity
 _atom_site_fract_x
 _atom_site_fract_y
 _atom_site_fract_z
 _atom_site_occupancy
 _atom_site_hle17_bader_spin_density
 _atom_site_hle17_ddec_charge
 _atom_site_hle17_ddec_spin_density
 _atom_site_hle17_ddec_sum_bond_order
 _atom_site_hle17_magmom
 _atom_site_hse06_10hf_bader_spin_density
 _atom_site_hse06_10hf_ddec_charge
 _atom_site_hse06_10hf_ddec_spin_density
 _atom_site_hse06_10hf_ddec_sum_bond_order
 _atom_site_hse06_10hf_magmom
 _atom_site_hse06_bader_spin_density
 _atom_site_hse06_ddec_charge
 _atom_site_hse06_ddec_spin_density
 _atom_site_hse06_ddec_sum_bond_order
 _atom_site_hse06_magmom
 _atom_site_pbe_bader_spin_density
 _atom_site_pbe_cm5_charge
 _atom_site_pbe_ddec_charge
 _atom_site_pbe_ddec_spin_density
 _atom_site_pbe_ddec_sum_bond_order
 _atom_site_pbe_magmom
Cd  Cd0  1  0.88072736  0.11927219  0.25000017  1  0  1.221765  0  1.632587  0  0  1.022239  0  2.097087  0  0  1.079839  0  2.039939  0  0  0.802977  0.98092  0  2.136437  0
Cd  Cd1  1  0.11927367  0.88072838  0.74999935  1  0  1.221772  0  1.632632  0  0  1.022267  0  2.097138  0  0  1.079865  0  2.03999  0  0  0.802961  0.980955  0  2.136475  0
H  H2  1  0.74597603  0.81463240  0.96560947  1  0  0.14091  0  0.957508  0  0  0.146899  0  1.023033  0  0  0.150676  0  1.02051  0  0  0.114844  0.144112  0  1.024908  0
H  H3  1  0.18536541  0.25402410  0.53439340  1  0  0.140881  0  0.957525  0  0  0.146902  0  1.023002  0  0  0.150677  0  1.020481  0  0  0.114834  0.144114  0  1.024885  0
H  H4  1  0.25401917  0.18537089  0.03439001  1  0  0.140966  0  0.957483  0  0  0.146962  0  1.022991  0  0  0.150739  0  1.020468  0  0  0.114887  0.144178  0  1.024872  0
H  H5  1  0.81463612  0.74597517  0.46560531  1  0  0.140946  0  0.957449  0  0  0.146938  0  1.022957  0  0  0.150715  0  1.020435  0  0  0.114854  0.144146  0  1.024856  0
H  H6  1  0.28489344  0.71658982  0.07465452  1  0  0.118127  0  0.964809  0  0  0.118348  0  1.038528  0  0  0.122361  0  1.034327  0  0  0.118994  0.115395  0  1.041622  0
H  H7  1  0.28341605  0.71510313  0.42534738  1  0  0.118113  0  0.96482  0  0  0.118337  0  1.038527  0  0  0.12235  0  1.034326  0  0  0.11898  0.115381  0  1.041624  0
H  H8  1  0.71509985  0.28341221  0.92534822  1  0  0.118153  0  0.96473  0  0  0.118364  0  1.038465  0  0  0.122377  0  1.034265  0  0  0.118999  0.115408  0  1.041563  0
H  H9  1  0.71658548  0.28489613  0.57465242  1  0  0.118119  0  0.964811  0  0  0.11835  0  1.038504  0  0  0.122363  0  1.034304  0  0  0.118985  0.115394  0  1.041602  0
H  H10  1  0.45769637  0.95619654  0.61019171  1  0  0.089358  0  0.995578  0  0  0.094158  0  1.067662  0  0  0.097513  0  1.063643  0  0  0.113808  0.09169  0  1.070613  0
H  H11  1  0.04379985  0.54230822  0.88980843  1  0  0.089382  0  0.995566  0  0  0.094153  0  1.067675  0  0  0.097506  0  1.063657  0  0  0.113789  0.091686  0  1.070624  0
H  H12  1  0.54230687  0.04380139  0.38980796  1  0  0.089368  0  0.995566  0  0  0.09413  0  1.067698  0  0  0.097484  0  1.063679  0  0  0.113787  0.091667  0  1.070645  0
H  H13  1  0.95619877  0.45769241  0.11019080  1  0  0.089357  0  0.995599  0  0  0.09412  0  1.067719  0  0  0.097472  0  1.063702  0  0  0.113779  0.091653  0  1.070667  0
C  C14  1  0.74345143  0.97181686  0.64911271  1  0  0.67077  0  3.913369  0  0  0.613638  0  4.214659  0  0  0.649888  0  4.205688  0  0  0.211709  0.589063  0  4.219944  0
C  C15  1  0.02818109  0.25655073  0.85088592  1  0  0.670729  0  3.913431  0  0  0.613596  0  4.214726  0  0  0.649845  0  4.205756  0  0  0.211676  0.589025  0  4.220014  0
C  C16  1  0.25654720  0.02818378  0.35088323  1  0  0.670593  0  3.913561  0  0  0.61345  0  4.214889  0  0  0.6497  0  4.20592  0  0  0.211627  0.588871  0  4.220184  0
C  C17  1  0.97181893  0.74345245  0.14911416  1  0  0.670649  0  3.913536  0  0  0.61347  0  4.214906  0  0  0.649718  0  4.205939  0  0  0.211638  0.588887  0  4.220201  0
C  C18  1  0.61887048  0.89456215  0.77143227  1  0  -0.088968  0  3.733031  0  0  -0.0637  0  3.978055  0  0  -0.075351  0  4.000757  0  0  -0.013409  -0.056514  0  3.963157  0
C  C19  1  0.10543416  0.38113131  0.72857025  1  0  -0.088892  0  3.732888  0  0  -0.063645  0  3.977936  0  0  -0.075297  0  4.000637  0  0  -0.013385  -0.056488  0  3.963075  0
C  C20  1  0.38112984  0.10543713  0.22857121  1  0  -0.088925  0  3.732964  0  0  -0.063669  0  3.978005  0  0  -0.075319  0  4.000705  0  0  -0.013414  -0.056508  0  3.963146  0
C  C21  1  0.89456617  0.61886799  0.27142775  1  0  -0.088863  0  3.732825  0  0  -0.063589  0  3.977853  0  0  -0.075239  0  4.000553  0  0  -0.013371  -0.056403  0  3.962953  0
C  C22  1  0.63917288  0.81993258  0.92932676  1  0  -0.133351  0  3.692683  0  0  -0.174869  0  3.946888  0  0  -0.173183  0  3.964742  0  0  -0.073747  -0.175431  0  3.934921  0
C  C23  1  0.18006592  0.36082704  0.57067469  1  0  -0.133326  0  3.692582  0  0  -0.17487  0  3.94678  0  0  -0.173185  0  3.964635  0  0  -0.073738  -0.175425  0  3.934818  0
C  C24  1  0.36082212  0.18006813  0.07067586  1  0  -0.133382  0  3.692537  0  0  -0.174918  0  3.946724  0  0  -0.173233  0  3.964578  0  0  -0.073782  -0.175474  0  3.934768  0
C  C25  1  0.81993511  0.63917353  0.42932374  1  0  -0.133385  0  3.692566  0  0  -0.174932  0  3.946756  0  0  -0.173247  0  3.964609  0  0  -0.073764  -0.175498  0  3.934786  0
C  C26  1  0.51874055  0.75447753  0.03539465  1  0  0.266815  0  3.762424  0  0  0.258739  0  4.04484  0  0  0.263438  0  4.056682  0  0  0.104243  0.254747  0  4.037271  0
C  C27  1  0.24552311  0.48125953  0.46460921  1  0  0.266781  0  3.76241  0  0  0.258734  0  4.044786  0  0  0.263434  0  4.056626  0  0  0.104245  0.254741  0  4.037217  0
C  C28  1  0.48125635  0.24552442  0.96461019  1  0  0.266699  0  3.762447  0  0  0.258696  0  4.044778  0  0  0.263394  0  4.056619  0  0  0.104233  0.254693  0  4.03722  0
C  C29  1  0.75447843  0.51873974  0.53538839  1  0  0.266713  0  3.762467  0  0  0.258725  0  4.04477  0  0  0.263423  0  4.056611  0  0  0.104226  0.254734  0  4.037196  0
C  C30  1  0.38185807  0.76326379  0.98879227  1  0  0.035437  0  3.661997  0  0  -0.013506  0  3.929188  0  0  -0.005485  0  3.941234  0  0  0.041751  -0.018611  0  3.921065  0
C  C31  1  0.23673912  0.61814108  0.51120876  1  0  0.035468  0  3.662059  0  0  -0.013467  0  3.929212  0  0  -0.005448  0  3.94126  0  0  0.041769  -0.018569  0  3.921085  0
C  C32  1  0.61813934  0.23673685  0.01121064  1  0  0.03547  0  3.662012  0  0  -0.013478  0  3.929169  0  0  -0.005458  0  3.941217  0  0  0.041754  -0.01857  0  3.92104  0
C  C33  1  0.76326291  0.38185687  0.48879241  1  0  0.035515  0  3.662043  0  0  -0.01344  0  3.929173  0  0  -0.005421  0  3.941224  0  0  0.041784  -0.018542  0  3.921045  0
C  C34  1  0.47954945  0.89945740  0.73090493  1  0  0.110478  0  3.678079  0  0  0.058824  0  3.941289  0  0  0.068587  0  3.956177  0  0  0.039624  0.052324  0  3.931508  0
C  C35  1  0.10054114  0.52045354  0.76909513  1  0  0.110452  0  3.678108  0  0  0.058835  0  3.941311  0  0  0.068601  0  3.956197  0  0  0.039624  0.052339  0  3.931542  0
C  C36  1  0.52045037  0.10054319  0.26909610  1  0  0.110441  0  3.678183  0  0  0.058819  0  3.941385  0  0  0.06858  0  3.956278  0  0  0.039626  0.052322  0  3.931618  0
C  C37  1  0.89945919  0.47954575  0.23090287  1  0  0.11046  0  3.678168  0  0  0.058835  0  3.941372  0  0  0.068606  0  3.95625  0  0  0.039636  0.052333  0  3.931592  0
N  N38  1  0.36357802  0.83600630  0.83674025  1  0  -0.312767  0  3.248538  0  0  -0.235411  0  3.525691  0  0  -0.255519  0  3.542816  0  0  -0.318933  -0.221598  0  3.513592  0
N  N39  1  0.16399323  0.63642457  0.66325954  1  0  -0.312799  0  3.248607  0  0  -0.235453  0  3.52575  0  0  -0.255561  0  3.542872  0  0  -0.318932  -0.221639  0  3.513648  0
N  N40  1  0.63642161  0.16399171  0.16326062  1  0  -0.312786  0  3.248677  0  0  -0.235427  0  3.525815  0  0  -0.255535  0  3.542939  0  0  -0.318946  -0.221615  0  3.513717  0
N  N41  1  0.83600901  0.36357597  0.33673849  1  0  -0.312817  0  3.248656  0  0  -0.235465  0  3.525807  0  0  -0.255575  0  3.542932  0  0  -0.318955  -0.221653  0  3.513709  0
O  O42  1  0.73272490  0.01282186  0.50355515  1  0  -0.658505  0  2.035996  0  0  -0.588508  0  2.293783  0  0  -0.618247  0  2.280994  0  0  -0.322804  -0.567501  0  2.301743  0
O  O43  1  0.98717513  0.26727645  0.99644542  1  0  -0.65853  0  2.036007  0  0  -0.588524  0  2.293787  0  0  -0.618266  0  2.280999  0  0  -0.322794  -0.567511  0  2.30174  0
O  O44  1  0.26727593  0.98717612  0.49644751  1  0  -0.658474  0  2.035924  0  0  -0.588498  0  2.293742  0  0  -0.61824  0  2.280953  0  0  -0.322803  -0.567479  0  2.301694  0
O  O45  1  0.01282349  0.73272418  0.00355271  1  0  -0.658529  0  2.035882  0  0  -0.588541  0  2.293728  0  0  -0.618282  0  2.28094  0  0  -0.322836  -0.56753  0  2.301688  0
O  O46  1  0.84335019  0.99406600  0.70081409  1  0  -0.644485  0  2.048218  0  0  -0.583868  0  2.318839  0  0  -0.61137  0  2.305101  0  0  -0.330393  -0.564514  0  2.327613  0
O  O47  1  0.00593428  0.15665223  0.79918596  1  0  -0.644458  0  2.048209  0  0  -0.583828  0  2.318811  0  0  -0.611326  0  2.30507  0  0  -0.330388  -0.56449  0  2.327614  0
O  O48  1  0.15665204  0.00593454  0.29918613  1  0  -0.644308  0  2.048341  0  0  -0.583677  0  2.318951  0  0  -0.611177  0  2.305215  0  0  -0.330309  -0.564326  0  2.327734  0
O  O49  1  0.99406485  0.84334710  0.20081135  1  0  -0.644315  0  2.048354  0  0  -0.583673  0  2.318991  0  0  -0.611174  0  2.305256  0  0  -0.330307  -0.564318  0  2.327765  0
F  F50  1  0.53096970  0.68263439  0.19118487  1  0  -0.204746  0  1.241782  0  0  -0.141895  0  1.395242  0  0  -0.153257  0  1.389891  0  0  -0.087169  -0.133647  0  1.398935  0
F  F51  1  0.31736818  0.46902863  0.30881686  1  0  -0.20472  0  1.241728  0  0  -0.141908  0  1.395195  0  0  -0.153268  0  1.389844  0  0  -0.08717  -0.133659  0  1.398889  0
F  F52  1  0.46902720  0.31736756  0.80881887  1  0  -0.204651  0  1.241796  0  0  -0.141858  0  1.395258  0  0  -0.153219  0  1.389907  0  0  -0.087129  -0.133606  0  1.398954  0
F  F53  1  0.68263405  0.53097191  0.69118227  1  0  -0.204706  0  1.241733  0  0  -0.14191  0  1.395176  0  0  -0.153271  0  1.389825  0  0  -0.087161  -0.133662  0  1.398869  0
