# generated using pymatgen
data_CdH28C28(N5O3)2
_symmetry_space_group_name_H-M   'P 1'
_cell_length_a   8.42232624
_cell_length_b   10.37001474
_cell_length_c   17.48494783
_cell_angle_alpha   90.00000526
_cell_angle_beta   89.99999350
_cell_angle_gamma   94.75339182
_symmetry_Int_Tables_number   1
_chemical_formula_structural   CdH28C28(N5O3)2
_chemical_formula_sum   'Cd2 H56 C56 N20 O12'
_cell_volume   1521.87676419
_cell_formula_units_Z   2
loop_
 _symmetry_equiv_pos_site_id
 _symmetry_equiv_pos_as_xyz
  1  'x, y, z'
loop_
 _atom_site_type_symbol
 _atom_site_label
 _atom_site_symmetry_multiplicity
 _atom_site_fract_x
 _atom_site_fract_y
 _atom_site_fract_z
 _atom_site_occupancy
 _atom_site_hle17_bader_spin_density
 _atom_site_hle17_ddec_charge
 _atom_site_hle17_ddec_spin_density
 _atom_site_hle17_ddec_sum_bond_order
 _atom_site_hle17_magmom
 _atom_site_hse06_10hf_bader_spin_density
 _atom_site_hse06_10hf_ddec_charge
 _atom_site_hse06_10hf_ddec_spin_density
 _atom_site_hse06_10hf_ddec_sum_bond_order
 _atom_site_hse06_10hf_magmom
 _atom_site_hse06_bader_spin_density
 _atom_site_hse06_ddec_charge
 _atom_site_hse06_ddec_spin_density
 _atom_site_hse06_ddec_sum_bond_order
 _atom_site_hse06_magmom
 _atom_site_pbe_bader_spin_density
 _atom_site_pbe_cm5_charge
 _atom_site_pbe_ddec_charge
 _atom_site_pbe_ddec_spin_density
 _atom_site_pbe_ddec_sum_bond_order
 _atom_site_pbe_magmom
Cd  Cd0  1  0.00000006  0.00000100  0.50000035  1  0  1.026699  0  1.790431  0  0  0.812992  0  2.247497  0  0  0.864505  0  2.205023  0  0  0.792144  0.776538  0  2.276441  0
Cd  Cd1  1  0.50000032  0.49999960  0.00000000  1  0  1.026656  0  1.790466  0  0  0.812948  0  2.24753  0  0  0.864458  0  2.205064  0  0  0.792114  0.776492  0  2.276475  0
H  H2  1  0.71472683  0.12705463  0.57832713  1  0  0.092619  0  0.949303  0  0  0.097111  0  1.01901  0  0  0.099698  0  1.016375  0  0  0.117545  0.095272  0  1.020697  0
H  H3  1  0.21472227  0.62705611  0.92167048  1  0  0.09255  0  0.949429  0  0  0.097092  0  1.019071  0  0  0.09968  0  1.016436  0  0  0.117549  0.095253  0  1.020756  0
H  H4  1  0.28527405  0.87294753  0.42167414  1  0  0.092652  0  0.949276  0  0  0.097117  0  1.018995  0  0  0.099702  0  1.016358  0  0  0.117576  0.095279  0  1.020679  0
H  H5  1  0.78528028  0.37294022  0.07832793  1  0  0.092559  0  0.949364  0  0  0.097105  0  1.019021  0  0  0.099695  0  1.016384  0  0  0.117533  0.095266  0  1.020707  0
H  H6  1  0.65478308  0.32183286  0.65391501  1  0  0.112872  0  0.943177  0  0  0.121102  0  1.003706  0  0  0.124622  0  1.002511  0  0  0.111889  0.118587  0  1.00477  0
H  H7  1  0.15478245  0.82183719  0.84608204  1  0  0.112844  0  0.943219  0  0  0.121076  0  1.003751  0  0  0.124596  0  1.002555  0  0  0.111888  0.118562  0  1.004809  0
H  H8  1  0.34521650  0.67816835  0.34608569  1  0  0.112841  0  0.943218  0  0  0.121102  0  1.003713  0  0  0.124621  0  1.002519  0  0  0.111886  0.118585  0  1.004779  0
H  H9  1  0.84521785  0.17816014  0.15391751  1  0  0.112867  0  0.943172  0  0  0.121111  0  1.003689  0  0  0.124634  0  1.002493  0  0  0.11187  0.118596  0  1.004751  0
H  H10  1  0.88010842  0.47509895  0.69830919  1  0  0.101029  0  0.982098  0  0  0.111935  0  1.044478  0  0  0.114323  0  1.042837  0  0  0.107158  0.110145  0  1.045688  0
H  H11  1  0.38011124  0.97510226  0.80168957  1  0  0.101022  0  0.98216  0  0  0.111937  0  1.044525  0  0  0.114325  0  1.042887  0  0  0.107153  0.110147  0  1.045736  0
H  H12  1  0.11989150  0.52490516  0.30169036  1  0  0.101058  0  0.982138  0  0  0.111937  0  1.044548  0  0  0.114325  0  1.042909  0  0  0.107152  0.110148  0  1.045758  0
H  H13  1  0.61988822  0.02489798  0.19831113  1  0  0.101003  0  0.982186  0  0  0.111922  0  1.044545  0  0  0.114311  0  1.042906  0  0  0.10715  0.110131  0  1.045756  0
H  H14  1  0.20144645  0.23652763  0.58424653  1  0  0.077491  0  0.989802  0  0  0.075869  0  1.075429  0  0  0.0785  0  1.072795  0  0  0.112586  0.074092  0  1.077061  0
H  H15  1  0.70144187  0.73652634  0.91575452  1  0  0.077489  0  0.989844  0  0  0.07588  0  1.075451  0  0  0.078508  0  1.072823  0  0  0.11259  0.074103  0  1.077081  0
H  H16  1  0.79855443  0.76347453  0.41575532  1  0  0.07744  0  0.989847  0  0  0.07582  0  1.075462  0  0  0.078452  0  1.072827  0  0  0.112576  0.074043  0  1.077093  0
H  H17  1  0.29856007  0.26347484  0.08424503  1  0  0.077499  0  0.989817  0  0  0.075888  0  1.075425  0  0  0.078519  0  1.072795  0  0  0.112598  0.074111  0  1.077056  0
H  H18  1  0.29786209  0.56357063  0.76013782  1  0  0.11958  0  0.962413  0  0  0.135462  0  1.029882  0  0  0.136882  0  1.03099  0  0  0.0948  0.134452  0  1.029062  0
H  H19  1  0.79786210  0.06357116  0.73986150  1  0  0.119573  0  0.962425  0  0  0.135456  0  1.029878  0  0  0.136876  0  1.030986  0  0  0.094791  0.134447  0  1.029058  0
H  H20  1  0.70214081  0.43642860  0.23986288  1  0  0.1196  0  0.962462  0  0  0.135471  0  1.029936  0  0  0.136892  0  1.031042  0  0  0.094805  0.134461  0  1.029116  0
H  H21  1  0.20213522  0.93643104  0.26013577  1  0  0.119629  0  0.962397  0  0  0.135509  0  1.029852  0  0  0.13693  0  1.03096  0  0  0.094803  0.134497  0  1.029033  0
H  H22  1  0.08635313  0.52686084  0.76849301  1  0  0.125585  0  0.971958  0  0  0.139984  0  1.041645  0  0  0.141909  0  1.040834  0  0  0.092794  0.138497  0  1.042317  0
H  H23  1  0.58635434  0.02686136  0.73150689  1  0  0.125616  0  0.97199  0  0  0.140014  0  1.041655  0  0  0.141936  0  1.040845  0  0  0.092809  0.138526  0  1.042327  0
H  H24  1  0.91364728  0.47313745  0.23150826  1  0  0.125614  0  0.97198  0  0  0.140018  0  1.041651  0  0  0.141942  0  1.040845  0  0  0.092806  0.13853  0  1.042324  0
H  H25  1  0.41364275  0.97313891  0.26849153  1  0  0.125614  0  0.971998  0  0  0.140014  0  1.04166  0  0  0.14194  0  1.040849  0  0  0.092823  0.138525  0  1.042331  0
H  H26  1  0.16780818  0.65113558  0.70594150  1  0  0.12701  0  0.937819  0  0  0.151387  0  0.992632  0  0  0.152343  0  0.99346  0  0  0.099671  0.150696  0  0.992074  0
H  H27  1  0.66780795  0.15113418  0.79405840  1  0  0.127039  0  0.937818  0  0  0.151357  0  0.992702  0  0  0.152314  0  0.993528  0  0  0.099649  0.150661  0  0.99215  0
H  H28  1  0.83219388  0.34886657  0.29406034  1  0  0.127034  0  0.937827  0  0  0.151418  0  0.992616  0  0  0.152376  0  0.993442  0  0  0.099706  0.150731  0  0.992055  0
H  H29  1  0.33218925  0.84886706  0.20593944  1  0  0.12705  0  0.937807  0  0  0.151368  0  0.992694  0  0  0.152326  0  0.993522  0  0  0.09965  0.150677  0  0.992136  0
H  H30  1  0.32119053  0.58778220  0.51938103  1  0  0.123272  0  0.950818  0  0  0.141216  0  1.010134  0  0  0.143675  0  1.009892  0  0  0.095328  0.139461  0  1.010334  0
H  H31  1  0.82119287  0.08778273  0.98061943  1  0  0.123273  0  0.950806  0  0  0.141218  0  1.010116  0  0  0.143676  0  1.009877  0  0  0.09533  0.139462  0  1.010315  0
H  H32  1  0.67880774  0.41221806  0.48061853  1  0  0.123289  0  0.950793  0  0  0.141233  0  1.010104  0  0  0.143691  0  1.009863  0  0  0.095334  0.139477  0  1.010304  0
H  H33  1  0.17880908  0.91221845  0.01938126  1  0  0.123294  0  0.950871  0  0  0.141244  0  1.010167  0  0  0.143701  0  1.009929  0  0  0.095345  0.139489  0  1.010367  0
H  H34  1  0.49739998  0.67493590  0.48344154  1  0  0.127501  0  0.959266  0  0  0.142794  0  1.030614  0  0  0.144577  0  1.030025  0  0  0.096118  0.141513  0  1.030964  0
H  H35  1  0.99740135  0.17493735  0.01655936  1  0  0.12749  0  0.959271  0  0  0.142784  0  1.030609  0  0  0.144584  0  1.030004  0  0  0.096108  0.141501  0  1.030962  0
H  H36  1  0.50259711  0.32506438  0.51655859  1  0  0.127483  0  0.959304  0  0  0.142778  0  1.03065  0  0  0.14456  0  1.030063  0  0  0.096101  0.141497  0  1.031  0
H  H37  1  0.00260084  0.82506576  0.98344019  1  0  0.127483  0  0.959256  0  0  0.142776  0  1.030607  0  0  0.144564  0  1.030015  0  0  0.09611  0.141494  0  1.03096  0
H  H38  1  0.36404808  0.75487377  0.54146860  1  0  0.134639  0  0.95568  0  0  0.153169  0  1.020228  0  0  0.15462  0  1.019967  0  0  0.097247  0.152119  0  1.020411  0
H  H39  1  0.86404923  0.25487431  0.95853187  1  0  0.134625  0  0.955691  0  0  0.153162  0  1.02023  0  0  0.154614  0  1.01997  0  0  0.09725  0.152112  0  1.020411  0
H  H40  1  0.63595008  0.24512552  0.45853153  1  0  0.134638  0  0.955686  0  0  0.153169  0  1.02023  0  0  0.154621  0  1.019968  0  0  0.097248  0.152119  0  1.020413  0
H  H41  1  0.13595035  0.74512690  0.04146883  1  0  0.134635  0  0.955668  0  0  0.153167  0  1.020216  0  0  0.154618  0  1.019955  0  0  0.097256  0.152116  0  1.020398  0
H  H42  1  0.67315846  0.81971651  0.52265756  1  0  0.081138  0  0.986153  0  0  0.084318  0  1.062694  0  0  0.087679  0  1.058975  0  0  0.112502  0.081693  0  1.065545  0
H  H43  1  0.17315917  0.31971596  0.97734293  1  0  0.081135  0  0.986106  0  0  0.084307  0  1.062672  0  0  0.087672  0  1.058948  0  0  0.112495  0.081683  0  1.065524  0
H  H44  1  0.32684088  0.18028276  0.47734257  1  0  0.08113  0  0.986148  0  0  0.084328  0  1.062679  0  0  0.087675  0  1.058979  0  0  0.112508  0.081703  0  1.065531  0
H  H45  1  0.82684041  0.68028525  0.02265663  1  0  0.081178  0  0.986087  0  0  0.084357  0  1.062634  0  0  0.087719  0  1.058915  0  0  0.112519  0.081733  0  1.065485  0
H  H46  1  0.66715432  0.61482444  0.73770709  1  0  0.100417  0  0.947754  0  0  0.10388  0  1.021293  0  0  0.107378  0  1.018494  0  0  0.108338  0.101434  0  1.023109  0
H  H47  1  0.16715874  0.11482478  0.76229281  1  0  0.100435  0  0.947712  0  0  0.103886  0  1.021282  0  0  0.107384  0  1.018481  0  0  0.108327  0.101442  0  1.023094  0
H  H48  1  0.33284467  0.38517193  0.26229132  1  0  0.100435  0  0.947752  0  0  0.103899  0  1.021304  0  0  0.107395  0  1.018507  0  0  0.108354  0.101459  0  1.023101  0
H  H49  1  0.83284286  0.88517349  0.23770789  1  0  0.100448  0  0.947738  0  0  0.103907  0  1.021292  0  0  0.107408  0  1.018487  0  0  0.108345  0.101466  0  1.023093  0
H  H50  1  0.92205488  0.74255272  0.77092652  1  0  0.112743  0  0.958122  0  0  0.116841  0  1.027424  0  0  0.120754  0  1.025475  0  0  0.108248  0.113919  0  1.029204  0
H  H51  1  0.42205836  0.24255501  0.72907509  1  0  0.11268  0  0.958148  0  0  0.116801  0  1.027433  0  0  0.120678  0  1.02552  0  0  0.108203  0.11388  0  1.029212  0
H  H52  1  0.07794732  0.25744070  0.22907247  1  0  0.112659  0  0.958147  0  0  0.116758  0  1.027443  0  0  0.120656  0  1.02551  0  0  0.10821  0.113836  0  1.029222  0
H  H53  1  0.57794454  0.75744422  0.27092618  1  0  0.11267  0  0.958159  0  0  0.116763  0  1.027469  0  0  0.120678  0  1.025516  0  0  0.108198  0.113842  0  1.029248  0
H  H54  1  0.05041632  0.89582740  0.67266775  1  0  0.078953  0  0.965805  0  0  0.081197  0  1.042175  0  0  0.08483  0  1.037468  0  0  0.110034  0.078419  0  1.045674  0
H  H55  1  0.55041893  0.39582985  0.82733332  1  0  0.078946  0  0.965755  0  0  0.081186  0  1.04212  0  0  0.084825  0  1.037408  0  0  0.110023  0.078406  0  1.045623  0
H  H56  1  0.94958469  0.10416604  0.32733181  1  0  0.078964  0  0.965794  0  0  0.081206  0  1.042156  0  0  0.084842  0  1.037447  0  0  0.110018  0.078433  0  1.045651  0
H  H57  1  0.44958172  0.60417038  0.17266681  1  0  0.078964  0  0.965762  0  0  0.081206  0  1.042126  0  0  0.084842  0  1.037419  0  0  0.110026  0.078426  0  1.045627  0
C  C58  1  0.80979604  0.19704012  0.59779016  1  0  0.130967  0  3.676865  0  0  0.098061  0  3.927817  0  0  0.106472  0  3.945254  0  0  0.04636  0.092612  0  3.915899  0
C  C59  1  0.30979244  0.69703965  0.90220745  1  0  0.130974  0  3.676919  0  0  0.098065  0  3.927814  0  0  0.106472  0  3.945256  0  0  0.046323  0.092616  0  3.915897  0
C  C60  1  0.19020484  0.80296204  0.40221111  1  0  0.130845  0  3.676845  0  0  0.097958  0  3.92782  0  0  0.106378  0  3.945242  0  0  0.046339  0.092508  0  3.915901  0
C  C61  1  0.69020785  0.30295768  0.09779096  1  0  0.131015  0  3.676967  0  0  0.098063  0  3.927913  0  0  0.106471  0  3.945353  0  0  0.046381  0.092613  0  3.915995  0
C  C62  1  0.77748567  0.30511110  0.64022437  1  0  -0.098418  0  3.707121  0  0  -0.10664  0  3.955416  0  0  -0.113889  0  3.97563  0  0  -0.07525  -0.102286  0  3.94212  0
C  C63  1  0.27748385  0.80511545  0.85977553  1  0  -0.098468  0  3.707045  0  0  -0.106729  0  3.955376  0  0  -0.113972  0  3.97558  0  0  -0.075295  -0.102377  0  3.942086  0
C  C64  1  0.22251414  0.69489204  0.35977632  1  0  -0.098363  0  3.70709  0  0  -0.106593  0  3.955357  0  0  -0.113848  0  3.975586  0  0  -0.075273  -0.102239  0  3.942061  0
C  C65  1  0.72251561  0.19488480  0.14022574  1  0  -0.098497  0  3.707032  0  0  -0.106739  0  3.955349  0  0  -0.113989  0  3.975562  0  0  -0.075283  -0.102385  0  3.942053  0
C  C66  1  0.90327902  0.39141131  0.66394363  1  0  -0.026616  0  3.665273  0  0  -0.05328  0  3.901579  0  0  -0.048861  0  3.918912  0  0  -0.060546  -0.05592  0  3.889926  0
C  C67  1  0.40328053  0.89141368  0.83605627  1  0  -0.026591  0  3.665285  0  0  -0.053266  0  3.901576  0  0  -0.04885  0  3.918914  0  0  -0.060555  -0.055906  0  3.889925  0
C  C68  1  0.09672067  0.60859086  0.33605649  1  0  -0.02663  0  3.665232  0  0  -0.053277  0  3.90155  0  0  -0.048862  0  3.918883  0  0  -0.060506  -0.055919  0  3.889898  0
C  C69  1  0.59671881  0.10858560  0.16394386  1  0  -0.02656  0  3.665316  0  0  -0.053233  0  3.901615  0  0  -0.048814  0  3.91895  0  0  -0.060554  -0.055873  0  3.889962  0
C  C70  1  0.05974053  0.36872121  0.64395275  1  0  -0.035821  0  3.766595  0  0  -0.012316  0  3.995332  0  0  -0.01884  0  4.017562  0  0  -0.002297  -0.008246  0  3.980345  0
C  C71  1  0.55973976  0.86872181  0.85604717  1  0  -0.035785  0  3.766606  0  0  -0.01225  0  3.995318  0  0  -0.018777  0  4.017556  0  0  -0.002263  -0.00818  0  3.98033  0
C  C72  1  0.94025916  0.63128097  0.35604795  1  0  -0.035887  0  3.76654  0  0  -0.012396  0  3.995283  0  0  -0.018912  0  4.017499  0  0  -0.002352  -0.008323  0  3.980296  0
C  C73  1  0.44025959  0.13127747  0.14395181  1  0  -0.035868  0  3.766659  0  0  -0.012352  0  3.995378  0  0  -0.018881  0  4.017618  0  0  -0.002272  -0.008279  0  3.98039  0
C  C74  1  0.08151454  0.25786370  0.60054741  1  0  0.100318  0  3.677056  0  0  0.059492  0  3.92802  0  0  0.067392  0  3.946104  0  0  0.047641  0.05392  0  3.916427  0
C  C75  1  0.58151246  0.75786334  0.89945365  1  0  0.100253  0  3.677101  0  0  0.05938  0  3.92811  0  0  0.067301  0  3.946155  0  0  0.047623  0.053809  0  3.916512  0
C  C76  1  0.91848515  0.74213848  0.39945386  1  0  0.100421  0  3.677004  0  0  0.059645  0  3.927894  0  0  0.067525  0  3.94601  0  0  0.047716  0.054071  0  3.916301  0
C  C77  1  0.41848937  0.24213687  0.10054591  1  0  0.100309  0  3.677071  0  0  0.05944  0  3.928083  0  0  0.067355  0  3.946143  0  0  0.04764  0.053867  0  3.916489  0
C  C78  1  0.19700662  0.45845118  0.66574120  1  0  0.249146  0  3.714396  0  0  0.245379  0  3.972  0  0  0.256326  0  3.987889  0  0  0.138883  0.238108  0  3.96101  0
C  C79  1  0.69700703  0.95845176  0.83425929  1  0  0.249128  0  3.714415  0  0  0.245357  0  3.971992  0  0  0.256301  0  3.987886  0  0  0.138887  0.238087  0  3.960999  0
C  C80  1  0.80299308  0.54155100  0.33425893  1  0  0.249152  0  3.71437  0  0  0.245388  0  3.971982  0  0  0.256337  0  3.987865  0  0  0.138891  0.238112  0  3.960993  0
C  C81  1  0.30299017  0.04154948  0.16573969  1  0  0.249186  0  3.714428  0  0  0.245462  0  3.971943  0  0  0.256411  0  3.987833  0  0  0.138903  0.238186  0  3.960953  0
C  C82  1  0.18425660  0.55433978  0.72893842  1  0  -0.385375  0  3.711283  0  0  -0.462793  0  3.944323  0  0  -0.467543  0  3.953164  0  0  -0.244152  -0.459144  0  3.938093  0
C  C83  1  0.68425767  0.05433934  0.77106148  1  0  -0.385396  0  3.711351  0  0  -0.462783  0  3.94445  0  0  -0.467532  0  3.953292  0  0  -0.244117  -0.45913  0  3.938226  0
C  C84  1  0.81574512  0.44565946  0.27106228  1  0  -0.385415  0  3.711292  0  0  -0.462847  0  3.944381  0  0  -0.467601  0  3.953222  0  0  -0.244189  -0.459201  0  3.938151  0
C  C85  1  0.31574048  0.94565995  0.22893808  1  0  -0.38545  0  3.71127  0  0  -0.462861  0  3.944383  0  0  -0.467615  0  3.953224  0  0  -0.244138  -0.459206  0  3.938151  0
C  C86  1  0.41691571  0.66233410  0.53278570  1  0  -0.384988  0  3.694868  0  0  -0.46187  0  3.924704  0  0  -0.46668  0  3.932399  0  0  -0.243855  -0.458273  0  3.919348  0
C  C87  1  0.91691567  0.16233466  0.96721533  1  0  -0.384917  0  3.694772  0  0  -0.461789  0  3.924604  0  0  -0.466615  0  3.932282  0  0  -0.243804  -0.458191  0  3.919248  0
C  C88  1  0.58308363  0.33766518  0.46721443  1  0  -0.384984  0  3.694849  0  0  -0.461879  0  3.924661  0  0  -0.46669  0  3.932354  0  0  -0.243849  -0.45828  0  3.919304  0
C  C89  1  0.08308402  0.83766752  0.03278537  1  0  -0.384978  0  3.694789  0  0  -0.461821  0  3.924647  0  0  -0.466634  0  3.932338  0  0  -0.24383  -0.458223  0  3.919291  0
C  C90  1  0.50437043  0.62568125  0.60296377  1  0  0.261529  0  3.695404  0  0  0.257458  0  3.950783  0  0  0.268908  0  3.966513  0  0  0.143055  0.249608  0  3.940321  0
C  C91  1  0.00437245  0.12568164  0.89703728  1  0  0.261494  0  3.695327  0  0  0.257407  0  3.950735  0  0  0.268857  0  3.966467  0  0  0.143033  0.249558  0  3.940273  0
C  C92  1  0.49562773  0.37431804  0.39703578  1  0  0.261505  0  3.695478  0  0  0.257483  0  3.950778  0  0  0.268936  0  3.966503  0  0  0.143083  0.249633  0  3.940319  0
C  C93  1  0.99562618  0.87432152  0.10296227  1  0  0.261589  0  3.695336  0  0  0.257415  0  3.950896  0  0  0.268864  0  3.966629  0  0  0.143036  0.249566  0  3.940433  0
C  C94  1  0.72656302  0.79589033  0.57717473  1  0  0.096305  0  3.655874  0  0  0.059215  0  3.899134  0  0  0.065733  0  3.9171  0  0  0.046122  0.05509  0  3.886872  0
C  C95  1  0.22656492  0.29588975  0.92282632  1  0  0.096399  0  3.655746  0  0  0.059308  0  3.899021  0  0  0.065824  0  3.916981  0  0  0.046123  0.055182  0  3.886761  0
C  C96  1  0.27343632  0.20410895  0.42282597  1  0  0.096356  0  3.655748  0  0  0.05924  0  3.899008  0  0  0.065766  0  3.916987  0  0  0.046123  0.055113  0  3.886748  0
C  C97  1  0.77343466  0.70411146  0.07717324  1  0  0.096394  0  3.655664  0  0  0.059311  0  3.898956  0  0  0.065828  0  3.916917  0  0  0.046129  0.055185  0  3.886696  0
C  C98  1  0.65223804  0.70196795  0.62602189  1  0  -0.033305  0  3.749314  0  0  -0.010662  0  3.977668  0  0  -0.016769  0  4.000833  0  0  -0.000849  -0.006958  0  3.962411  0
C  C99  1  0.15223877  0.20196738  0.87397916  1  0  -0.033288  0  3.749194  0  0  -0.010652  0  3.977587  0  0  -0.01676  0  4.000755  0  0  -0.00081  -0.006948  0  3.96233  0
C  C100  1  0.34776118  0.29803036  0.37397767  1  0  -0.033288  0  3.7493  0  0  -0.010638  0  3.977622  0  0  -0.016745  0  4.000785  0  0  -0.000835  -0.006934  0  3.962366  0
C  C101  1  0.84775962  0.79803384  0.12602039  1  0  -0.033278  0  3.749167  0  0  -0.010662  0  3.977654  0  0  -0.016768  0  4.00082  0  0  -0.000805  -0.006959  0  3.962398  0
C  C102  1  0.72379251  0.68448626  0.69745476  1  0  -0.030448  0  3.688181  0  0  -0.060437  0  3.941031  0  0  -0.056495  0  3.958274  0  0  -0.060946  -0.062714  0  3.929364  0
C  C103  1  0.22379574  0.18448662  0.80254629  1  0  -0.030478  0  3.688074  0  0  -0.060468  0  3.940938  0  0  -0.056526  0  3.958173  0  0  -0.060921  -0.062746  0  3.929272  0
C  C104  1  0.27620755  0.31550913  0.30254480  1  0  -0.030476  0  3.688194  0  0  -0.060498  0  3.941032  0  0  -0.056556  0  3.95827  0  0  -0.060983  -0.062773  0  3.929367  0
C  C105  1  0.77620597  0.81551262  0.19745384  1  0  -0.030555  0  3.688145  0  0  -0.060546  0  3.941016  0  0  -0.056604  0  3.958254  0  0  -0.060958  -0.062822  0  3.929351  0
C  C106  1  0.86582337  0.75548128  0.71565555  1  0  -0.114529  0  3.730391  0  0  -0.124646  0  3.98534  0  0  -0.132165  0  4.006428  0  0  -0.081834  -0.120123  0  3.971486  0
C  C107  1  0.36582684  0.25548357  0.78434606  1  0  -0.114499  0  3.730369  0  0  -0.124623  0  3.98529  0  0  -0.13211  0  4.006397  0  0  -0.081863  -0.1201  0  3.971436  0
C  C108  1  0.13417657  0.24451315  0.28434400  1  0  -0.114451  0  3.730295  0  0  -0.124531  0  3.985207  0  0  -0.132035  0  4.006302  0  0  -0.081816  -0.120009  0  3.971355  0
C  C109  1  0.63417488  0.74451567  0.21565464  1  0  -0.114433  0  3.730271  0  0  -0.124516  0  3.98517  0  0  -0.132033  0  4.006257  0  0  -0.081831  -0.119994  0  3.971316  0
C  C110  1  0.93557571  0.84215508  0.66190990  1  0  0.127694  0  3.690538  0  0  0.094404  0  3.944304  0  0  0.102994  0  3.96027  0  0  0.043315  0.088924  0  3.933508  0
C  C111  1  0.43557786  0.34215643  0.83809172  1  0  0.127806  0  3.690541  0  0  0.094528  0  3.944282  0  0  0.103115  0  3.960237  0  0  0.043389  0.089047  0  3.933486  0
C  C112  1  0.06442542  0.15783933  0.33808966  1  0  0.127607  0  3.690604  0  0  0.094313  0  3.944351  0  0  0.102903  0  3.960313  0  0  0.043313  0.088828  0  3.933551  0
C  C113  1  0.56442279  0.65784380  0.16190841  1  0  0.127712  0  3.690548  0  0  0.09443  0  3.944268  0  0  0.103015  0  3.960236  0  0  0.043348  0.08895  0  3.933473  0
N  N114  1  0.96014647  0.17441281  0.57828595  1  0  -0.339892  0  3.286167  0  0  -0.255749  0  3.551495  0  0  -0.277322  0  3.571484  0  0  -0.337169  -0.240942  0  3.537518  0
N  N115  1  0.46014191  0.67441429  0.92171394  1  0  -0.339746  0  3.286105  0  0  -0.255599  0  3.551401  0  0  -0.277177  0  3.571399  0  0  -0.33711  -0.240792  0  3.537422  0
N  N116  1  0.03985548  0.82558837  0.42171532  1  0  -0.339888  0  3.286222  0  0  -0.255764  0  3.551543  0  0  -0.277333  0  3.571522  0  0  -0.337222  -0.240958  0  3.537565  0
N  N117  1  0.53985992  0.32558592  0.07828504  1  0  -0.339805  0  3.28623  0  0  -0.255644  0  3.551551  0  0  -0.277219  0  3.571545  0  0  -0.33715  -0.240837  0  3.537573  0
N  N118  1  0.32670442  0.45211897  0.62633473  1  0  -0.22656  0  3.141713  0  0  -0.195972  0  3.424587  0  0  -0.21026  0  3.445838  0  0  -0.193746  -0.186  0  3.409426  0
N  N119  1  0.82670483  0.95211955  0.87366632  1  0  -0.226566  0  3.141706  0  0  -0.195979  0  3.424575  0  0  -0.21027  0  3.44583  0  0  -0.193779  -0.186008  0  3.409412  0
N  N120  1  0.67329504  0.54788127  0.37366540  1  0  -0.226504  0  3.141708  0  0  -0.195922  0  3.424594  0  0  -0.210208  0  3.445842  0  0  -0.193725  -0.185948  0  3.409432  0
N  N121  1  0.17329380  0.04788361  0.12633266  1  0  -0.226606  0  3.141751  0  0  -0.196027  0  3.424598  0  0  -0.210317  0  3.44585  0  0  -0.193793  -0.186053  0  3.409437  0
N  N122  1  0.45626671  0.52907780  0.64667966  1  0  -0.227928  0  3.138334  0  0  -0.194328  0  3.419977  0  0  -0.209574  0  3.442112  0  0  -0.191908  -0.183651  0  3.404281  0
N  N123  1  0.95626670  0.02907834  0.85332079  1  0  -0.227958  0  3.138364  0  0  -0.194336  0  3.420003  0  0  -0.209582  0  3.442137  0  0  -0.191918  -0.183661  0  3.404309  0
N  N124  1  0.54373252  0.47092051  0.35331990  1  0  -0.227981  0  3.138387  0  0  -0.194398  0  3.420024  0  0  -0.209644  0  3.442156  0  0  -0.191932  -0.183724  0  3.40433  0
N  N125  1  0.04373074  0.97092483  0.14667819  1  0  -0.228  0  3.138425  0  0  -0.194352  0  3.420103  0  0  -0.209598  0  3.442239  0  0  -0.191938  -0.183678  0  3.404407  0
N  N126  1  0.86613484  0.86246187  0.59409557  1  0  -0.336309  0  3.257435  0  0  -0.257394  0  3.522219  0  0  -0.277511  0  3.542172  0  0  -0.329398  -0.24365  0  3.508129  0
N  N127  1  0.36613674  0.36246129  0.90590548  1  0  -0.336448  0  3.257534  0  0  -0.257529  0  3.522328  0  0  -0.277647  0  3.542286  0  0  -0.329413  -0.243783  0  3.508239  0
N  N128  1  0.13386450  0.13753741  0.40590456  1  0  -0.336274  0  3.25744  0  0  -0.25736  0  3.522225  0  0  -0.277476  0  3.542176  0  0  -0.329385  -0.243615  0  3.508136  0
N  N129  1  0.63386390  0.63753894  0.09409465  1  0  -0.336442  0  3.257451  0  0  -0.257514  0  3.522239  0  0  -0.277633  0  3.542197  0  0  -0.329424  -0.243769  0  3.508149  0
N  N130  1  0.66229794  0.98722306  0.39117075  1  0  0.696333  0  4.146942  0  0  0.729528  0  4.438182  0  0  0.757068  0  4.443897  0  0  0.099765  0.710776  0  4.433988  0
N  N131  1  0.16229883  0.48722343  0.10883019  1  0  0.696291  0  4.146965  0  0  0.729629  0  4.438039  0  0  0.757178  0  4.443745  0  0  0.099792  0.710876  0  4.43385  0
N  N132  1  0.33770520  0.01277810  0.60882823  1  0  0.696613  0  4.146509  0  0  0.729544  0  4.438028  0  0  0.757081  0  4.443751  0  0  0.099776  0.710793  0  4.433837  0
N  N133  1  0.83770300  0.51277678  0.89117051  1  0  0.696467  0  4.146904  0  0  0.729629  0  4.438168  0  0  0.757176  0  4.443879  0  0  0.099793  0.710877  0  4.433972  0
O  O134  1  0.73853216  0.03200023  0.45085863  1  0  -0.538136  0  1.821319  0  0  -0.513401  0  2.071618  0  0  -0.530542  0  2.060016  0  0  -0.23026  -0.501162  0  2.079115  0
O  O135  1  0.23853195  0.53199774  0.04914113  1  0  -0.538145  0  1.821411  0  0  -0.513482  0  2.071717  0  0  -0.530626  0  2.060114  0  0  -0.230276  -0.501243  0  2.079216  0
O  O136  1  0.26146991  0.96800192  0.54914149  1  0  -0.538215  0  1.821317  0  0  -0.513406  0  2.071705  0  0  -0.530549  0  2.060104  0  0  -0.230247  -0.501168  0  2.079204  0
O  O137  1  0.76146857  0.46800152  0.95085842  1  0  -0.538189  0  1.821373  0  0  -0.513475  0  2.071728  0  0  -0.530619  0  2.060126  0  0  -0.230295  -0.501236  0  2.079225  0
O  O138  1  0.57685403  0.88181495  0.39598804  1  0  -0.456243  0  1.740176  0  0  -0.44712  0  1.954073  0  0  -0.46016  0  1.947629  0  0  -0.184442  -0.437902  0  1.958389  0
O  O139  1  0.07685042  0.38181731  0.10401405  1  0  -0.456234  0  1.740188  0  0  -0.447129  0  1.954  0  0  -0.460184  0  1.947567  0  0  -0.184434  -0.437909  0  1.958317  0
O  O140  1  0.42315361  0.11818422  0.60400980  1  0  -0.456385  0  1.740018  0  0  -0.44717  0  1.953999  0  0  -0.460201  0  1.947538  0  0  -0.184456  -0.437952  0  1.958316  0
O  O141  1  0.92314904  0.61818293  0.89598551  1  0  -0.456293  0  1.74017  0  0  -0.447143  0  1.95405  0  0  -0.46019  0  1.94761  0  0  -0.184436  -0.437924  0  1.958366  0
O  O142  1  0.67423054  0.05056958  0.32975561  1  0  -0.455905  0  1.73775  0  0  -0.449675  0  1.945069  0  0  -0.462317  0  1.939146  0  0  -0.188818  -0.440621  0  1.948994  0
O  O143  1  0.17423208  0.55057193  0.17024530  1  0  -0.455845  0  1.73761  0  0  -0.449686  0  1.944923  0  0  -0.462311  0  1.938965  0  0  -0.18883  -0.44063  0  1.948846  0
O  O144  1  0.32577034  0.94943258  0.67024451  1  0  -0.455991  0  1.73753  0  0  -0.449653  0  1.944937  0  0  -0.462282  0  1.93899  0  0  -0.188826  -0.440595  0  1.948853  0
O  O145  1  0.82577200  0.44942729  0.82975597  1  0  -0.455934  0  1.737658  0  0  -0.449682  0  1.944983  0  0  -0.462323  0  1.939052  0  0  -0.188808  -0.440625  0  1.948906  0
