# generated using pymatgen
data_ZnH13C11N5O4
_symmetry_space_group_name_H-M   'P 1'
_cell_length_a   8.22666141
_cell_length_b   8.69746378
_cell_length_c   9.95964965
_cell_angle_alpha   89.99991321
_cell_angle_beta   89.99996403
_cell_angle_gamma   106.08414587
_symmetry_Int_Tables_number   1
_chemical_formula_structural   ZnH13C11N5O4
_chemical_formula_sum   'Zn2 H26 C22 N10 O8'
_cell_volume   684.72873344
_cell_formula_units_Z   2
loop_
 _symmetry_equiv_pos_site_id
 _symmetry_equiv_pos_as_xyz
  1  'x, y, z'
loop_
 _atom_site_type_symbol
 _atom_site_label
 _atom_site_symmetry_multiplicity
 _atom_site_fract_x
 _atom_site_fract_y
 _atom_site_fract_z
 _atom_site_occupancy
 _atom_site_pbe_bader_spin_density
 _atom_site_pbe_cm5_charge
 _atom_site_pbe_ddec_charge
 _atom_site_pbe_ddec_spin_density
 _atom_site_pbe_ddec_sum_bond_order
 _atom_site_pbe_magmom
Zn  Zn0  1  0.40803546  0.55740156  0.42125129  1  0  0.6682  0.750232  0  2.34883  0
Zn  Zn1  1  0.59196618  0.44259887  0.92124782  1  0  0.668184  0.75021  0  2.348901  0
H  H2  1  0.64035598  0.46637280  0.29193248  1  0  0.290839  0.234751  0  1.015082  0
H  H3  1  0.35963941  0.53362672  0.79193404  1  0  0.290845  0.234773  0  1.015036  0
H  H4  1  0.54652221  0.17425126  0.42879394  1  0  0.104344  0.097051  0  1.00254  0
H  H5  1  0.45347577  0.82574916  0.92879205  1  0  0.104321  0.09704  0  1.002589  0
H  H6  1  0.52014196  0.21475878  0.25847970  1  0  0.108116  0.104878  0  1.001329  0
H  H7  1  0.47985590  0.78524080  0.75847784  1  0  0.108125  0.104902  0  1.001321  0
H  H8  1  0.80862386  0.56525480  0.47255620  1  0  0.114232  0.1175  0  0.969518  0
H  H9  1  0.19137735  0.43474433  0.97255897  1  0  0.11424  0.117519  0  0.969487  0
H  H10  1  0.78479526  0.35784125  0.49394465  1  0  0.10036  0.089731  0  1.011539  0
H  H11  1  0.21520506  0.64215903  0.99394814  1  0  0.100369  0.089722  0  1.011493  0
H  H12  1  0.64334099  0.76205638  0.18159106  1  0  0.134717  0.10536  0  1.032745  0
H  H13  1  0.35665855  0.23794456  0.68158899  1  0  0.134719  0.105355  0  1.032819  0
H  H14  1  0.65969459  0.88991694  0.59158732  1  0  0.116163  0.112269  0  1.032297  0
H  H15  1  0.34030629  0.11008418  0.09158539  1  0  0.116165  0.112264  0  1.03231  0
H  H16  1  0.91004204  0.11677520  0.45280879  1  0  0.12672  0.128197  0  1.022922  0
H  H17  1  0.08996027  0.88322756  0.95280901  1  0  0.126731  0.128212  0  1.022926  0
H  H18  1  0.70903097  0.11051831  0.97036922  1  0  0.133183  0.115956  0  1.043361  0
H  H19  1  0.29097060  0.88948202  0.47037231  1  0  0.133179  0.115958  0  1.043375  0
H  H20  1  0.89172408  0.57157799  0.13937076  1  0  0.122391  0.119492  0  0.992549  0
H  H21  1  0.10827238  0.42842065  0.63937258  1  0  0.122371  0.119463  0  0.992537  0
H  H22  1  0.03716815  0.36113366  0.27590203  1  0  0.124484  0.140842  0  1.034013  0
H  H23  1  0.96282762  0.63886709  0.77590212  1  0  0.124477  0.140843  0  1.034011  0
H  H24  1  0.04401596  0.06991688  0.21332371  1  0  0.131311  0.11674  0  1.018618  0
H  H25  1  0.95598389  0.93008519  0.71332543  1  0  0.131306  0.11673  0  1.018628  0
H  H26  1  0.89154162  0.96492363  0.09025230  1  0  0.133022  0.101415  0  1.003293  0
H  H27  1  0.10845647  0.03507631  0.59025164  1  0  0.133015  0.101413  0  1.003306  0
C  C28  1  0.30561931  0.20894771  0.38146300  1  0  0.188598  0.577587  0  4.23179  0
C  C29  1  0.69437839  0.79105162  0.88146102  1  0  0.188651  0.57762  0  4.231686  0
C  C30  1  0.49809881  0.25132230  0.36086380  1  0  -0.080615  -0.181346  0  3.906595  0
C  C31  1  0.50189805  0.74867827  0.86086399  1  0  -0.080701  -0.181461  0  3.906661  0
C  C32  1  0.63080190  0.45910656  0.62513397  1  0  0.20096  0.594617  0  4.158025  0
C  C33  1  0.36920030  0.54089090  0.12513447  1  0  0.200961  0.594564  0  4.158154  0
C  C34  1  0.71520839  0.44904674  0.48951573  1  0  -0.076471  -0.188164  0  3.940178  0
C  C35  1  0.28479245  0.55095115  0.98951730  1  0  -0.07649  -0.188154  0  3.940129  0
C  C36  1  0.67573529  0.82715809  0.27520574  1  0  0.141014  0.092414  0  3.901507  0
C  C37  1  0.32426412  0.17284265  0.77520277  1  0  0.141072  0.092521  0  3.901306  0
C  C38  1  0.69040388  0.89708319  0.48540686  1  0  -0.003887  -0.039807  0  3.991994  0
C  C39  1  0.30959716  0.10291951  0.98540500  1  0  -0.003906  -0.039761  0  3.991975  0
C  C40  1  0.81417638  0.01111391  0.41948341  1  0  0.003213  -0.102077  0  3.919842  0
C  C41  1  0.18582440  0.98888773  0.91948244  1  0  0.003207  -0.102123  0  3.919865  0
C  C42  1  0.77008582  0.20820112  0.03751203  1  0  0.14308  0.090372  0  3.882273  0
C  C43  1  0.22991513  0.79180012  0.53751531  1  0  0.143072  0.09035  0  3.882296  0
C  C44  1  0.87185570  0.44378590  0.12794575  1  0  -0.000629  -0.027318  0  3.975958  0
C  C45  1  0.12814477  0.55621395  0.62794538  1  0  -0.000569  -0.02722  0  3.975935  0
C  C46  1  0.94391652  0.34206471  0.19596827  1  0  0.00359  -0.099928  0  3.88376  0
C  C47  1  0.05608264  0.65793501  0.69596881  1  0  0.0036  -0.099977  0  3.883791  0
C  C48  1  0.91292484  0.04503166  0.17741762  1  0  0.058461  -0.001369  0  3.836919  0
C  C49  1  0.08707471  0.95496929  0.67741775  1  0  0.058468  -0.00139  0  3.836946  0
N  N50  1  0.58970140  0.42025624  0.38166058  1  0  -0.490636  -0.302979  0  3.586467  0
N  N51  1  0.41029630  0.57974309  0.88166104  1  0  -0.490549  -0.302895  0  3.586364  0
N  N52  1  0.80311222  0.96484725  0.28617890  1  0  -0.242164  0.023785  0  3.773559  0
N  N53  1  0.19688753  0.03515467  0.78617818  1  0  -0.242158  0.023825  0  3.773532  0
N  N54  1  0.60490254  0.78273264  0.39418889  1  0  -0.339868  -0.279499  0  3.506497  0
N  N55  1  0.39509949  0.21726905  0.89418583  1  0  -0.33993  -0.279653  0  3.506342  0
N  N56  1  0.87819572  0.19317290  0.13723138  1  0  -0.245158  0.012892  0  3.784431  0
N  N57  1  0.12180231  0.80682694  0.63723269  1  0  -0.24518  0.01291  0  3.784468  0
N  N58  1  0.76391012  0.35880540  0.03021649  1  0  -0.348035  -0.255276  0  3.53908  0
N  N59  1  0.23609119  0.64119705  0.53021897  1  0  -0.348031  -0.255261  0  3.539108  0
O  O60  1  0.23919984  0.31601554  0.42480885  1  0  -0.334943  -0.566346  0  2.268673  0
O  O61  1  0.76079901  0.68398370  0.92480397  1  0  -0.334946  -0.566336  0  2.268694  0
O  O62  1  0.22572617  0.06627852  0.35460474  1  0  -0.347859  -0.587992  0  2.157482  0
O  O63  1  0.77427191  0.93372207  0.85460454  1  0  -0.347874  -0.587992  0  2.15741  0
O  O64  1  0.50363739  0.51508906  0.62392107  1  0  -0.314784  -0.550551  0  2.306291  0
O  O65  1  0.49636587  0.48491199  0.12392058  1  0  -0.314775  -0.550536  0  2.306283  0
O  O66  1  0.69254361  0.41162995  0.72880229  1  0  -0.321952  -0.543442  0  2.272549  0
O  O67  1  0.30745809  0.58836609  0.22880376  1  0  -0.321965  -0.543424  0  2.272634  0
