# generated using pymatgen
data_Zn4H18C30O13
_symmetry_space_group_name_H-M   'P 1'
_cell_length_a   20.72275792
_cell_length_b   20.09257667
_cell_length_c   23.02656750
_cell_angle_alpha   90.00624665
_cell_angle_beta   119.84106744
_cell_angle_gamma   117.33623179
_symmetry_Int_Tables_number   1
_chemical_formula_structural   Zn4H18C30O13
_chemical_formula_sum   'Zn8 H36 C60 O26'
_cell_volume   7055.06438674
_cell_formula_units_Z   2
loop_
 _symmetry_equiv_pos_site_id
 _symmetry_equiv_pos_as_xyz
  1  'x, y, z'
loop_
 _atom_site_type_symbol
 _atom_site_label
 _atom_site_symmetry_multiplicity
 _atom_site_fract_x
 _atom_site_fract_y
 _atom_site_fract_z
 _atom_site_occupancy
 _atom_site_pbe_bader_charge
 _atom_site_pbe_bader_spin_density
 _atom_site_pbe_cm5_charge
 _atom_site_pbe_ddec_charge
 _atom_site_pbe_ddec_spin_density
 _atom_site_pbe_ddec_sum_bond_order
 _atom_site_pbe_magmom
Zn  Zn0  1  0.91360938  0.97130312  0.88610754  1  1.30797  0  0.668021  0.966933  0  2.353488  0
Zn  Zn1  1  0.91509686  0.96752838  0.02784250  1  1.321038  0  0.666559  0.965354  0  2.362996  0
Zn  Zn2  1  0.06839086  0.11687835  0.02766909  1  1.313881  0  0.664955  0.959167  0  2.396246  0
Zn  Zn3  1  0.05917076  0.95677133  0.01957321  1  1.308294  0  0.66318  0.95382  0  2.41466  0
Zn  Zn4  1  0.06157462  0.53921333  0.59240909  1  1.316898  0  0.671321  0.964649  0  2.381139  0
Zn  Zn5  1  0.06364291  0.53750618  0.45370061  1  1.315567  0  0.671562  0.968345  0  2.362546  0
Zn  Zn6  1  0.91604193  0.55055006  0.45502314  1  1.312926  0  0.670585  0.961929  0  2.384636  0
Zn  Zn7  1  0.91061939  0.39028452  0.45685528  1  1.317965  0  0.670423  0.962427  0  2.384875  0
H  H8  1  0.62849357  0.82224123  0.87498744  1  0.059905  0  0.107445  0.124654  0  0.999177  0
H  H9  1  0.63532929  0.83859579  0.74469649  1  0.088066  0  0.108857  0.108887  0  0.987897  0
H  H10  1  0.50063913  0.77444612  0.63259142  1  0.064377  0  0.105114  0.103703  0  0.991314  0
H  H11  1  0.33738313  0.68915786  0.55545373  1  0.118809  0  0.10911  0.114203  0  0.992075  0
H  H12  1  0.32831408  0.66709944  0.73715526  1  0.09591  0  0.108768  0.113952  0  0.992207  0
H  H13  1  0.49025022  0.75043602  0.81451837  1  0.082138  0  0.106079  0.105352  0  0.999143  0
H  H14  1  0.06499962  0.25364618  0.87786914  1  0.073367  0  0.108141  0.126135  0  0.99588  0
H  H15  1  0.90400354  0.11292853  0.74754754  1  0.092749  0  0.109612  0.109728  0  0.985277  0
H  H16  1  0.09708759  0.32272468  0.81321973  1  0.069525  0  0.105834  0.105513  0  0.998064  0
H  H17  1  0.10350185  0.41027023  0.73758194  1  0.099049  0  0.109048  0.114617  0  0.991878  0
H  H18  1  0.84649082  0.23136366  0.56484089  1  0.10372  0  0.109077  0.113921  0  0.991408  0
H  H19  1  0.83752608  0.14360859  0.64091078  1  0.08063  0  0.105309  0.104483  0  0.99199  0
H  H20  1  0.06956674  0.84875651  0.86278509  1  0.062776  0  0.108793  0.126559  0  0.999236  0
H  H21  1  0.88428667  0.80192625  0.73962963  1  0.097498  0  0.109659  0.110048  0  0.983247  0
H  H22  1  0.83206315  0.72627641  0.62871760  1  0.069292  0  0.105676  0.104766  0  0.992574  0
H  H23  1  0.84428308  0.64740310  0.55519665  1  0.117577  0  0.108798  0.113338  0  0.992046  0
H  H24  1  0.08031415  0.68360763  0.73824988  1  0.09628  0  0.109401  0.114547  0  0.992136  0
H  H25  1  0.07022512  0.76314605  0.81180981  1  0.094539  0  0.106216  0.105572  0  0.999192  0
H  H26  1  0.06345787  0.24311769  0.17914038  1  0.073206  0  0.107931  0.125306  0  0.999459  0
H  H27  1  0.89912950  0.10291157  0.16157663  1  0.104963  0  0.109985  0.110509  0  0.984821  0
H  H28  1  0.85586870  0.12549542  0.23485854  1  0.06375  0  0.105272  0.104408  0  0.992771  0
H  H29  1  0.86788949  0.21462185  0.32026918  1  0.091818  0  0.108932  0.11419  0  0.991135  0
H  H30  1  0.07631314  0.41148346  0.32210628  1  0.100122  0  0.108755  0.114061  0  0.993724  0
H  H31  1  0.06549397  0.32420682  0.23750630  1  0.045544  0  0.105909  0.104655  0  0.999963  0
H  H32  1  0.02021959  0.78546830  0.13450590  1  0.093081  0  0.108194  0.125844  0  0.997979  0
H  H33  1  0.93264941  0.84243617  0.18000996  1  0.101103  0  0.109449  0.109922  0  0.98664  0
H  H34  1  0.90621093  0.79482810  0.26430816  1  0.064688  0  0.105668  0.104579  0  0.992103  0
H  H35  1  0.91898768  0.71816192  0.35056922  1  0.086832  0  0.109471  0.11524  0  0.991744  0
H  H36  1  0.05466609  0.64839203  0.29736354  1  0.081014  0  0.108618  0.11352  0  0.992929  0
H  H37  1  0.04163433  0.72331083  0.21074385  1  0.066897  0  0.105913  0.105073  0  0.998544  0
H  H38  1  0.34309670  0.10728719  0.18047116  1  0.093494  0  0.108183  0.12571  0  0.998284  0
H  H39  1  0.34795047  0.25781811  0.14836668  1  0.09473  0  0.110115  0.110793  0  0.986386  0
H  H40  1  0.48668281  0.37677695  0.20599696  1  0.064047  0  0.10588  0.104704  0  0.991684  0
H  H41  1  0.64967472  0.45379745  0.29078116  1  0.07827  0  0.10928  0.114636  0  0.990981  0
H  H42  1  0.64192881  0.24309679  0.33288425  1  0.099122  0  0.109138  0.11427  0  0.994394  0
H  H43  1  0.48024575  0.16580413  0.24969031  1  0.091839  0  0.105852  0.104908  0  1.000466  0
C  C44  1  0.75162914  0.88966630  0.88377718  1  1.532023  0  0.216176  0.643152  0  4.182739  0
C  C45  1  0.65491818  0.84001377  0.84308267  1  0.032435  0  -0.098164  -0.237208  0  3.908868  0
C  C46  1  0.60308933  0.81794139  0.77244010  1  -0.091401  0  -0.065993  -0.060818  0  3.962271  0
C  C47  1  0.50761516  0.76866619  0.72914583  1  0.015493  0  -0.004539  0.109077  0  4.027714  0
C  C48  1  0.46280329  0.75064985  0.65558276  1  -0.005527  0  -0.082895  -0.128719  0  3.962069  0
C  C49  1  0.37180412  0.70320541  0.61227186  1  -0.109053  0  -0.079179  -0.084409  0  3.980206  0
C  C50  1  0.32302269  0.67291731  0.64162552  1  -0.015193  0  -0.016723  -0.038029  0  3.968474  0
C  C51  1  0.36691262  0.69087110  0.71491849  1  -0.055256  0  -0.079654  -0.086357  0  3.983316  0
C  C52  1  0.45756047  0.73765787  0.75786552  1  -0.012862  0  -0.083359  -0.1227  0  3.957765  0
C  C53  1  0.22535942  0.62196678  0.59626577  1  1.525989  0  0.226566  0.60295  0  4.169889  0
C  C54  1  0.99985959  0.13677951  0.88589107  1  1.551255  0  0.216605  0.645078  0  4.181971  0
C  C55  1  0.01104443  0.19367629  0.84581194  1  0.013714  0  -0.097935  -0.238999  0  3.91307  0
C  C56  1  0.95835433  0.17398442  0.77542582  1  -0.079735  0  -0.066857  -0.060843  0  3.963095  0
C  C57  1  0.96604904  0.22700694  0.73274561  1  0.010069  0  -0.003743  0.111092  0  4.026031  0
C  C58  1  0.04119757  0.30274893  0.75921547  1  -0.044872  0  -0.083002  -0.123842  0  3.955191  0
C  C59  1  0.04550896  0.35178001  0.71711580  1  -0.032333  0  -0.079243  -0.086742  0  3.98432  0
C  C60  1  0.97524523  0.32608847  0.64674108  1  -0.023593  0  -0.016556  -0.038333  0  3.972505  0
C  C61  1  0.90052005  0.25068176  0.61950094  1  -0.005176  0  -0.079615  -0.083492  0  3.980733  0
C  C62  1  0.89609631  0.20201966  0.66207499  1  -0.107841  0  -0.083655  -0.130814  0  3.968675  0
C  C63  1  0.98044925  0.37825845  0.60109739  1  1.564744  0  0.226658  0.603253  0  4.172621  0
C  C64  1  0.99793884  0.89239410  0.87492313  1  1.532004  0  0.216334  0.644941  0  4.180749  0
C  C65  1  0.00743495  0.84606849  0.83337023  1  0.033673  0  -0.097454  -0.237759  0  3.916577  0
C  C66  1  0.94478827  0.80133487  0.76615837  1  -0.091186  0  -0.066102  -0.06125  0  3.961164  0
C  C67  1  0.95134537  0.75224941  0.72526418  1  0.007794  0  -0.003716  0.109719  0  4.027589  0
C  C68  1  0.88695421  0.71740958  0.65268616  1  -0.024251  0  -0.083935  -0.131744  0  3.969023  0
C  C69  1  0.89327533  0.67330835  0.61147588  1  -0.043462  0  -0.0796  -0.081587  0  3.979177  0
C  C70  1  0.96362844  0.66175666  0.64210355  1  -0.025453  0  -0.016756  -0.040192  0  3.974579  0
C  C71  1  0.02667211  0.69396516  0.71475156  1  -0.045413  0  -0.079567  -0.085644  0  3.985457  0
C  C72  1  0.02069814  0.73866160  0.75553651  1  -0.079392  0  -0.083085  -0.12306  0  3.956474  0
C  C73  1  0.97235618  0.61674897  0.59784948  1  1.548719  0  0.227539  0.60497  0  4.168995  0
C  C74  1  0.99795913  0.12813129  0.11038154  1  1.524084  0  0.215851  0.642559  0  4.187329  0
C  C75  1  0.00762407  0.18360852  0.16049259  1  0.003178  0  -0.097341  -0.236494  0  3.914225  0
C  C76  1  0.95307471  0.16408451  0.18183894  1  -0.081743  0  -0.066545  -0.061823  0  3.961346  0
C  C77  1  0.96044700  0.21788389  0.23058338  1  -0.018283  0  -0.004147  0.108335  0  4.028366  0
C  C78  1  0.90452609  0.18829286  0.25420290  1  -0.016264  0  -0.083666  -0.129931  0  3.966423  0
C  C79  1  0.91094915  0.23760927  0.30185137  1  -0.051108  0  -0.079391  -0.08416  0  3.978306  0
C  C80  1  0.97341868  0.31828652  0.32686779  1  0.00421  0  -0.016752  -0.039553  0  3.971989  0
C  C81  1  0.02866535  0.34862773  0.30291885  1  -0.02486  0  -0.079466  -0.086115  0  3.988399  0
C  C82  1  0.02225615  0.29933391  0.25563651  1  -0.013551  0  -0.083396  -0.121268  0  3.956949  0
C  C83  1  0.98122560  0.37201872  0.37800794  1  1.519874  0  0.226932  0.604745  0  4.16958  0
C  C84  1  0.98173518  0.86664382  0.09100894  1  1.528811  0  0.215856  0.64493  0  4.179088  0
C  C85  1  0.98910828  0.81574280  0.13708766  1  -0.040185  0  -0.097095  -0.23705  0  3.912527  0
C  C86  1  0.96306259  0.80966513  0.18110657  1  -0.067661  0  -0.066775  -0.061446  0  3.965042  0
C  C87  1  0.97234350  0.76433454  0.23092593  1  0.047792  0  -0.003432  0.110236  0  4.029161  0
C  C88  1  0.93853183  0.76243001  0.27138809  1  -0.070453  0  -0.083563  -0.129811  0  3.968591  0
C  C89  1  0.94562117  0.72007289  0.31962457  1  -0.008987  0  -0.080578  -0.085302  0  3.983471  0
C  C90  1  0.98758417  0.67883735  0.32911772  1  0.001513  0  -0.016689  -0.038515  0  3.973382  0
C  C91  1  0.02213958  0.68064389  0.28945345  1  -0.05153  0  -0.079562  -0.086508  0  3.984586  0
C  C92  1  0.01440683  0.72251763  0.24103224  1  -0.041687  0  -0.082575  -0.121534  0  3.954509  0
C  C93  1  0.99391342  0.63225696  0.37998191  1  1.541573  0  0.226168  0.603515  0  4.168031  0
C  C94  1  0.22500409  0.10691870  0.10794553  1  1.522956  0  0.214492  0.638982  0  4.190898  0
C  C95  1  0.32074186  0.14614355  0.15792801  1  0.000681  0  -0.097631  -0.236359  0  3.915023  0
C  C96  1  0.37649127  0.22356362  0.17383836  1  -0.092753  0  -0.066821  -0.061871  0  3.965865  0
C  C97  1  0.47154493  0.26604399  0.22211458  1  0.043384  0  -0.003905  0.110708  0  4.032412  0
C  C98  1  0.52086012  0.34753647  0.23406294  1  -0.029957  0  -0.083331  -0.129603  0  3.966695  0
C  C99  1  0.61155161  0.39069600  0.28108231  1  -0.038324  0  -0.079805  -0.084824  0  3.98305  0
C  C100  1  0.65522732  0.35300966  0.31705445  1  -0.085125  0  -0.017347  -0.039163  0  3.977762  0
C  C101  1  0.60694687  0.27156424  0.30476813  1  0.064056  0  -0.080236  -0.086716  0  3.988076  0
C  C102  1  0.51660494  0.22884619  0.25818061  1  -0.108931  0  -0.082389  -0.121969  0  3.958944  0
C  C103  1  0.75215852  0.39837274  0.36881157  1  1.537467  0  0.224966  0.600975  0  4.174585  0
O  O104  1  0.98652289  0.00294186  0.98893517  1  -1.223951  0  -0.573371  -1.029636  0  2.540991  0
O  O105  1  0.79031456  0.90527577  0.95048529  1  -1.155137  0  -0.323566  -0.556807  0  2.291893  0
O  O106  1  0.78833165  0.91252249  0.85048941  1  -1.175954  0  -0.321816  -0.555459  0  2.308039  0
O  O107  1  0.18884308  0.60220657  0.52995746  1  -1.164408  0  -0.315275  -0.548473  0  2.327285  0
O  O108  1  0.18626604  0.60220618  0.62781261  1  -1.17526  0  -0.315586  -0.547327  0  2.346296  0
O  O109  1  0.05196868  0.16677327  0.95264560  1  -1.170657  0  -0.323363  -0.552706  0  2.295341  0
O  O110  1  0.94119082  0.06427875  0.85220102  1  -1.180255  0  -0.322126  -0.560031  0  2.309715  0
O  O111  1  0.92155960  0.34684650  0.53533954  1  -1.17822  0  -0.316017  -0.548079  0  2.338388  0
O  O112  1  0.04335584  0.45003297  0.63131486  1  -1.178657  0  -0.316259  -0.548884  0  2.332055  0
O  O113  1  0.05853881  0.91954433  0.94068594  1  -1.172417  0  -0.3263  -0.55732  0  2.296762  0
O  O114  1  0.93287433  0.90169141  0.84439232  1  -1.172949  0  -0.320255  -0.555815  0  2.289256  0
O  O115  1  0.91816796  0.59651615  0.53148331  1  -1.180656  0  -0.317822  -0.549884  0  2.33849  0
O  O116  1  0.03364335  0.60270495  0.62968578  1  -1.166775  0  -0.315729  -0.548759  0  2.333877  0
O  O117  1  0.05367107  0.15944934  0.09386079  1  -1.168778  0  -0.324363  -0.557524  0  2.303927  0
O  O118  1  0.93717665  0.05579068  0.08779117  1  -1.171633  0  -0.320771  -0.553327  0  2.299518  0
O  O119  1  0.92978152  0.34077456  0.39838616  1  -1.153361  0  -0.317063  -0.54967  0  2.335682  0
O  O120  1  0.03883198  0.44486381  0.39728567  1  -1.174992  0  -0.316155  -0.54974  0  2.338016  0
O  O121  1  0.01696351  0.87134497  0.05728816  1  -1.162479  0  -0.326859  -0.557478  0  2.287412  0
O  O122  1  0.94297652  0.90211896  0.08849337  1  -1.17552  0  -0.321182  -0.55876  0  2.302145  0
O  O123  1  0.95617029  0.62933233  0.41093515  1  -1.174603  0  -0.31938  -0.55261  0  2.331928  0
O  O124  1  0.03610563  0.59862790  0.38838992  1  -1.167044  0  -0.315505  -0.548461  0  2.329077  0
O  O125  1  0.18177747  0.03228553  0.09555383  1  -1.169089  0  -0.325021  -0.554381  0  2.29007  0
O  O126  1  0.19257678  0.14849462  0.08108846  1  -1.17865  0  -0.320946  -0.55473  0  2.309325  0
O  O127  1  0.79267420  0.47285667  0.38112534  1  -1.152938  0  -0.316743  -0.547724  0  2.327301  0
O  O128  1  0.78696664  0.35893203  0.39712096  1  -1.178629  0  -0.315893  -0.548578  0  2.344561  0
O  O129  1  0.98903152  0.50467108  0.48967675  1  -1.226338  0  -0.573105  -1.029424  0  2.541367  0
