# generated using pymatgen
data_AlH10C12N2O5
_symmetry_space_group_name_H-M   'P 1'
_cell_length_a   6.66068720
_cell_length_b   10.98350732
_cell_length_c   16.85090037
_cell_angle_alpha   72.79372104
_cell_angle_beta   84.03292989
_cell_angle_gamma   74.50486873
_symmetry_Int_Tables_number   1
_chemical_formula_structural   AlH10C12N2O5
_chemical_formula_sum   'Al2 H20 C24 N4 O10'
_cell_volume   1134.38334209
_cell_formula_units_Z   2
loop_
 _symmetry_equiv_pos_site_id
 _symmetry_equiv_pos_as_xyz
  1  'x, y, z'
loop_
 _atom_site_type_symbol
 _atom_site_label
 _atom_site_symmetry_multiplicity
 _atom_site_fract_x
 _atom_site_fract_y
 _atom_site_fract_z
 _atom_site_occupancy
 _atom_site_pbe_bader_charge
 _atom_site_pbe_bader_spin_density
 _atom_site_pbe_cm5_charge
 _atom_site_pbe_ddec_charge
 _atom_site_pbe_ddec_spin_density
 _atom_site_pbe_ddec_sum_bond_order
 _atom_site_pbe_magmom
Al  Al0  1  0.50334566  0.49643721  0.50012743  1  2.504641  0  0.397107  1.641675  0  2.590058  0
Al  Al1  1  0.00266551  0.49817010  0.49896362  1  2.504228  0  0.396786  1.646195  0  2.583631  0
H  H2  1  0.21037287  0.64929624  0.41969509  1  0.623913  0  0.357596  0.437085  0  0.842565  0
H  H3  1  0.77546653  0.39113998  0.60161855  1  0.609913  0  0.353402  0.430803  0  0.851393  0
H  H4  1  0.93738929  0.40836107  0.75049429  1  0.087087  0  0.105691  0.105668  0  1.004448  0
H  H5  1  0.85677931  0.41684467  0.89778039  1  0.084996  0  0.106673  0.110779  0  1.014463  0
H  H6  1  0.33453951  0.62127954  0.87711902  1  0.082233  0  0.107222  0.113304  0  1.001404  0
H  H7  1  0.65806843  0.38597019  0.12030923  1  0.071531  0  0.106459  0.112353  0  1.004196  0
H  H8  1  0.14471725  0.58282937  0.10264237  1  0.094366  0  0.105913  0.108857  0  1.01489  0
H  H9  1  0.06772424  0.58613300  0.25112054  1  0.091268  0  0.109119  0.112337  0  1.000392  0
H  H10  1  0.28455499  0.88685501  0.44939640  1  0.109137  0  0.10363  0.116069  0  1.025367  0
H  H11  1  0.71722488  0.11233973  0.54715242  1  0.088585  0  0.107135  0.120913  0  1.015306  0
H  H12  1  0.51398862  0.68853645  0.75657236  1  0.030653  0  0.090521  0.125735  0  0.998539  0
H  H13  1  0.40633105  0.70803680  0.65970628  1  0.0581  0  0.093516  0.135362  0  1.000696  0
H  H14  1  0.60003645  0.56613308  0.70251766  1  0.045919  0  0.096254  0.139159  0  1.00898  0
H  H15  1  0.40204292  0.43499276  0.30023065  1  0.057949  0  0.100134  0.148083  0  1.001027  0
H  H16  1  0.59383128  0.28856062  0.33598890  1  0.051841  0  0.094917  0.138263  0  0.995937  0
H  H17  1  0.47382818  0.32052616  0.23973600  1  0.023941  0  0.090503  0.126958  0  0.998286  0
H  H18  1  0.02255559  0.21381742  0.46197588  1  0.49886  0  0.303303  0.311343  0  0.982411  0
H  H19  1  0.00205917  0.07121335  0.44165955  1  0.459519  0  0.299075  0.29712  0  0.978344  0
H  H20  1  0.96931582  0.77693093  0.54458922  1  0.477243  0  0.301559  0.306993  0  0.987919  0
H  H21  1  0.98213882  0.90796183  0.57919578  1  0.433931  0  0.307758  0.301499  0  0.93953  0
C  C22  1  0.65505595  0.73193875  0.48793703  1  1.506066  0  0.263029  0.65097  0  4.074069  0
C  C23  1  0.78351571  0.50022213  0.35543140  1  1.56037  0  0.268203  0.645735  0  4.083903  0
C  C24  1  0.34796332  0.26580189  0.50934841  1  1.52667  0  0.263831  0.650214  0  4.077976  0
C  C25  1  0.22119341  0.49428920  0.64523947  1  1.557902  0  0.264842  0.644743  0  4.089726  0
C  C26  1  0.18308753  0.50766760  0.73144360  1  -0.042713  0  -0.015436  -0.112588  0  3.908536  0
C  C27  1  0.02413284  0.45439860  0.77937773  1  -0.024827  0  -0.081368  -0.07408  0  4.007505  0
C  C28  1  0.97867281  0.45862571  0.86064065  1  -0.016995  0  -0.087739  -0.152511  0  3.964372  0
C  C29  1  0.09466191  0.51862233  0.89572645  1  0.333853  0  0.088115  0.182211  0  4.057749  0
C  C30  1  0.25000938  0.57410293  0.84793938  1  -0.02655  0  -0.082121  -0.20811  0  3.902814  0
C  C31  1  0.29830357  0.57062591  0.76565329  1  -0.000867  0  0.004955  0.174576  0  3.926849  0
C  C32  1  0.74496361  0.43063747  0.15033320  1  -0.063636  0  -0.081521  -0.210248  0  3.902725  0
C  C33  1  0.90177857  0.48538241  0.10314786  1  0.362637  0  0.088643  0.182201  0  4.061941  0
C  C34  1  0.02124104  0.54200942  0.13923499  1  -0.018561  0  -0.086667  -0.150367  0  3.965411  0
C  C35  1  0.97795190  0.54355014  0.22103221  1  0.010243  0  -0.079026  -0.074956  0  4.000418  0
C  C36  1  0.81797906  0.49064097  0.26841694  1  -0.048263  0  -0.010116  -0.105711  0  3.896294  0
C  C37  1  0.69881828  0.43125357  0.23319238  1  0.016012  0  0.00892  0.18282  0  3.917442  0
C  C38  1  0.41970814  0.12940545  0.50294310  1  -0.004053  0  -0.026266  -0.144822  0  3.972102  0
C  C39  1  0.58397978  0.86968543  0.49242109  1  -0.019269  0  -0.02681  -0.141779  0  3.969153  0
C  C40  1  0.29098970  0.06765649  0.47347070  1  0.446419  0  0.094712  0.275186  0  4.096881  0
C  C41  1  0.71354356  0.93261645  0.52043894  1  0.385569  0  0.08736  0.26138  0  4.097802  0
C  C42  1  0.37924709  0.93789666  0.47015638  1  -0.01609  0  -0.101816  -0.207605  0  3.971344  0
C  C43  1  0.62469790  0.06098126  0.52531136  1  0.012073  0  -0.105823  -0.220497  0  3.994135  0
C  C44  1  0.46335117  0.63679891  0.71879907  1  -0.034692  0  -0.239614  -0.407897  0  3.959055  0
C  C45  1  0.53291010  0.36558326  0.27947898  1  -0.030136  0  -0.238988  -0.41305  0  3.949244  0
N  N46  1  0.06794820  0.52852417  0.97809759  1  -0.472009  0  -0.149718  -0.138036  0  3.272539  0
N  N47  1  0.92793818  0.47680049  0.02055871  1  -0.501307  0  -0.148472  -0.136184  0  3.279527  0
N  N48  1  0.09246669  0.12984796  0.44604063  1  -1.271164  0  -0.60244  -0.622723  0  3.340185  0
N  N49  1  0.92112320  0.87482543  0.53942172  1  -1.254507  0  -0.600411  -0.629562  0  3.359039  0
O  O50  1  0.51926233  0.67694953  0.47559263  1  -1.267428  0  -0.244569  -0.61045  0  2.353408  0
O  O51  1  0.92946860  0.52376900  0.38758989  1  -1.264567  0  -0.239409  -0.604558  0  2.354604  0
O  O52  1  0.15383852  0.32366349  0.49983039  1  -1.270639  0  -0.233509  -0.591247  0  2.368349  0
O  O53  1  0.39755079  0.50370985  0.61006036  1  -1.25875  0  -0.234271  -0.591687  0  2.369576  0
O  O54  1  0.48271808  0.31924788  0.52427559  1  -1.270264  0  -0.242841  -0.602754  0  2.357583  0
O  O55  1  0.07381705  0.47305651  0.61232755  1  -1.263043  0  -0.244427  -0.615196  0  2.352257  0
O  O56  1  0.84989813  0.67478550  0.49711478  1  -1.267883  0  -0.238964  -0.604898  0  2.373616  0
O  O57  1  0.61098101  0.48617061  0.39236730  1  -1.257693  0  -0.227736  -0.578723  0  2.372649  0
O  O58  1  0.23548085  0.56236954  0.45857350  1  -1.426671  0  -0.447931  -0.99407  0  2.207414  0
O  O59  1  0.77080067  0.43347616  0.54239612  1  -1.415092  0  -0.448871  -0.992282  0  2.199359  0
