# generated using pymatgen
data_CdH12C8(N5O)2
_symmetry_space_group_name_H-M   'P 1'
_cell_length_a   8.74143666
_cell_length_b   9.25359308
_cell_length_c   10.48879300
_cell_angle_alpha   63.83638271
_cell_angle_beta   79.38871688
_cell_angle_gamma   65.33106488
_symmetry_Int_Tables_number   1
_chemical_formula_structural   CdH12C8(N5O)2
_chemical_formula_sum   'Cd2 H24 C16 N20 O4'
_cell_volume   692.00446708
_cell_formula_units_Z   2
loop_
 _symmetry_equiv_pos_site_id
 _symmetry_equiv_pos_as_xyz
  1  'x, y, z'
loop_
 _atom_site_type_symbol
 _atom_site_label
 _atom_site_symmetry_multiplicity
 _atom_site_fract_x
 _atom_site_fract_y
 _atom_site_fract_z
 _atom_site_occupancy
 _atom_site_hle17_bader_spin_density
 _atom_site_hle17_ddec_charge
 _atom_site_hle17_ddec_spin_density
 _atom_site_hle17_ddec_sum_bond_order
 _atom_site_hle17_magmom
 _atom_site_hse06_10hf_bader_spin_density
 _atom_site_hse06_10hf_ddec_charge
 _atom_site_hse06_10hf_ddec_spin_density
 _atom_site_hse06_10hf_ddec_sum_bond_order
 _atom_site_hse06_10hf_magmom
 _atom_site_hse06_bader_spin_density
 _atom_site_hse06_ddec_charge
 _atom_site_hse06_ddec_spin_density
 _atom_site_hse06_ddec_sum_bond_order
 _atom_site_hse06_magmom
 _atom_site_pbe_bader_spin_density
 _atom_site_pbe_cm5_charge
 _atom_site_pbe_ddec_charge
 _atom_site_pbe_ddec_spin_density
 _atom_site_pbe_ddec_sum_bond_order
 _atom_site_pbe_magmom
Cd  Cd0  1  0.09348544  0.10248702  0.26083166  1  0  1.068986  0  1.813298  0  0  0.861138  0  2.282929  0  0  0.911092  0  2.236094  0  0  0.833617  0.825016  0  2.31594  0
Cd  Cd1  1  0.59356331  0.36350115  0.73911721  1  0  1.068471  0  1.813717  0  0  0.860486  0  2.283162  0  0  0.910416  0  2.236391  0  0  0.833506  0.824279  0  2.316147  0
H  H2  1  0.51543431  0.00377215  0.21052955  1  0  0.289735  0  0.962938  0  0  0.253995  0  1.056302  0  0  0.263279  0  1.049153  0  0  0.304461  0.24755  0  1.061128  0
H  H3  1  0.01549069  0.21463252  0.78927308  1  0  0.290576  0  0.962695  0  0  0.255552  0  1.054574  0  0  0.264773  0  1.047482  0  0  0.304644  0.248598  0  1.060213  0
H  H4  1  0.18369557  0.62017158  0.70268747  1  0  0.287156  0  0.968633  0  0  0.250247  0  1.063666  0  0  0.259559  0  1.056627  0  0  0.302935  0.24371  0  1.068552  0
H  H5  1  0.68370267  0.32307545  0.29731498  1  0  0.287071  0  0.969006  0  0  0.250569  0  1.063343  0  0  0.259784  0  1.056453  0  0  0.303743  0.243644  0  1.068806  0
H  H6  1  0.65408781  0.78154546  0.74895462  1  0  0.103967  0  0.949776  0  0  0.126386  0  1.008976  0  0  0.127445  0  1.00979  0  0  0.090774  0.12556  0  1.008455  0
H  H7  1  0.15414262  0.53007874  0.25145218  1  0  0.102698  0  0.950669  0  0  0.125045  0  1.010104  0  0  0.126133  0  1.010874  0  0  0.089382  0.124256  0  1.009603  0
H  H8  1  0.67285061  0.95134539  0.58639792  1  0  0.097602  0  0.957325  0  0  0.116682  0  1.021112  0  0  0.117905  0  1.021743  0  0  0.083463  0.115758  0  1.020683  0
H  H9  1  0.17294792  0.53716932  0.41410300  1  0  0.097641  0  0.957607  0  0  0.116704  0  1.021393  0  0  0.117944  0  1.022023  0  0  0.083564  0.115761  0  1.021028  0
H  H10  1  0.78750715  0.88760425  0.73910676  1  0  0.102977  0  0.949976  0  0  0.122447  0  1.012318  0  0  0.124481  0  1.011654  0  0  0.083712  0.120938  0  1.012857  0
H  H11  1  0.28747484  0.62637448  0.26133549  1  0  0.104246  0  0.950444  0  0  0.123711  0  1.012505  0  0  0.12579  0  1.011794  0  0  0.085111  0.122183  0  1.013064  0
H  H12  1  0.83373953  0.66276656  0.57722164  1  0  0.104073  0  0.953432  0  0  0.107119  0  1.031904  0  0  0.110322  0  1.029505  0  0  0.098404  0.104757  0  1.033786  0
H  H13  1  0.33410138  0.23955938  0.42285801  1  0  0.104563  0  0.952513  0  0  0.107066  0  1.031265  0  0  0.110282  0  1.028844  0  0  0.098309  0.104774  0  1.033043  0
H  H14  1  0.95119449  0.58914913  0.73115192  1  0  0.0925  0  0.947121  0  0  0.103347  0  1.011136  0  0  0.105563  0  1.010599  0  0  0.09505  0.101709  0  1.011664  0
H  H15  1  0.45140118  0.32025934  0.26890707  1  0  0.093659  0  0.946942  0  0  0.104164  0  1.010874  0  0  0.106384  0  1.010364  0  0  0.095497  0.10253  0  1.011497  0
H  H16  1  0.86426354  0.55056734  0.21143003  1  0  0.097565  0  0.971453  0  0  0.112923  0  1.04363  0  0  0.114486  0  1.043879  0  0  0.084203  0.111768  0  1.043519  0
H  H17  1  0.36452028  0.76231115  0.78817481  1  0  0.096968  0  0.973248  0  0  0.112727  0  1.044939  0  0  0.114328  0  1.045126  0  0  0.083797  0.111586  0  1.04481  0
H  H18  1  0.78603448  0.67497496  0.03570289  1  0  0.102089  0  0.952526  0  0  0.120211  0  1.018268  0  0  0.121683  0  1.018442  0  0  0.087289  0.119048  0  1.018235  0
H  H19  1  0.28611038  0.71071188  0.96387887  1  0  0.102256  0  0.952547  0  0  0.120291  0  1.0183  0  0  0.121774  0  1.018458  0  0  0.087184  0.11914  0  1.018314  0
H  H20  1  0.64460655  0.67619194  0.18179869  1  0  0.095116  0  0.947543  0  0  0.11362  0  1.012063  0  0  0.11533  0  1.011951  0  0  0.082782  0.112342  0  1.012196  0
H  H21  1  0.14481472  0.85811805  0.81774429  1  0  0.095587  0  0.946935  0  0  0.113818  0  1.011736  0  0  0.115519  0  1.011649  0  0  0.082449  0.112551  0  1.011895  0
H  H22  1  0.92521959  0.82212837  0.10218774  1  0  0.10941  0  0.915976  0  0  0.127862  0  0.965915  0  0  0.129582  0  0.966101  0  0  0.104802  0.126586  0  0.965919  0
H  H23  1  0.42503595  0.92432511  0.89804929  1  0  0.109139  0  0.914623  0  0  0.127523  0  0.964989  0  0  0.129306  0  0.965085  0  0  0.105088  0.126248  0  0.965005  0
H  H24  1  0.78548628  0.82412773  0.24828616  1  0  0.106971  0  0.927579  0  0  0.119143  0  0.98778  0  0  0.121933  0  0.986021  0  0  0.102496  0.117057  0  0.989191  0
H  H25  1  0.28565999  0.07250850  0.75176418  1  0  0.105816  0  0.928705  0  0  0.118437  0  0.988679  0  0  0.121169  0  0.987059  0  0  0.102736  0.116444  0  0.989987  0
C  C26  1  0.74219816  0.83997591  0.68029506  1  0  -0.256255  0  3.673695  0  0  -0.329174  0  3.915281  0  0  -0.331159  0  3.92563  0  0  -0.245066  -0.327538  0  3.908165  0
C  C27  1  0.24223865  0.51987427  0.32010570  1  0  -0.256191  0  3.676217  0  0  -0.329453  0  3.917286  0  0  -0.331527  0  3.927657  0  0  -0.245348  -0.327785  0  3.910267  0
C  C28  1  0.88649173  0.70390170  0.63681299  1  0  -0.226079  0  3.705074  0  0  -0.260419  0  3.960904  0  0  -0.265874  0  3.969774  0  0  -0.167183  -0.256636  0  3.954804  0
C  C29  1  0.38668368  0.34044386  0.36335608  1  0  -0.229018  0  3.70691  0  0  -0.261359  0  3.959895  0  0  -0.266845  0  3.968839  0  0  -0.167508  -0.257696  0  3.953983  0
C  C30  1  0.00950499  0.77856564  0.53932332  1  0  0.628623  0  3.718756  0  0  0.586511  0  4.001009  0  0  0.616581  0  3.999145  0  0  0.255334  0.566142  0  4.001705  0
C  C31  1  0.50968272  0.31765336  0.46084128  1  0  0.628735  0  3.719395  0  0  0.586647  0  4.001474  0  0  0.616664  0  3.999659  0  0  0.255953  0.566446  0  4.001832  0
C  C32  1  0.30327326  0.75056988  0.52964735  1  0  0.510274  0  3.800318  0  0  0.458676  0  4.078553  0  0  0.479606  0  4.091355  0  0  0.334049  0.444554  0  4.069722  0
C  C33  1  0.80337226  0.28036905  0.47031867  1  0  0.510992  0  3.79881  0  0  0.461306  0  4.074353  0  0  0.482103  0  4.087247  0  0  0.336407  0.447176  0  4.065299  0
C  C34  1  0.77083433  0.67346015  0.14236549  1  0  -0.265645  0  3.700602  0  0  -0.344233  0  3.954567  0  0  -0.346374  0  3.964577  0  0  -0.247176  -0.342462  0  3.947722  0
C  C35  1  0.27096711  0.81596358  0.85729687  1  0  -0.266507  0  3.702739  0  0  -0.344918  0  3.956053  0  0  -0.347045  0  3.966063  0  0  -0.246918  -0.343157  0  3.949206  0
C  C36  1  0.79811506  0.82769491  0.14086077  1  0  -0.21968  0  3.683548  0  0  -0.252715  0  3.934913  0  0  -0.257766  0  3.943514  0  0  -0.161442  -0.24922  0  3.929001  0
C  C37  1  0.29805763  0.96861686  0.85913634  1  0  -0.218201  0  3.682868  0  0  -0.251774  0  3.935025  0  0  -0.25691  0  3.943727  0  0  -0.161186  -0.248258  0  3.929038  0
C  C38  1  0.67527566  0.99668721  0.03997505  1  0  0.626805  0  3.713374  0  0  0.583484  0  3.999548  0  0  0.613467  0  3.997883  0  0  0.254168  0.563167  0  4.000152  0
C  C39  1  0.17493797  0.03663840  0.95997497  1  0  0.629581  0  3.711348  0  0  0.585513  0  3.999001  0  0  0.615632  0  3.997124  0  0  0.253209  0.565148  0  3.999543  0
C  C40  1  0.39372593  0.22093844  0.03405925  1  0  0.507144  0  3.808974  0  0  0.453916  0  4.091372  0  0  0.474948  0  4.10402  0  0  0.330079  0.439752  0  4.082731  0
C  C41  1  0.89364380  0.25527102  0.96580415  1  0  0.507961  0  3.808767  0  0  0.455573  0  4.090288  0  0  0.476651  0  4.102775  0  0  0.329903  0.441266  0  4.081512  0
N  N42  1  0.22796320  0.45985612  0.88184778  1  0  -0.075373  0  3.075607  0  0  -0.04877  0  3.363835  0  0  -0.05047  0  3.37705  0  0  -0.084534  -0.04749  0  3.354818  0
N  N43  1  0.72785509  0.34186000  0.11813582  1  0  -0.076718  0  3.076831  0  0  -0.04993  0  3.365007  0  0  -0.051618  0  3.378297  0  0  -0.084484  -0.048523  0  3.356265  0
N  N44  1  0.38522850  0.33584437  0.89854564  1  0  -0.389764  0  3.148953  0  0  -0.326443  0  3.439566  0  0  -0.346763  0  3.451854  0  0  -0.254636  -0.312531  0  3.430974  0
N  N45  1  0.88510087  0.23453994  0.10138441  1  0  -0.388725  0  3.147074  0  0  -0.326209  0  3.438005  0  0  -0.346511  0  3.450293  0  0  -0.255241  -0.312191  0  3.429581  0
N  N46  1  0.14435730  0.42221645  0.00046751  1  0  -0.057794  0  2.945894  0  0  -0.061004  0  3.239553  0  0  -0.058182  0  3.251928  0  0  -0.093395  -0.062628  0  3.231022  0
N  N47  1  0.64429132  0.42296709  0.99949876  1  0  -0.056986  0  2.945459  0  0  -0.060199  0  3.239348  0  0  -0.057403  0  3.251696  0  0  -0.09281  -0.061781  0  3.230594  0
N  N48  1  0.24527555  0.27139023  0.09977280  1  0  -0.404756  0  3.05818  0  0  -0.342268  0  3.353457  0  0  -0.362821  0  3.365767  0  0  -0.246681  -0.3283  0  3.345017  0
N  N49  1  0.74522209  0.37152881  0.90012312  1  0  -0.405871  0  3.057169  0  0  -0.344005  0  3.352674  0  0  -0.364433  0  3.364825  0  0  -0.247084  -0.329415  0  3.344123  0
N  N50  1  0.53061402  0.07327131  0.10206825  1  0  -0.492758  0  3.319189  0  0  -0.433195  0  3.571318  0  0  -0.457548  0  3.576369  0  0  -0.386568  -0.416567  0  3.567477  0
N  N51  1  0.03056116  0.17560502  0.89778780  1  0  -0.495489  0  3.319299  0  0  -0.436135  0  3.571098  0  0  -0.460611  0  3.576281  0  0  -0.385713  -0.419086  0  3.567308  0
N  N52  1  0.30584395  0.88517161  0.40762824  1  0  -0.382185  0  3.145532  0  0  -0.319859  0  3.43755  0  0  -0.340003  0  3.44959  0  0  -0.251279  -0.306053  0  3.429072  0
N  N53  1  0.80597205  0.29306507  0.59229232  1  0  -0.382436  0  3.145284  0  0  -0.32041  0  3.436784  0  0  -0.340507  0  3.448845  0  0  -0.250846  -0.306548  0  3.428597  0
N  N54  1  0.46909696  0.86728902  0.38558685  1  0  -0.077278  0  3.061439  0  0  -0.053301  0  3.345933  0  0  -0.054849  0  3.35916  0  0  -0.082419  -0.052086  0  3.336772  0
N  N55  1  0.96923491  0.25310346  0.61429723  1  0  -0.077445  0  3.063358  0  0  -0.0538  0  3.348004  0  0  -0.055313  0  3.361247  0  0  -0.083744  -0.052607  0  3.33946  0
N  N56  1  0.16539687  0.71262479  0.59707293  1  0  -0.495293  0  3.328416  0  0  -0.433351  0  3.577937  0  0  -0.457882  0  3.583113  0  0  -0.382978  -0.416542  0  3.574015  0
N  N57  1  0.66545996  0.30983770  0.40295430  1  0  -0.49467  0  3.327712  0  0  -0.434101  0  3.577326  0  0  -0.458451  0  3.582424  0  0  -0.385862  -0.417231  0  3.573719  0
N  N58  1  0.46103382  0.65189008  0.58197846  1  0  -0.400389  0  3.100699  0  0  -0.335922  0  3.395714  0  0  -0.356666  0  3.40807  0  0  -0.243084  -0.321844  0  3.387124  0
N  N59  1  0.96112529  0.23396982  0.41793719  1  0  -0.400909  0  3.098312  0  0  -0.337297  0  3.393238  0  0  -0.357927  0  3.40554  0  0  -0.244567  -0.322791  0  3.384637  0
N  N60  1  0.56153044  0.72871911  0.48852260  1  0  -0.048829  0  2.964713  0  0  -0.045361  0  3.253721  0  0  -0.043345  0  3.266419  0  0  -0.083458  -0.046362  0  3.244984  0
N  N61  1  0.06165057  0.21737483  0.51135807  1  0  -0.048898  0  2.963569  0  0  -0.045468  0  3.253185  0  0  -0.04347  0  3.265829  0  0  -0.082234  -0.046495  0  3.244333  0
O  O62  1  0.70372910  0.05607907  0.90981968  1  0  -0.57199  0  1.972169  0  0  -0.519828  0  2.213902  0  0  -0.542721  0  2.205299  0  0  -0.298606  -0.504004  0  2.219483  0
O  O63  1  0.20301021  0.96560763  0.09021922  1  0  -0.57327  0  1.970697  0  0  -0.521119  0  2.213304  0  0  -0.54392  0  2.204335  0  0  -0.298592  -0.505114  0  2.218669  0
O  O64  1  0.96912422  0.89173284  0.41622356  1  0  -0.565799  0  1.960602  0  0  -0.510214  0  2.198644  0  0  -0.533342  0  2.189615  0  0  -0.298802  -0.494143  0  2.20444  0
O  O65  1  0.46939115  0.30746088  0.58404656  1  0  -0.565755  0  1.961697  0  0  -0.510605  0  2.199944  0  0  -0.533657  0  2.190898  0  0  -0.298655  -0.494358  0  2.205427  0
