# generated using pymatgen
data_MnCuH16C7N2O11
_symmetry_space_group_name_H-M   'P 1'
_cell_length_a   7.46059963
_cell_length_b   8.59408479
_cell_length_c   12.93404830
_cell_angle_alpha   70.20672229
_cell_angle_beta   85.76641829
_cell_angle_gamma   69.02634436
_symmetry_Int_Tables_number   1
_chemical_formula_structural   MnCuH16C7N2O11
_chemical_formula_sum   'Mn2 Cu2 H32 C14 N4 O22'
_cell_volume   727.53945000
_cell_formula_units_Z   2
loop_
 _symmetry_equiv_pos_site_id
 _symmetry_equiv_pos_as_xyz
  1  'x, y, z'
loop_
 _atom_site_type_symbol
 _atom_site_label
 _atom_site_symmetry_multiplicity
 _atom_site_fract_x
 _atom_site_fract_y
 _atom_site_fract_z
 _atom_site_occupancy
 _atom_site_hle17_ddec_charge
 _atom_site_hle17_ddec_spin_density
 _atom_site_hle17_ddec_sum_bond_order
 _atom_site_hle17_magmom
 _atom_site_hse06_10hf_ddec_charge
 _atom_site_hse06_10hf_ddec_spin_density
 _atom_site_hse06_10hf_ddec_sum_bond_order
 _atom_site_hse06_10hf_magmom
 _atom_site_hse06_ddec_charge
 _atom_site_hse06_ddec_spin_density
 _atom_site_hse06_ddec_sum_bond_order
 _atom_site_hse06_magmom
 _atom_site_pbe_cm5_charge
 _atom_site_pbe_ddec_charge
 _atom_site_pbe_ddec_spin_density
 _atom_site_pbe_ddec_sum_bond_order
 _atom_site_pbe_magmom
Mn  Mn0  1  0.35957316  0.24779592  0.62011281  1  1.233046  4.74981  1.636932  4.689  1.070805  4.638549  2.126635  4.556  1.13104  4.652214  2.055018  4.613  0.587274  1.024996  4.612453  2.178539  4.497
Mn  Mn1  1  0.64053032  0.75227184  0.37995768  1  1.232728  4.750688  1.636186  4.689  1.070692  4.639541  2.125695  4.557  1.13101  4.65295  2.054106  4.613  0.586554  1.024214  4.614917  2.17784  4.499
Cu  Cu2  1  0.87757082  0.22220144  0.12125801  1  0.857463  0.794719  1.783436  0.51  0.83563  0.964791  2.180227  0.623  0.920336  1.084245  2.116181  0.705  0.709208  0.782721  0.884639  2.225727  0.57
Cu  Cu3  1  0.12252697  0.77781195  0.87864140  1  0.857096  -0.715924  1.778774  -0.509  0.835262  -0.799824  2.175166  -0.622  0.920474  -0.872745  2.111139  -0.705  0.706692  0.780341  -0.743082  2.221825  -0.566
H  H4  1  0.58237947  0.18760574  0.25087733  1  0.408148  -0.000525  0.905466  0.0  0.381059  -0.000505  0.964989  0.0  0.393061  -0.000564  0.947276  0.0  0.280654  0.372651  -0.000428  0.977366  0.0
H  H5  1  0.41759208  0.81252918  0.74896879  1  0.408176  -0.000498  0.905231  0.0  0.380757  -0.000432  0.965211  0.0  0.392789  -0.000488  0.947481  0.0  0.280626  0.372314  -0.000363  0.977621  0.0
H  H6  1  0.49164198  0.39231365  0.18568836  1  0.411601  2.9e-05  0.896273  0.0  0.38528  -2.1e-05  0.953652  0.0  0.397208  -1.8e-05  0.936146  0.0  0.279826  0.377082  -2.7e-05  0.965675  0.0
H  H7  1  0.50829707  0.60783810  0.81424894  1  0.411399  -4.3e-05  0.896572  0.0  0.384789  1.1e-05  0.95441  0.0  0.396791  5e-06  0.936818  0.0  0.279374  0.376443  2.2e-05  0.966608  0.0
H  H8  1  0.98052868  0.92493032  0.27653355  1  0.309351  -0.000413  0.893582  0.0  0.30205  0.000383  0.9476  0.001  0.309344  5e-05  0.943266  0.0  0.29969  0.29672  0.000615  0.951136  0.001
H  H9  1  0.01940505  0.07526629  0.72329456  1  0.310005  -0.0003  0.893419  0.0  0.302762  -0.001031  0.947298  -0.001  0.31013  -0.00074  0.942858  0.0  0.299602  0.297142  -0.001174  0.951213  -0.001
H  H10  1  0.16412982  0.98296998  0.22837167  1  0.295742  -0.000683  0.909173  -0.001  0.286726  0.00028  0.970985  0.0  0.293274  -1.7e-05  0.967053  0.0  0.293828  0.28194  0.000506  0.974292  0.0
H  H11  1  0.83588395  0.01725537  0.77157276  1  0.295925  0.000514  0.909138  0.001  0.286895  -0.000335  0.970952  0.0  0.293462  -9.1e-05  0.967002  0.0  0.29364  0.281861  -0.00049  0.974545  0.0
H  H12  1  0.82021217  0.53296487  0.10776134  1  0.307401  -0.000198  0.859432  -0.001  0.304908  0.00092  0.905932  0.0  0.310519  0.00049  0.903693  0.0  0.311114  0.30068  0.001234  0.908203  0.001
H  H13  1  0.17972467  0.46688469  0.89233543  1  0.307191  0.00026  0.859561  0.001  0.304697  -0.000721  0.90615  0.0  0.310355  -0.000352  0.903858  0.0  0.310728  0.300158  -0.000964  0.908804  -0.001
H  H14  1  0.05379553  0.43838101  0.10856650  1  0.304612  -0.000481  0.893062  -0.001  0.297531  0.000446  0.948976  0.0  0.305041  0.000212  0.943882  0.0  0.297623  0.292098  0.000604  0.953109  0.001
H  H15  1  0.94614217  0.56152208  0.89144352  1  0.304633  0.000716  0.892995  0.001  0.2976  -0.000137  0.948892  0.0  0.305151  8.3e-05  0.943772  0.0  0.297557  0.291895  -0.000286  0.953325  -0.001
H  H16  1  0.13544891  0.95770651  0.41617191  1  0.06067  0.007435  0.932781  0.009  0.075283  0.004969  0.997695  0.006  0.074055  0.003421  0.998883  0.004  0.102979  0.075696  0.006013  0.997168  0.007
H  H17  1  0.86415244  0.04219455  0.58369289  1  0.060944  -0.007345  0.932085  -0.009  0.07534  -0.004738  0.997103  -0.006  0.074171  -0.003401  0.998228  -0.004  0.10281  0.075401  -0.005559  0.996874  -0.007
H  H18  1  0.89238812  0.10376430  0.38622753  1  0.065955  0.000183  0.934031  0.001  0.082176  2.1e-05  0.997772  0.001  0.082055  -0.000103  0.998334  0.001  0.105723  0.081919  0.000125  0.997635  0.001
H  H19  1  0.10723288  0.89633528  0.61358542  1  0.06545  -0.000704  0.934498  -0.001  0.081633  -0.000573  0.998274  -0.001  0.081513  -0.000488  0.998835  -0.001  0.105446  0.081275  -0.000625  0.998156  -0.001
H  H20  1  0.23656358  0.21025679  0.28808222  1  0.087175  -0.000322  0.928533  0.0  0.109109  -0.000229  0.978079  0.0  0.109523  -0.00023  0.979208  0.0  0.101292  0.108562  -0.000218  0.977589  0.0
H  H21  1  0.76336663  0.78953793  0.71203924  1  0.086997  6e-06  0.928808  0.0  0.108966  -3.6e-05  0.978324  0.0  0.109403  -7.4e-05  0.979427  0.0  0.101016  0.108337  1e-06  0.977877  0.0
H  H22  1  0.13024929  0.24140260  0.40893741  1  0.074385  -0.00058  0.957979  0.0  0.092228  -0.000248  1.019501  0.0  0.091858  -0.000296  1.021505  0.0  0.097168  0.092205  -0.000176  1.018388  0.0
H  H23  1  0.86950118  0.75846826  0.59116089  1  0.074314  0.000264  0.957759  0.0  0.091971  0.000108  1.019504  0.0  0.091565  9e-06  1.021555  0.0  0.09709  0.09181  0.0002  1.018512  0.0
H  H24  1  0.80904990  0.42155520  0.29754930  1  0.066077  0.000763  0.921905  0.001  0.08358  0.00124  0.984983  0.001  0.083561  0.000937  0.984707  0.001  0.110509  0.083152  0.001516  0.985657  0.001
H  H25  1  0.19095120  0.57852047  0.70246079  1  0.065767  0.000172  0.92236  -0.001  0.083391  0.00075  0.985456  0.0  0.083388  0.000621  0.985171  0.0  0.110397  0.082825  0.000889  0.986222  0.0
H  H26  1  0.98943233  0.51808260  0.26573016  1  0.063146  0.007171  0.934904  0.009  0.075835  0.005175  1.000842  0.006  0.0747  0.00363  1.001958  0.004  0.102822  0.076322  0.006248  1.000293  0.007
H  H27  1  0.01084293  0.48176146  0.73417018  1  0.062939  -0.006683  0.934952  -0.009  0.075694  -0.004249  1.000964  -0.006  0.074588  -0.00299  1.002049  -0.004  0.102494  0.07585  -0.005037  1.00066  -0.007
H  H28  1  0.66286022  0.36099857  0.59183554  1  0.437013  -0.000297  0.861725  0.002  0.40647  0.000307  0.922642  0.002  0.418246  2.5e-05  0.905689  0.002  0.301589  0.398165  0.000578  0.934524  0.003
H  H29  1  0.33718839  0.63904857  0.40822611  1  0.436946  -0.000273  0.861847  0.002  0.406514  0.000351  0.922603  0.002  0.418295  5.4e-05  0.905639  0.002  0.301549  0.398159  0.000642  0.934566  0.003
H  H30  1  0.61236770  0.33022654  0.71864197  1  0.43279  0.000421  0.872347  0.002  0.398465  0.001057  0.941347  0.003  0.409861  0.000699  0.924904  0.002  0.297727  0.390428  0.001403  0.952872  0.003
H  H31  1  0.38750296  0.66976715  0.28136247  1  0.43311  0.000188  0.871978  0.002  0.398611  0.00083  0.941202  0.003  0.410029  0.000588  0.924731  0.002  0.29742  0.390494  0.001059  0.952853  0.003
H  H32  1  0.47038420  0.13562118  0.84144308  1  0.42444  5.9e-05  0.876858  0.001  0.394187  0.000684  0.939978  0.002  0.404891  0.000366  0.924484  0.001  0.294329  0.386563  0.001008  0.95094  0.002
H  H33  1  0.52958949  0.86425561  0.15853890  1  0.424878  -0.000178  0.876516  0.001  0.394835  0.000423  0.939324  0.002  0.405527  0.000236  0.923833  0.001  0.294388  0.387167  0.000616  0.950383  0.002
H  H34  1  0.27300332  0.10559394  0.84610359  1  0.42899  0.000159  0.867849  0.001  0.400568  0.000644  0.926278  0.002  0.412192  0.000459  0.909488  0.002  0.295159  0.392325  0.000858  0.938139  0.002
H  H35  1  0.72691801  0.89430407  0.15402206  1  0.428786  0.000298  0.868093  0.001  0.400475  0.000954  0.926335  0.002  0.412033  0.000606  0.909641  0.002  0.295077  0.392304  0.00128  0.938079  0.002
C  C36  1  0.74615686  0.11541569  0.97004264  1  0.544212  -0.00304  3.896059  -0.004  0.496226  0.000503  4.204586  -0.001  0.527671  0.000326  4.198285  -0.001  0.20949  0.474349  0.000664  4.20859  -0.001
C  C37  1  0.25404082  0.88458595  0.03000479  1  0.543905  0.004054  3.898002  0.005  0.495752  0.001073  4.206665  0.002  0.527225  0.000839  4.200362  0.001  0.209366  0.473824  0.001579  4.210952  0.002
C  C38  1  0.72972894  0.31100616  0.91200685  1  0.548855  -0.003846  3.864651  -0.005  0.506686  -5.8e-05  4.158395  -0.001  0.537867  -0.000159  4.152873  -0.001  0.214478  0.48499  4.8e-05  4.161712  -0.001
C  C39  1  0.27014627  0.68908257  0.08804326  1  0.549876  0.004884  3.865109  0.005  0.507921  0.001499  4.158494  0.002  0.539087  0.001278  4.15296  0.002  0.214992  0.486241  0.001862  4.162123  0.002
C  C40  1  0.03650529  0.07448625  0.35374808  1  0.078613  -0.001549  3.635981  -0.004  0.022885  0.000933  3.911125  -0.001  0.029039  -0.000114  3.924714  -0.002  -0.075755  0.019405  0.001821  3.901957  0.0
C  C41  1  0.96321555  0.92558073  0.64617522  1  0.079231  0.002052  3.634851  0.004  0.023912  -0.000388  3.90946  0.001  0.030077  0.000543  3.922966  0.002  -0.075607  0.02051  -0.001099  3.900605  0.001
C  C42  1  0.10011673  0.23213901  0.32985197  1  -0.165353  0.00309  3.669626  0.004  -0.200191  0.002276  3.921104  0.003  -0.203935  0.001476  3.937303  0.002  -0.165967  -0.197452  0.002924  3.909954  0.003
C  C43  1  0.89978521  0.76774533  0.67021979  1  -0.165621  -0.002901  3.669949  -0.004  -0.200158  -0.001782  3.921151  -0.002  -0.203903  -0.001195  3.93738  -0.002  -0.166034  -0.197355  -0.002199  3.910087  -0.003
C  C44  1  0.95081189  0.40741945  0.26300462  1  0.075024  -0.000454  3.641987  -0.003  0.016738  0.00271  3.922534  0.0  0.023038  0.001296  3.935961  -0.001  -0.074305  0.013008  0.003898  3.913496  0.001
C  C45  1  0.04921692  0.59248762  0.73699939  1  0.075817  0.002045  3.641874  0.004  0.017036  0.000294  3.923125  0.001  0.023338  0.001203  3.936518  0.002  -0.074223  0.013406  -0.000406  3.914359  0.001
C  C46  1  0.53006744  0.06847923  0.45304669  1  0.521949  0.00289  3.95933  0.003  0.474002  0.008093  4.260556  0.007  0.503677  0.005416  4.255673  0.005  0.214167  0.453486  0.010997  4.262715  0.009
C  C47  1  0.46990652  0.93173060  0.54677644  1  0.521696  0.003004  3.959709  0.003  0.474014  0.008273  4.26053  0.007  0.503686  0.005535  4.255663  0.005  0.214162  0.453441  0.011228  4.262693  0.009
C  C48  1  0.95138867  0.43273296  0.53090075  1  0.53521  0.003673  3.926342  0.004  0.484458  0.008958  4.226986  0.008  0.514131  0.006001  4.222251  0.006  0.222437  0.463737  0.012478  4.229478  0.011
C  C49  1  0.04873081  0.56716230  0.46926332  1  0.534372  0.00368  3.926408  0.004  0.483992  0.009157  4.226712  0.008  0.513643  0.006125  4.221957  0.006  0.222359  0.463299  0.012756  4.229279  0.011
N  N50  1  0.02765625  0.02990327  0.25412820  1  -0.594128  0.106564  3.146928  0.118  -0.581308  0.075521  3.437392  0.081  -0.612666  0.063606  3.436687  0.07  -0.6478  -0.562707  0.080363  3.440026  0.084
N  N51  1  0.97229375  0.97027870  0.74575359  1  -0.595113  -0.096646  3.145382  -0.118  -0.58249  -0.062823  3.43548  -0.081  -0.613914  -0.051112  3.434703  -0.07  -0.648146  -0.564147  -0.067439  3.438933  -0.083
N  N52  1  0.93327846  0.42046065  0.14695887  1  -0.58519  0.10851  3.115938  0.12  -0.568734  0.080842  3.397692  0.086  -0.599646  0.068269  3.397213  0.075  -0.631647  -0.550187  0.086284  3.400038  0.091
N  N53  1  0.06670011  0.57939295  0.85307003  1  -0.58519  -0.098032  3.114598  -0.12  -0.568699  -0.066817  3.396582  -0.086  -0.599652  -0.054363  3.396053  -0.075  -0.632002  -0.550566  -0.071926  3.399826  -0.089
O  O54  1  0.82520978  0.04433204  0.06835073  1  -0.589003  0.072433  2.121109  0.086  -0.544366  0.057506  2.381679  0.068  -0.584087  0.047033  2.374857  0.056  -0.31257  -0.517406  0.06417  2.386494  0.075
O  O55  1  0.17503440  0.95587655  0.93169419  1  -0.58863  -0.064975  2.120925  -0.086  -0.543923  -0.046935  2.381287  -0.067  -0.583761  -0.037042  2.374521  -0.055  -0.312208  -0.516957  -0.052995  2.386365  -0.073
O  O56  1  0.68545765  0.03947021  0.92142312  1  -0.564541  0.014727  1.993795  0.017  -0.527223  0.008893  2.221402  0.01  -0.549269  0.0048  2.208731  0.005  -0.297013  -0.510982  0.013339  2.229879  0.015
O  O57  1  0.31508432  0.96022492  0.07871195  1  -0.564681  -0.013669  1.995022  -0.017  -0.527371  -0.007592  2.222696  -0.01  -0.549357  -0.004158  2.209952  -0.005  -0.297452  -0.511797  -0.011066  2.231594  -0.014
O  O58  1  0.79969014  0.37808022  0.96609783  1  -0.569361  0.0706  2.088905  0.084  -0.536353  0.053184  2.357136  0.063  -0.572471  0.043758  2.345954  0.053  -0.319173  -0.511531  0.059246  2.364897  0.069
O  O59  1  0.20036221  0.62191859  0.03396100  1  -0.56957  -0.063174  2.088725  -0.083  -0.536637  -0.043183  2.356764  -0.062  -0.572779  -0.034225  2.34558  -0.052  -0.319313  -0.512189  -0.048302  2.365009  -0.067
O  O60  1  0.64871912  0.39478727  0.81737147  1  -0.565689  0.011584  2.035194  0.014  -0.506815  0.007309  2.241261  0.009  -0.531273  0.004035  2.230823  0.005  -0.287499  -0.489381  0.010573  2.247846  0.012
O  O61  1  0.35090020  0.60542546  0.18275230  1  -0.566405  -0.010913  2.034909  -0.014  -0.507619  -0.006325  2.240886  -0.008  -0.532035  -0.003579  2.230396  -0.005  -0.288454  -0.490566  -0.009042  2.247792  -0.012
O  O62  1  0.57555281  0.27842679  0.17794567  1  -0.859235  -0.001632  1.856558  -0.001  -0.819255  -0.001046  2.033498  0.0  -0.840766  -0.001283  1.995883  -0.001  -0.619963  -0.803978  -0.000724  2.059739  0.0
O  O63  1  0.42456621  0.72181349  0.82198103  1  -0.858881  0.00186  1.85608  0.001  -0.818453  0.001405  2.033794  0.001  -0.840039  0.001458  1.995928  0.001  -0.619492  -0.802952  0.001351  2.060258  0.001
O  O64  1  0.50568539  0.21472907  0.46344266  1  -0.563916  0.027903  2.002471  0.022  -0.515673  0.035869  2.252534  0.028  -0.540777  0.03111  2.242023  0.024  -0.288123  -0.496969  0.040647  2.259003  0.033
O  O65  1  0.49434003  0.78545223  0.53642567  1  -0.56369  0.028321  2.004102  0.022  -0.515556  0.036318  2.25411  0.029  -0.540695  0.031433  2.243601  0.024  -0.288288  -0.496759  0.041211  2.260566  0.033
O  O66  1  0.60028588  0.01959903  0.37108927  1  -0.623621  0.032927  2.128419  0.022  -0.552482  0.039348  2.380407  0.026  -0.583709  0.034715  2.369004  0.022  -0.293277  -0.529321  0.043885  2.38736  0.03
O  O67  1  0.39969078  0.98062691  0.62872843  1  -0.623763  0.03292  2.128115  0.022  -0.552286  0.039345  2.379634  0.026  -0.583588  0.034712  2.368395  0.022  -0.293059  -0.529031  0.043887  2.386488  0.03
O  O68  1  0.05150318  0.29518533  0.60649544  1  -0.594911  0.02753  2.067534  0.017  -0.533981  0.034171  2.322499  0.021  -0.56175  0.030516  2.311773  0.018  -0.288283  -0.513271  0.037599  2.329203  0.024
O  O69  1  0.94871975  0.70470351  0.39366137  1  -0.59437  0.029291  2.067196  0.019  -0.533826  0.035744  2.322279  0.023  -0.561552  0.031524  2.311586  0.019  -0.288536  -0.513305  0.039745  2.329054  0.026
O  O70  1  0.77855668  0.47218927  0.50002025  1  -0.583895  0.026616  2.083757  0.018  -0.516218  0.03496  2.323671  0.025  -0.544304  0.030652  2.312293  0.021  -0.271446  -0.495948  0.039315  2.331121  0.029
O  O71  1  0.22157306  0.52768527  0.50016905  1  -0.583401  0.02672  2.083261  0.018  -0.515895  0.035047  2.323302  0.025  -0.543956  0.030698  2.311855  0.021  -0.271339  -0.495708  0.039482  2.330874  0.029
O  O72  1  0.60043871  0.29548749  0.65363265  1  -0.867956  0.036506  1.909186  0.023  -0.798761  0.044109  2.133981  0.027  -0.825702  0.03922  2.094684  0.023  -0.579696  -0.777969  0.048439  2.161126  0.031
O  O73  1  0.39989064  0.70421241  0.34645184  1  -0.868373  0.037489  1.90865  0.024  -0.799077  0.045199  2.133491  0.028  -0.826021  0.040082  2.094174  0.023  -0.579779  -0.778333  0.049693  2.160744  0.031
O  O74  1  0.34459381  0.18036002  0.79990196  1  -0.844685  0.030092  1.852502  0.019  -0.781257  0.039297  2.050678  0.025  -0.805943  0.035008  2.013405  0.022  -0.572879  -0.762176  0.042965  2.076589  0.028
O  O75  1  0.65544000  0.81940033  0.20008035  1  -0.844873  0.030455  1.851826  0.019  -0.781793  0.039752  2.049721  0.025  -0.806368  0.035255  2.012563  0.022  -0.573097  -0.762969  0.04375  2.075668  0.029
