# generated using pymatgen
data_AlH5C10ClO5
_symmetry_space_group_name_H-M   'P 1'
_cell_length_a   6.60581269
_cell_length_b   11.20689476
_cell_length_c   11.03246378
_cell_angle_alpha   78.52725136
_cell_angle_beta   73.39404689
_cell_angle_gamma   71.29538451
_symmetry_Int_Tables_number   1
_chemical_formula_structural   AlH5C10ClO5
_chemical_formula_sum   'Al2 H10 C20 Cl2 O10'
_cell_volume   736.14553882
_cell_formula_units_Z   2
loop_
 _symmetry_equiv_pos_site_id
 _symmetry_equiv_pos_as_xyz
  1  'x, y, z'
loop_
 _atom_site_type_symbol
 _atom_site_label
 _atom_site_symmetry_multiplicity
 _atom_site_fract_x
 _atom_site_fract_y
 _atom_site_fract_z
 _atom_site_occupancy
 _atom_site_pbe_bader_charge
 _atom_site_pbe_bader_spin_density
 _atom_site_pbe_cm5_charge
 _atom_site_pbe_ddec_charge
 _atom_site_pbe_ddec_spin_density
 _atom_site_pbe_ddec_sum_bond_order
 _atom_site_pbe_magmom
Al  Al0  1  0.50165172  0.49961809  0.50372867  1  2.502258  0  0.390836  1.645189  0  2.573316  0
Al  Al1  1  0.00271321  0.49716183  0.50454463  1  2.501692  0  0.394443  1.635625  0  2.57216  0
H  H2  1  0.29772507  0.34450575  0.58865766  1  0.599171  0  0.337703  0.417091  0  0.887311  0
H  H3  1  0.70622397  0.65566745  0.43513995  1  0.638146  0  0.346867  0.42285  0  0.872231  0
H  H4  1  0.84130428  0.56064447  0.88458704  1  0.119294  0  0.107306  0.113216  0  1.004587  0
H  H5  1  0.16213683  0.43572694  0.12280099  1  0.09872  0  0.109834  0.113165  0  1.000858  0
H  H6  1  0.70666568  0.56710809  0.12186668  1  0.097971  0  0.111601  0.118791  0  0.992845  0
H  H7  1  0.29739071  0.42907180  0.88576095  1  0.105856  0  0.110134  0.118161  0  0.993777  0
H  H8  1  0.22500088  0.24426513  0.31940130  1  0.120278  0  0.106282  0.112717  0  1.033049  0
H  H9  1  0.55964289  0.13562822  0.17080409  1  0.091292  0  0.10522  0.10233  0  0.990238  0
H  H10  1  0.43191135  0.77532972  0.32167673  1  0.067296  0  0.107449  0.110873  0  1.032601  0
H  H11  1  0.66221878  0.90035175  0.17133827  1  0.084809  0  0.107061  0.104487  0  0.983571  0
C  C12  1  0.86697130  0.27377532  0.49474974  1  1.596635  0  0.271816  0.660532  0  4.097098  0
C  C13  1  0.65579735  0.48998841  0.73223762  1  1.576892  0  0.263617  0.631432  0  4.106134  0
C  C14  1  0.13415651  0.72409205  0.51091734  1  1.582153  0  0.270669  0.66031  0  4.094405  0
C  C15  1  0.34743063  0.50656155  0.27550574  1  1.575926  0  0.267359  0.632373  0  4.099883  0
C  C16  1  0.57668072  0.49419485  0.87260634  1  -0.076076  0  -0.010017  -0.031383  0  3.956151  0
C  C17  1  0.42701330  0.50200715  0.13527208  1  -0.083807  0  -0.011509  -0.036803  0  3.967576  0
C  C18  1  0.69334825  0.53326945  0.93808254  1  -0.026086  0  -0.079134  -0.092627  0  3.968636  0
C  C19  1  0.31068015  0.46266298  0.06970715  1  -0.029518  0  -0.079172  -0.09286  0  3.970099  0
C  C20  1  0.61874593  0.53714818  0.06893594  1  0.023376  0  -0.080671  -0.093273  0  3.964857  0
C  C21  1  0.38518140  0.45889088  0.93886164  1  -0.038902  0  -0.078643  -0.091076  0  3.962043  0
C  C22  1  0.93719890  0.13223382  0.49731650  1  0.04797  0  -0.007827  -0.124969  0  3.926218  0
C  C23  1  0.13469919  0.07183683  0.41147918  1  0.031256  0  0.001426  0.069041  0  3.960516  0
C  C24  1  0.80789663  0.06135596  0.58254068  1  0.142869  0  0.014191  0.065903  0  4.033322  0
C  C25  1  0.26989680  0.14161115  0.32173167  1  -0.075082  0  -0.087883  -0.128344  0  3.952261  0
C  C26  1  0.45731158  0.08063311  0.23841969  1  -0.03657  0  -0.088523  -0.07471  0  4.024857  0
C  C27  1  0.06222813  0.86595660  0.50453468  1  0.0092  0  -0.009174  -0.127442  0  3.926371  0
C  C28  1  0.87141513  0.92688468  0.58687367  1  0.097825  0  0.01307  0.064595  0  4.047817  0
C  C29  1  0.19661029  0.93656103  0.41404533  1  0.007781  0  0.000795  0.069899  0  3.961692  0
C  C30  1  0.38779378  0.87730142  0.32436034  1  -0.034703  0  -0.092163  -0.138133  0  3.968775  0
C  C31  1  0.51584807  0.94769671  0.23906675  1  -0.063036  0  -0.087847  -0.076163  0  4.031476  0
Cl  Cl32  1  0.71413536  0.84092459  0.69859563  1  -0.169964  0  0.014245  -0.039342  0  1.576779  0
Cl  Cl33  1  0.57399406  0.13314427  0.69037623  1  -0.177976  0  0.018954  -0.044097  0  1.577917  0
O  O34  1  0.68376800  0.33279338  0.46749865  1  -1.253014  0  -0.229212  -0.581021  0  2.343812  0
O  O35  1  0.84268621  0.50942114  0.67878969  1  -1.256562  0  -0.236277  -0.589858  0  2.360223  0
O  O36  1  0.00880171  0.67098585  0.48716344  1  -1.255938  0  -0.227988  -0.587007  0  2.358353  0
O  O37  1  0.46676718  0.53600147  0.33105046  1  -1.262394  0  -0.239791  -0.601497  0  2.367884  0
O  O38  1  0.32025886  0.66806073  0.53607467  1  -1.254339  0  -0.227081  -0.577632  0  2.328937  0
O  O39  1  0.16465726  0.48196041  0.32991267  1  -1.258867  0  -0.234092  -0.584536  0  2.347489  0
O  O40  1  0.99518052  0.32394884  0.52011838  1  -1.253566  0  -0.225735  -0.578782  0  2.33306  0
O  O41  1  0.53155410  0.46584244  0.67632190  1  -1.265921  0  -0.238167  -0.605768  0  2.383352  0
O  O42  1  0.26160953  0.43461319  0.55894195  1  -1.404285  0  -0.449365  -0.98637  0  2.212028  0
O  O43  1  0.74390344  0.56362007  0.44825881  1  -1.44206  0  -0.450608  -0.984893  0  2.188469  0
