# generated using pymatgen
data_AlH2C10SCl2O5F
_symmetry_space_group_name_H-M   'P 1'
_cell_length_a   6.62879713
_cell_length_b   11.19218532
_cell_length_c   12.75405989
_cell_angle_alpha   81.46368902
_cell_angle_beta   74.69225120
_cell_angle_gamma   71.72331000
_symmetry_Int_Tables_number   1
_chemical_formula_structural   AlH2C10SCl2O5F
_chemical_formula_sum   'Al2 H4 C20 S2 Cl4 O10 F2'
_cell_volume   864.39249446
_cell_formula_units_Z   2
loop_
 _symmetry_equiv_pos_site_id
 _symmetry_equiv_pos_as_xyz
  1  'x, y, z'
loop_
 _atom_site_type_symbol
 _atom_site_label
 _atom_site_symmetry_multiplicity
 _atom_site_fract_x
 _atom_site_fract_y
 _atom_site_fract_z
 _atom_site_occupancy
 _atom_site_pbe_bader_charge
 _atom_site_pbe_bader_spin_density
 _atom_site_pbe_cm5_charge
 _atom_site_pbe_ddec_charge
 _atom_site_pbe_ddec_spin_density
 _atom_site_pbe_ddec_sum_bond_order
 _atom_site_pbe_magmom
Al  Al0  1  0.49423978  0.49993452  0.50156190  1  2.502062  0  0.391258  1.643658  0  2.570444  0
Al  Al1  1  0.99422134  0.50202348  0.50004980  1  2.504228  0  0.393595  1.64224  0  2.56091  0
H  H2  1  0.28493659  0.35110994  0.57267720  1  0.604856  0  0.340184  0.422498  0  0.878122  0
H  H3  1  0.76678213  0.57997620  0.37117233  1  0.617542  0  0.345032  0.423213  0  0.871191  0
H  H4  1  0.22544459  0.23839107  0.35517120  1  0.082536  0  0.109642  0.132862  0  1.023736  0
H  H5  1  0.45323564  0.76988202  0.36562080  1  0.090883  0  0.113304  0.132051  0  1.025544  0
C  C6  1  0.85611368  0.27387695  0.49652305  1  1.590944  0  0.268486  0.660649  0  4.089899  0
C  C7  1  0.65417412  0.50312781  0.69376896  1  1.627569  0  0.260345  0.664361  0  4.144625  0
C  C8  1  0.13317851  0.72462205  0.50808676  1  1.586533  0  0.272157  0.658255  0  4.09472  0
C  C9  1  0.33513298  0.50524438  0.30389335  1  1.629016  0  0.256237  0.662337  0  4.144218  0
C  C10  1  0.41468589  0.47459684  0.88482673  1  0.589978  0  0.104353  0.259166  0  4.064243  0
C  C11  1  0.57324969  0.53842911  0.11292350  1  0.520272  0  0.104236  0.264577  0  4.053603  0
C  C12  1  0.58998863  0.50621780  0.81248316  1  -0.112491  0  -0.028263  -0.24593  0  3.956728  0
C  C13  1  0.39783051  0.50663288  0.18511800  1  -0.094517  0  -0.035537  -0.259212  0  3.990487  0
C  C14  1  0.58118119  0.52765514  0.00299859  1  -0.100005  0  -0.02998  -0.1227  0  4.116667  0
C  C15  1  0.40662147  0.48648868  0.99449413  1  -0.140406  0  -0.03022  -0.11997  0  4.122673  0
C  C16  1  0.93007978  0.13251076  0.49895758  1  0.013131  0  -0.009505  -0.124389  0  3.90894  0
C  C17  1  0.13313832  0.06934426  0.43040979  1  0.097206  0  0.001804  0.077757  0  3.970332  0
C  C18  1  0.80104554  0.06370448  0.56894629  1  0.110351  0  0.015518  0.067978  0  4.021792  0
C  C19  1  0.27157861  0.13592828  0.35894027  1  0.108166  0  -0.092835  -0.183632  0  3.931576  0
C  C20  1  0.46897363  0.07271175  0.29505213  1  -0.008622  0  0.008738  0.094457  0  4.057271  0
C  C21  1  0.06195312  0.86603767  0.50547442  1  0.049598  0  -0.006176  -0.120482  0  3.908677  0
C  C22  1  0.86709628  0.92947655  0.57234811  1  0.112406  0  0.016442  0.070569  0  4.039348  0
C  C23  1  0.19938492  0.93427268  0.43365972  1  -0.012613  0  0.002592  0.078834  0  3.968098  0
C  C24  1  0.40012387  0.87209811  0.36479941  1  0.064716  0  -0.089314  -0.176  0  3.924657  0
C  C25  1  0.53400674  0.93867898  0.29777746  1  0.12886  0  0.010093  0.095955  0  4.053253  0
S  S26  1  0.75044717  0.55097653  0.87869377  1  0.33578  0  0.114222  0.201437  0  2.816931  0
S  S27  1  0.23717991  0.46288106  0.11845243  1  0.326793  0  0.104965  0.189655  0  2.848007  0
Cl  Cl28  1  0.70788022  0.84746710  0.66350180  1  -0.164143  0  0.01573  -0.037555  0  1.603749  0
Cl  Cl29  1  0.56446284  0.13793277  0.65872748  1  -0.174478  0  0.019335  -0.038528  0  1.579442  0
Cl  Cl30  1  0.63644269  0.15686574  0.21258946  1  -0.186116  0  -0.007138  -0.068264  0  1.528695  0
Cl  Cl31  1  0.77978608  0.85781517  0.21861875  1  -0.184949  0  -0.007682  -0.065934  0  1.502225  0
O  O32  1  0.67102243  0.32844141  0.47506887  1  -1.25115  0  -0.23698  -0.596207  0  2.359426  0
O  O33  1  0.83461962  0.52652745  0.64690067  1  -1.252403  0  -0.23363  -0.578741  0  2.341093  0
O  O34  1  0.00894817  0.67232927  0.48375667  1  -1.245264  0  -0.228459  -0.582144  0  2.36181  0
O  O35  1  0.46165909  0.52956830  0.35231236  1  -1.25933  0  -0.236771  -0.592104  0  2.347036  0
O  O36  1  0.31712959  0.66876246  0.53047963  1  -1.249954  0  -0.225886  -0.566066  0  2.325977  0
O  O37  1  0.15465369  0.48009526  0.34936655  1  -1.258973  0  -0.243432  -0.596944  0  2.329241  0
O  O38  1  0.98451508  0.32718018  0.51644863  1  -1.259145  0  -0.231905  -0.589116  0  2.330005  0
O  O39  1  0.52822586  0.47617424  0.64707256  1  -1.253274  0  -0.2306  -0.582832  0  2.362256  0
O  O40  1  0.25296635  0.43937316  0.54616296  1  -1.4072  0  -0.448865  -0.987619  0  2.20361  0
O  O41  1  0.74002366  0.55780821  0.44911876  1  -1.421195  0  -0.448187  -0.984338  0  2.189836  0
F  F42  1  0.26748036  0.43437203  0.85603240  1  -0.624653  0  -0.080712  -0.105356  0  1.404669  0
F  F43  1  0.72140593  0.57713490  0.14274726  1  -0.632547  0  -0.086194  -0.118447  0  1.42623  0
