# generated using pymatgen
data_ZnH14C14(NO)4
_symmetry_space_group_name_H-M   'P 1'
_cell_length_a   7.64138253
_cell_length_b   9.46653853
_cell_length_c   11.09187109
_cell_angle_alpha   79.30057834
_cell_angle_beta   69.63951431
_cell_angle_gamma   84.75669930
_symmetry_Int_Tables_number   1
_chemical_formula_structural   ZnH14C14(NO)4
_chemical_formula_sum   'Zn2 H28 C28 N8 O8'
_cell_volume   738.83765686
_cell_formula_units_Z   2
loop_
 _symmetry_equiv_pos_site_id
 _symmetry_equiv_pos_as_xyz
  1  'x, y, z'
loop_
 _atom_site_type_symbol
 _atom_site_label
 _atom_site_symmetry_multiplicity
 _atom_site_fract_x
 _atom_site_fract_y
 _atom_site_fract_z
 _atom_site_occupancy
 _atom_site_hle17_bader_spin_density
 _atom_site_hle17_ddec_charge
 _atom_site_hle17_ddec_spin_density
 _atom_site_hle17_ddec_sum_bond_order
 _atom_site_hle17_magmom
 _atom_site_hse06_10hf_bader_spin_density
 _atom_site_hse06_10hf_ddec_charge
 _atom_site_hse06_10hf_ddec_spin_density
 _atom_site_hse06_10hf_ddec_sum_bond_order
 _atom_site_hse06_10hf_magmom
 _atom_site_hse06_bader_spin_density
 _atom_site_hse06_ddec_charge
 _atom_site_hse06_ddec_spin_density
 _atom_site_hse06_ddec_sum_bond_order
 _atom_site_hse06_magmom
 _atom_site_pbe_bader_spin_density
 _atom_site_pbe_cm5_charge
 _atom_site_pbe_ddec_charge
 _atom_site_pbe_ddec_spin_density
 _atom_site_pbe_ddec_sum_bond_order
 _atom_site_pbe_magmom
Zn  Zn0  1  0.56938105  0.97074737  0.24450298  1  0  1.020745  0  1.764272  0  0  0.835495  0  2.226689  0  0  0.883336  0  2.172149  0  0  0.680239  0.802107  0  2.263379  0
Zn  Zn1  1  0.51678031  0.12606355  0.77433869  1  0  1.030261  0  1.783088  0  0  0.842345  0  2.261192  0  0  0.889581  0  2.204443  0  0  0.692811  0.809764  0  2.298878  0
H  H2  1  0.68021591  0.21720051  0.01730933  1  0  0.275938  0  0.860183  0  0  0.273498  0  0.903948  0  0  0.27796  0  0.90115  0  0  0.333328  0.269822  0  0.906308  0
H  H3  1  0.35091624  0.40238139  0.76015139  1  0  0.259998  0  0.969498  0  0  0.245899  0  1.033206  0  0  0.252049  0  1.029103  0  0  0.302263  0.241629  0  1.035927  0
H  H4  1  0.44235649  0.70754020  0.38306918  1  0  0.283447  0  0.936375  0  0  0.270189  0  0.996339  0  0  0.276819  0  0.990819  0  0  0.313317  0.265398  0  1.000322  0
H  H5  1  0.18133202  0.16070387  0.93905152  1  0  0.304091  0  0.857995  0  0  0.296489  0  0.905772  0  0  0.301819  0  0.901755  0  0  0.319894  0.292137  0  0.909791  0
H  H6  1  0.34077701  0.23372635  0.97678840  1  0  0.268435  0  0.939538  0  0  0.249983  0  1.012793  0  0  0.256192  0  1.007976  0  0  0.294545  0.246083  0  1.015095  0
H  H7  1  0.20321363  0.94347790  0.35222091  1  0  0.269046  0  0.93855  0  0  0.256949  0  1.000504  0  0  0.259904  0  1.001581  0  0  0.298091  0.254914  0  0.999849  0
H  H8  1  0.29196679  0.85810305  0.22388996  1  0  0.288065  0  0.925229  0  0  0.272799  0  0.989717  0  0  0.279974  0  0.983373  0  0  0.291226  0.26743  0  0.994668  0
H  H9  1  0.39402006  0.23141273  0.59934760  1  0  0.294037  0  0.902065  0  0  0.283185  0  0.956993  0  0  0.288708  0  0.953029  0  0  0.308038  0.279114  0  0.960128  0
H  H10  1  0.49675433  0.07959883  0.54354167  1  0  0.292968  0  0.938702  0  0  0.277515  0  1.0011  0  0  0.283895  0  0.996657  0  0  0.292463  0.273023  0  1.004259  0
H  H11  1  0.23794438  0.96069087  0.73193608  1  0  0.259079  0  0.894052  0  0  0.255388  0  0.943564  0  0  0.259582  0  0.941377  0  0  0.325506  0.252393  0  0.945189  0
H  H12  1  0.33570107  0.18586211  0.22174866  1  0  0.275775  0  0.910237  0  0  0.266969  0  0.967385  0  0  0.271449  0  0.964554  0  0  0.307681  0.263606  0  0.969684  0
H  H13  1  0.51455580  0.23805922  0.25299418  1  0  0.27983  0  0.881615  0  0  0.270741  0  0.938044  0  0  0.275928  0  0.934306  0  0  0.30977  0.267251  0  0.940623  0
H  H14  1  0.01705114  0.81993222  0.90174531  1  0  0.083354  0  0.963008  0  0  0.093701  0  1.027446  0  0  0.097267  0  1.023761  0  0  0.097162  0.09094  0  1.030505  0
H  H15  1  0.81393282  0.47772522  0.22155396  1  0  0.096668  0  0.94062  0  0  0.106664  0  1.001217  0  0  0.110031  0  0.998582  0  0  0.101534  0.104233  0  1.003077  0
H  H16  1  0.22555327  0.64477304  0.76705155  1  0  0.101165  0  0.947402  0  0  0.113601  0  1.003992  0  0  0.117185  0  1.002751  0  0  0.101492  0.111106  0  1.004926  0
H  H17  1  0.01252837  0.30168524  0.09312007  1  0  0.110623  0  1.003427  0  0  0.116301  0  1.073493  0  0  0.120986  0  1.069754  0  0  0.094508  0.112844  0  1.076592  0
H  H18  1  0.72619734  0.60615674  0.45340004  1  0  0.110726  0  0.966485  0  0  0.117334  0  1.031556  0  0  0.121925  0  1.026518  0  0  0.101636  0.114138  0  1.035029  0
H  H19  1  0.03828104  0.35432457  0.67902099  1  0  0.092658  0  0.961346  0  0  0.096887  0  1.033727  0  0  0.101004  0  1.029758  0  0  0.096082  0.093862  0  1.03713  0
H  H20  1  0.98228700  0.77263932  0.34728288  1  0  0.104591  0  0.957009  0  0  0.11513  0  1.016872  0  0  0.118221  0  1.016336  0  0  0.101412  0.112767  0  1.018244  0
H  H21  1  0.30434171  0.51804286  0.56729300  1  0  0.11475  0  0.979689  0  0  0.122601  0  1.04489  0  0  0.127235  0  1.041443  0  0  0.099695  0.119474  0  1.047215  0
H  H22  1  0.70884539  0.69269194  0.80658483  1  0  0.099198  0  0.945762  0  0  0.111572  0  1.003704  0  0  0.1141  0  1.002401  0  0  0.104636  0.109704  0  1.004687  0
H  H23  1  0.24527799  0.68030010  0.16529271  1  0  0.083852  0  0.974857  0  0  0.093713  0  1.041019  0  0  0.09622  0  1.039495  0  0  0.101224  0.091862  0  1.04204  0
H  H24  1  0.75671354  0.42890274  0.85763599  1  0  0.105795  0  0.968886  0  0  0.114701  0  1.033466  0  0  0.117594  0  1.032835  0  0  0.102246  0.112521  0  1.034256  0
H  H25  1  0.29188260  0.42147960  0.21902304  1  0  0.089442  0  0.977373  0  0  0.101077  0  1.040097  0  0  0.103586  0  1.039798  0  0  0.097694  0.099129  0  1.040635  0
H  H26  1  0.25749509  0.24883818  0.45635944  1  0  0.09097  0  0.974689  0  0  0.102908  0  1.035204  0  0  0.106026  0  1.034343  0  0  0.100907  0.100182  0  1.037344  0
H  H27  1  0.05356339  0.25767158  0.32250608  1  0  0.093331  0  0.956408  0  0  0.104237  0  1.019178  0  0  0.107178  0  1.016723  0  0  0.104039  0.10221  0  1.020603  0
H  H28  1  0.76476458  0.88936906  0.57747630  1  0  0.108241  0  0.938778  0  0  0.118816  0  0.997524  0  0  0.122039  0  0.995006  0  0  0.109127  0.116209  0  1.000572  0
H  H29  1  0.96411738  0.87817228  0.71240287  1  0  0.106901  0  0.953112  0  0  0.119416  0  1.011502  0  0  0.122291  0  1.010722  0  0  0.108321  0.117267  0  1.012503  0
C  C30  1  0.77476898  0.76143410  0.14815839  1  0  0.635634  0  3.914843  0  0  0.587769  0  4.202493  0  0  0.622172  0  4.197012  0  0  0.195825  0.564409  0  4.205433  0
C  C31  1  0.90250955  0.66004334  0.06941735  1  0  -0.103579  0  3.80356  0  0  -0.081863  0  4.040358  0  0  -0.09433  0  4.066471  0  0  -0.035884  -0.073714  0  4.022456  0
C  C32  1  0.01940425  0.70548738  0.94077843  1  0  -0.047573  0  3.777808  0  0  -0.075295  0  4.03452  0  0  -0.07109  0  4.053514  0  0  -0.08662  -0.077586  0  4.021386  0
C  C33  1  0.90463010  0.51365814  0.12192600  1  0  -0.031022  0  3.75313  0  0  -0.055622  0  4.003588  0  0  -0.051449  0  4.02316  0  0  -0.082773  -0.057882  0  3.989856  0
C  C34  1  0.13416183  0.60852271  0.86652983  1  0  -0.183678  0  3.741067  0  0  -0.199495  0  3.99511  0  0  -0.207892  0  4.016673  0  0  -0.103423  -0.193811  0  3.980336  0
C  C35  1  0.01815965  0.41477327  0.04899001  1  0  -0.214782  0  3.75787  0  0  -0.233248  0  4.015734  0  0  -0.241743  0  4.035665  0  0  -0.120635  -0.22753  0  4.002364  0
C  C36  1  0.13428510  0.46086826  0.92014064  1  0  0.239784  0  3.82536  0  0  0.235761  0  4.072179  0  0  0.247037  0  4.092474  0  0  0.099249  0.228097  0  4.058129  0
C  C37  1  0.70352134  0.37143623  0.63624880  1  0  0.64187  0  3.906612  0  0  0.592719  0  4.199712  0  0  0.627441  0  4.193286  0  0  0.199061  0.569103  0  4.202754  0
C  C38  1  0.86194052  0.46941049  0.57505307  1  0  -0.123514  0  3.813025  0  0  -0.102495  0  4.050455  0  0  -0.116344  0  4.077309  0  0  -0.044727  -0.092882  0  4.031293  0
C  C39  1  0.85054924  0.58804630  0.48115396  1  0  -0.032934  0  3.738068  0  0  -0.057657  0  3.986467  0  0  -0.052566  0  4.004292  0  0  -0.084103  -0.060688  0  3.973589  0
C  C40  1  0.02759766  0.44552636  0.60550938  1  0  -0.046162  0  3.783028  0  0  -0.070618  0  4.037723  0  0  -0.065702  0  4.056631  0  0  -0.092149  -0.073014  0  4.025227  0
C  C41  1  0.99711762  0.68179366  0.41974692  1  0  -0.197438  0  3.749267  0  0  -0.213924  0  4.00447  0  0  -0.223458  0  4.026657  0  0  -0.112042  -0.207323  0  3.990637  0
C  C42  1  0.17572105  0.53673410  0.54410642  1  0  -0.207932  0  3.742024  0  0  -0.224005  0  3.996208  0  0  -0.232832  0  4.015643  0  0  -0.113837  -0.218453  0  3.983277  0
C  C43  1  0.16167467  0.65792778  0.45127493  1  0  0.237378  0  3.845892  0  0  0.231338  0  4.097864  0  0  0.243102  0  4.118428  0  0  0.098302  0.223959  0  4.084159  0
C  C44  1  0.44778536  0.86482605  0.95469208  1  0  0.649221  0  3.921464  0  0  0.59776  0  4.218665  0  0  0.632574  0  4.211102  0  0  0.200662  0.575366  0  4.221375  0
C  C45  1  0.47691555  0.70597994  0.98418110  1  0  -0.098268  0  3.780547  0  0  -0.074245  0  4.013734  0  0  -0.08551  0  4.038746  0  0  -0.030293  -0.067993  0  3.99762  0
C  C46  1  0.61850225  0.63239849  0.89689244  1  0  -0.032127  0  3.735721  0  0  -0.058587  0  3.984882  0  0  -0.055338  0  4.0047  0  0  -0.079175  -0.060729  0  3.972171  0
C  C47  1  0.36191510  0.62695785  0.09950370  1  0  -0.02853  0  3.751335  0  0  -0.054419  0  3.998838  0  0  -0.051437  0  4.020151  0  0  -0.081411  -0.055643  0  3.984198  0
C  C48  1  0.64545066  0.48495902  0.92500039  1  0  -0.167169  0  3.737005  0  0  -0.186481  0  3.993429  0  0  -0.193523  0  4.015413  0  0  -0.100585  -0.182463  0  3.979513  0
C  C49  1  0.38704123  0.47888627  0.12902122  1  0  -0.189902  0  3.766942  0  0  -0.207521  0  4.020635  0  0  -0.214758  0  4.042442  0  0  -0.110471  -0.203293  0  4.006404  0
C  C50  1  0.52887031  0.40681355  0.04124859  1  0  0.209313  0  3.814437  0  0  0.205948  0  4.0683  0  0  0.214623  0  4.088602  0  0  0.088246  0.199944  0  4.055041  0
C  C51  1  0.12882189  0.06021052  0.59223869  1  0  0.241476  0  3.798498  0  0  0.234725  0  4.055805  0  0  0.246619  0  4.073337  0  0  0.102984  0.226972  0  4.043627  0
C  C52  1  0.15363580  0.16706761  0.48125338  1  0  -0.190078  0  3.762246  0  0  -0.208307  0  4.017921  0  0  -0.216294  0  4.038853  0  0  -0.108453  -0.203602  0  4.005635  0
C  C53  1  0.03881712  0.17304408  0.40676680  1  0  -0.071928  0  3.792166  0  0  -0.092735  0  4.039696  0  0  -0.088848  0  4.057971  0  0  -0.090169  -0.094282  0  4.026194  0
C  C54  1  0.89858132  0.07300622  0.43900110  1  0  -0.118757  0  3.813215  0  0  -0.099315  0  4.053764  0  0  -0.110055  0  4.076963  0  0  -0.042164  -0.09245  0  4.038851  0
C  C55  1  0.87255242  0.96811582  0.55129855  1  0  -0.045564  0  3.753779  0  0  -0.071509  0  4.010813  0  0  -0.066989  0  4.027795  0  0  -0.082303  -0.076017  0  4.003571  0
C  C56  1  0.98602540  0.96097375  0.62632925  1  0  -0.156873  0  3.698879  0  0  -0.175402  0  3.951385  0  0  -0.181526  0  3.969145  0  0  -0.093039  -0.171951  0  3.941276  0
C  C57  1  0.78963243  0.07426919  0.35082076  1  0  0.621749  0  3.938669  0  0  0.57629  0  4.225761  0  0  0.60973  0  4.219503  0  0  0.191865  0.553579  0  4.229581  0
N  N58  1  0.54890842  0.25555879  0.06211825  1  0  -0.246086  0  3.212828  0  0  -0.211756  0  3.469713  0  0  -0.222752  0  3.477599  0  0  -0.350569  -0.203816  0  3.46142  0
N  N59  1  0.24333229  0.36404736  0.84324295  1  0  -0.263631  0  3.280499  0  0  -0.224769  0  3.530814  0  0  -0.240353  0  3.544445  0  0  -0.36125  -0.213267  0  3.520312  0
N  N60  1  0.30918677  0.75010425  0.40140021  1  0  -0.26646  0  3.299701  0  0  -0.231406  0  3.5547  0  0  -0.246792  0  3.567586  0  0  -0.36283  -0.221015  0  3.545293  0
N  N61  1  0.29297767  0.22706984  0.90158885  1  0  -0.504926  0  3.221473  0  0  -0.462591  0  3.498659  0  0  -0.475415  0  3.49366  0  0  -0.516921  -0.453512  0  3.501738  0
N  N62  1  0.30930054  0.87524001  0.30911882  1  0  -0.503887  0  3.203536  0  0  -0.455118  0  3.461392  0  0  -0.469913  0  3.461049  0  0  -0.519152  -0.44462  0  3.461477  0
N  N63  1  0.40949733  0.12220467  0.62483204  1  0  -0.515387  0  3.156941  0  0  -0.46868  0  3.421013  0  0  -0.483274  0  3.417962  0  0  -0.521393  -0.458511  0  3.422934  0
N  N64  1  0.23326498  0.05630668  0.67335441  1  0  -0.238683  0  3.24692  0  0  -0.209084  0  3.502746  0  0  -0.2222  0  3.513826  0  0  -0.353772  -0.199844  0  3.494582  0
N  N65  1  0.47848570  0.18392843  0.19302738  1  0  -0.494169  0  3.199814  0  0  -0.458966  0  3.473216  0  0  -0.471532  0  3.469358  0  0  -0.516712  -0.449784  0  3.473899  0
O  O66  1  0.68053771  0.71776447  0.26655954  1  0  -0.639646  0  1.99755  0  0  -0.580271  0  2.228388  0  0  -0.60549  0  2.219082  0  0  -0.319062  -0.562679  0  2.234127  0
O  O67  1  0.76022020  0.89431049  0.09449245  1  0  -0.641944  0  1.961194  0  0  -0.571999  0  2.213226  0  0  -0.59974  0  2.198857  0  0  -0.343147  -0.552782  0  2.222563  0
O  O68  1  0.72681642  0.25603539  0.71491174  1  0  -0.65528  0  2.024962  0  0  -0.579009  0  2.29761  0  0  -0.607915  0  2.283349  0  0  -0.338098  -0.558343  0  2.30674  0
O  O69  1  0.55294169  0.40095631  0.61143708  1  0  -0.650874  0  1.964101  0  0  -0.599898  0  2.187892  0  0  -0.622408  0  2.177257  0  0  -0.33339  -0.584021  0  2.194582  0
O  O70  1  0.54135000  0.92308195  0.83572935  1  0  -0.667005  0  2.062352  0  0  -0.589472  0  2.343845  0  0  -0.61914  0  2.327331  0  0  -0.341969  -0.568102  0  2.353165  0
O  O71  1  0.33940195  0.93351407  0.03958958  1  0  -0.627034  0  1.909412  0  0  -0.578798  0  2.130979  0  0  -0.601395  0  2.120915  0  0  -0.331267  -0.56315  0  2.135672  0
O  O72  1  0.84605586  0.14011584  0.23599874  1  0  -0.604072  0  1.927966  0  0  -0.558034  0  2.149671  0  0  -0.580081  0  2.140377  0  0  -0.324453  -0.543068  0  2.1563  0
O  O73  1  0.63561324  0.00102211  0.39887333  1  0  -0.663512  0  2.026812  0  0  -0.585822  0  2.280845  0  0  -0.613298  0  2.265891  0  0  -0.338835  -0.566728  0  2.290601  0
