# generated using pymatgen
data_ZnH14C11S(NO)4
_symmetry_space_group_name_H-M   'P 1'
_cell_length_a   7.99200805
_cell_length_b   9.37782194
_cell_length_c   10.05422742
_cell_angle_alpha   96.94318086
_cell_angle_beta   88.12331372
_cell_angle_gamma   98.46219002
_symmetry_Int_Tables_number   1
_chemical_formula_structural   ZnH14C11S(NO)4
_chemical_formula_sum   'Zn2 H28 C22 S2 N8 O8'
_cell_volume   739.78505592
_cell_formula_units_Z   2
loop_
 _symmetry_equiv_pos_site_id
 _symmetry_equiv_pos_as_xyz
  1  'x, y, z'
loop_
 _atom_site_type_symbol
 _atom_site_label
 _atom_site_symmetry_multiplicity
 _atom_site_fract_x
 _atom_site_fract_y
 _atom_site_fract_z
 _atom_site_occupancy
 _atom_site_hle17_bader_spin_density
 _atom_site_hle17_ddec_charge
 _atom_site_hle17_ddec_spin_density
 _atom_site_hle17_ddec_sum_bond_order
 _atom_site_hle17_magmom
 _atom_site_hse06_10hf_bader_spin_density
 _atom_site_hse06_10hf_ddec_charge
 _atom_site_hse06_10hf_ddec_spin_density
 _atom_site_hse06_10hf_ddec_sum_bond_order
 _atom_site_hse06_10hf_magmom
 _atom_site_hse06_bader_spin_density
 _atom_site_hse06_ddec_charge
 _atom_site_hse06_ddec_spin_density
 _atom_site_hse06_ddec_sum_bond_order
 _atom_site_hse06_magmom
 _atom_site_pbe_bader_spin_density
 _atom_site_pbe_cm5_charge
 _atom_site_pbe_ddec_charge
 _atom_site_pbe_ddec_spin_density
 _atom_site_pbe_ddec_sum_bond_order
 _atom_site_pbe_magmom
Zn  Zn0  1  0.15559733  0.34472672  0.32529368  1  0  0.925094  0  1.956459  0  0  0.742446  0  2.443285  0  0  0.788737  0  2.389882  0  0  0.612003  0.710361  0  2.480196  0
Zn  Zn1  1  0.84440108  0.65527499  0.67470427  1  0  0.925137  0  1.956314  0  0  0.742488  0  2.443133  0  0  0.788791  0  2.389727  0  0  0.611992  0.710406  0  2.480049  0
H  H2  1  0.83677199  0.02184469  0.67822135  1  0  0.351173  0  0.914093  0  0  0.321238  0  0.99805  0  0  0.331114  0  0.98852  0  0  0.2991  0.314166  0  1.00484  0
H  H3  1  0.16322544  0.97815159  0.32177611  1  0  0.351127  0  0.914063  0  0  0.321184  0  0.998031  0  0  0.331057  0  0.988507  0  0  0.299065  0.314112  0  1.004818  0
H  H4  1  0.96913596  0.17767097  0.74925476  1  0  0.336412  0  0.856261  0  0  0.331184  0  0.897613  0  0  0.337131  0  0.893853  0  0  0.324304  0.326781  0  0.900811  0
H  H5  1  0.03086894  0.82231883  0.25074700  1  0  0.336415  0  0.856386  0  0  0.331189  0  0.897713  0  0  0.337134  0  0.893953  0  0  0.324316  0.326784  0  0.900912  0
H  H6  1  0.85180076  0.16175653  0.35416621  1  0  0.290054  0  0.964253  0  0  0.262884  0  1.042357  0  0  0.27391  0  1.033075  0  0  0.296772  0.254869  0  1.04933  0
H  H7  1  0.14820704  0.83824185  0.64583231  1  0  0.289996  0  0.964414  0  0  0.262768  0  1.042578  0  0  0.273791  0  1.033317  0  0  0.29676  0.254754  0  1.049546  0
H  H8  1  0.70649391  0.95811872  0.24723152  1  0  0.090994  0  0.925964  0  0  0.102312  0  0.98759  0  0  0.106164  0  0.983291  0  0  0.121686  0.099642  0  0.99011  0
H  H9  1  0.29352053  0.04188823  0.75276472  1  0  0.09098  0  0.925931  0  0  0.102306  0  0.987532  0  0  0.106142  0  0.983233  0  0  0.121707  0.099639  0  0.990053  0
H  H10  1  0.51721447  0.79889451  0.56299455  1  0  0.12542  0  0.938765  0  0  0.131147  0  1.004492  0  0  0.135124  0  1.0025  0  0  0.112559  0.12827  0  1.006057  0
H  H11  1  0.48280842  0.20110361  0.43699880  1  0  0.125345  0  0.93881  0  0  0.131092  0  1.004501  0  0  0.135067  0  1.002512  0  0  0.112567  0.128217  0  1.006078  0
H  H12  1  0.31926662  0.56668534  0.54968436  1  0  0.087013  0  0.939389  0  0  0.09828  0  0.998894  0  0  0.100561  0  0.99752  0  0  0.11298  0.096768  0  0.99975  0
H  H13  1  0.68075840  0.43331055  0.45030778  1  0  0.086903  0  0.939509  0  0  0.098286  0  0.998862  0  0  0.10056  0  0.997506  0  0  0.113016  0.096796  0  0.999663  0
H  H14  1  0.38095964  0.49080035  0.13762107  1  0  0.096188  0  0.955572  0  0  0.104402  0  1.017246  0  0  0.107104  0  1.014783  0  0  0.122993  0.102218  0  1.019419  0
H  H15  1  0.61902521  0.50921549  0.86237234  1  0  0.096263  0  0.955551  0  0  0.104532  0  1.017148  0  0  0.107237  0  1.014679  0  0  0.123028  0.102354  0  1.019303  0
H  H16  1  0.57622322  0.72622467  0.13083867  1  0  0.122665  0  0.985716  0  0  0.126968  0  1.054005  0  0  0.131597  0  1.051408  0  0  0.106717  0.123508  0  1.056444  0
H  H17  1  0.42377948  0.27377901  0.86915244  1  0  0.1226  0  0.985627  0  0  0.126926  0  1.05392  0  0  0.131589  0  1.051283  0  0  0.106721  0.123469  0  1.056358  0
H  H18  1  0.63940740  0.33059635  0.05139533  1  0  0.134246  0  0.964061  0  0  0.151172  0  1.026608  0  0  0.152816  0  1.027369  0  0  0.091808  0.149747  0  1.026441  0
H  H19  1  0.36058312  0.66941749  0.94860779  1  0  0.134254  0  0.964138  0  0  0.151117  0  1.026766  0  0  0.152761  0  1.027526  0  0  0.091723  0.149694  0  1.026597  0
H  H20  1  0.83793354  0.38634414  0.96892385  1  0  0.1407  0  0.938064  0  0  0.158417  0  0.999465  0  0  0.161487  0  0.998049  0  0  0.096594  0.15619  0  1.000535  0
H  H21  1  0.16205904  0.61366111  0.03108444  1  0  0.140688  0  0.938025  0  0  0.158412  0  0.999423  0  0  0.161481  0  0.998009  0  0  0.096578  0.156183  0  1.000494  0
H  H22  1  0.75752013  0.50799119  0.09151214  1  0  0.137734  0  0.941342  0  0  0.158099  0  0.99951  0  0  0.160495  0  0.999009  0  0  0.096913  0.15617  0  1.000242  0
H  H23  1  0.24248487  0.49201403  0.90849998  1  0  0.137755  0  0.941353  0  0  0.158182  0  0.999435  0  0  0.16058  0  0.998926  0  0  0.096971  0.156248  0  1.000176  0
H  H24  1  0.35256129  0.99011561  0.96785662  1  0  0.132073  0  0.963626  0  0  0.149699  0  1.026577  0  0  0.15174  0  1.026081  0  0  0.09474  0.14825  0  1.026989  0
H  H25  1  0.64743580  0.00989397  0.03215300  1  0  0.132143  0  0.963539  0  0  0.149788  0  1.026487  0  0  0.151827  0  1.025995  0  0  0.09479  0.148337  0  1.026898  0
H  H26  1  0.15588773  0.93370518  0.04498795  1  0  0.132754  0  0.930302  0  0  0.156462  0  0.980754  0  0  0.158742  0  0.980341  0  0  0.099872  0.154886  0  0.981157  0
H  H27  1  0.84410967  0.06628469  0.95501390  1  0  0.132718  0  0.930347  0  0  0.156449  0  0.980771  0  0  0.158729  0  0.980359  0  0  0.099871  0.154867  0  0.98118  0
H  H28  1  0.34511449  0.92819930  0.12978038  1  0  0.129953  0  0.95048  0  0  0.150001  0  1.010515  0  0  0.151893  0  1.011045  0  0  0.095349  0.148534  0  1.010525  0
H  H29  1  0.65488179  0.07180596  0.87022985  1  0  0.130057  0  0.950463  0  0  0.150104  0  1.010477  0  0  0.152003  0  1.011001  0  0  0.095439  0.14864  0  1.010488  0
C  C30  1  0.92906146  0.17986460  0.55393467  1  0  0.506636  0  3.830168  0  0  0.456185  0  4.135372  0  0  0.484872  0  4.141349  0  0  0.251729  0.436794  0  4.130588  0
C  C31  1  0.07094841  0.82013163  0.44606563  1  0  0.50691  0  3.829919  0  0  0.456315  0  4.135268  0  0  0.485012  0  4.141246  0  0  0.251751  0.436924  0  4.130484  0
C  C32  1  0.67539100  0.91824557  0.34471135  1  0  0.039091  0  3.640353  0  0  0.000101  0  3.91277  0  0  0.006628  0  3.920157  0  0  0.05967  -0.002502  0  3.906725  0
C  C33  1  0.32462082  0.08175376  0.65528324  1  0  0.038981  0  3.640405  0  0  -2.8e-05  0  3.912842  0  0  0.006536  0  3.920171  0  0  0.059629  -0.002632  0  3.9068  0
C  C34  1  0.56081081  0.78308515  0.34722558  1  0  0.104663  0  3.812532  0  0  0.117226  0  4.054241  0  0  0.121805  0  4.074877  0  0  0.007997  0.114139  0  4.04036  0
C  C35  1  0.43920024  0.21691627  0.65276522  1  0  0.104895  0  3.812621  0  0  0.117524  0  4.054238  0  0  0.122101  0  4.074879  0  0  0.008138  0.114436  0  4.040362  0
C  C36  1  0.48887326  0.73497806  0.46649281  1  0  -0.140303  0  3.674942  0  0  -0.165596  0  3.934591  0  0  -0.172231  0  3.954105  0  0  -0.079923  -0.161585  0  3.921987  0
C  C37  1  0.51114315  0.26502553  0.53350013  1  0  -0.140289  0  3.674955  0  0  -0.165614  0  3.93465  0  0  -0.172249  0  3.954164  0  0  -0.080006  -0.16162  0  3.92204  0
C  C38  1  0.37960317  0.60537480  0.45935711  1  0  0.118601  0  3.717817  0  0  0.087187  0  3.972544  0  0  0.094184  0  3.990644  0  0  0.038221  0.082386  0  3.960447  0
C  C39  1  0.62041820  0.39461457  0.54063248  1  0  0.118833  0  3.717529  0  0  0.087341  0  3.972257  0  0  0.094335  0  3.990351  0  0  0.038287  0.082548  0  3.96017  0
C  C40  1  0.41326242  0.56491038  0.22808769  1  0  0.146987  0  3.660919  0  0  0.11644  0  3.90677  0  0  0.124893  0  3.923442  0  0  0.051355  0.110901  0  3.895502  0
C  C41  1  0.58673717  0.43509652  0.77190077  1  0  0.14695  0  3.661029  0  0  0.11638  0  3.906805  0  0  0.124834  0  3.923487  0  0  0.0514  0.110845  0  3.895537  0
C  C42  1  0.52093095  0.69512483  0.22603306  1  0  -0.169599  0  3.683954  0  0  -0.188948  0  3.932889  0  0  -0.197821  0  3.953242  0  0  -0.08189  -0.18314  0  3.919647  0
C  C43  1  0.47907748  0.30487544  0.77395370  1  0  -0.169674  0  3.683981  0  0  -0.189106  0  3.932948  0  0  -0.198007  0  3.953286  0  0  -0.082031  -0.183299  0  3.919707  0
C  C44  1  0.86162233  0.33782953  0.17000042  1  0  0.748688  0  3.841506  0  0  0.710052  0  4.130462  0  0  0.744089  0  4.122474  0  0  0.206104  0.686926  0  4.135034  0
C  C45  1  0.13836811  0.66216374  0.83000481  1  0  0.748562  0  3.841219  0  0  0.710017  0  4.130081  0  0  0.744051  0  4.122098  0  0  0.206117  0.686894  0  4.134645  0
C  C46  1  0.76619542  0.39237660  0.06405142  1  0  -0.461922  0  3.659595  0  0  -0.535528  0  3.888701  0  0  -0.543815  0  3.892732  0  0  -0.250888  -0.529381  0  3.885906  0
C  C47  1  0.23379535  0.60762536  0.93595459  1  0  -0.461923  0  3.659718  0  0  -0.535545  0  3.888781  0  0  -0.543828  0  3.892815  0  0  -0.250839  -0.529395  0  3.88598  0
C  C48  1  0.27575332  0.14333819  0.12929270  1  0  0.736602  0  3.838509  0  0  0.697318  0  4.128764  0  0  0.730227  0  4.121944  0  0  0.204079  0.674765  0  4.132606  0
C  C49  1  0.72421760  0.85665867  0.87071905  1  0  0.736247  0  3.83955  0  0  0.697167  0  4.129504  0  0  0.730081  0  4.122679  0  0  0.203964  0.674614  0  4.133345  0
C  C50  1  0.28497117  0.99037160  0.06401238  1  0  -0.451606  0  3.668019  0  0  -0.52606  0  3.898032  0  0  -0.533463  0  3.902262  0  0  -0.248226  -0.520768  0  3.895203  0
C  C51  1  0.71501966  0.00963030  0.93599064  1  0  -0.45164  0  3.668161  0  0  -0.526192  0  3.898098  0  0  -0.533602  0  3.902324  0  0  -0.2484  -0.520897  0  3.895277  0
S  S52  1  0.05956675  0.33988999  0.54645802  1  0  -0.432686  0  2.152045  0  0  -0.403529  0  2.538746  0  0  -0.425832  0  2.527917  0  0  -0.156174  -0.38908  0  2.547712  0
S  S53  1  0.94043969  0.66010854  0.45354651  1  0  -0.432762  0  2.152081  0  0  -0.403607  0  2.538897  0  0  -0.425891  0  2.528031  0  0  -0.156159  -0.389163  0  2.547863  0
N  N54  1  0.90111183  0.12508241  0.67021965  1  0  -0.633138  0  3.131888  0  0  -0.595537  0  3.375259  0  0  -0.616943  0  3.372008  0  0  -0.552562  -0.58157  0  3.378058  0
N  N55  1  0.09889690  0.87490726  0.32977807  1  0  -0.63324  0  3.131798  0  0  -0.595592  0  3.375252  0  0  -0.616995  0  3.371998  0  0  -0.552593  -0.581624  0  3.378051  0
N  N56  1  0.84940729  0.10931235  0.44307634  1  0  -0.304327  0  3.439718  0  0  -0.23791  0  3.684391  0  0  -0.261946  0  3.700444  0  0  -0.280607  -0.221154  0  3.673307  0
N  N57  1  0.15059942  0.89068717  0.55692429  1  0  -0.304334  0  3.439945  0  0  -0.237767  0  3.684605  0  0  -0.261828  0  3.70068  0  0  -0.280542  -0.221013  0  3.673525  0
N  N58  1  0.74150912  0.98612435  0.45474615  1  0  -0.110397  0  3.07659  0  0  -0.089457  0  3.357673  0  0  -0.091301  0  3.373856  0  0  -0.193368  -0.088905  0  3.346387  0
N  N59  1  0.25849585  0.01387181  0.54524922  1  0  -0.110375  0  3.076678  0  0  -0.089476  0  3.357731  0  0  -0.091312  0  3.373915  0  0  -0.193393  -0.088923  0  3.346444  0
N  N60  1  0.34197745  0.52076775  0.34235647  1  0  -0.329292  0  3.299872  0  0  -0.241543  0  3.572111  0  0  -0.260373  0  3.585844  0  0  -0.333364  -0.228587  0  3.562732  0
N  N61  1  0.65802231  0.47923383  0.65763648  1  0  -0.329469  0  3.299832  0  0  -0.241714  0  3.572109  0  0  -0.260547  0  3.585843  0  0  -0.333447  -0.228761  0  3.562732  0
O  O62  1  0.79411224  0.22948986  0.22634331  1  0  -0.649768  0  1.945985  0  0  -0.599312  0  2.168146  0  0  -0.623872  0  2.158376  0  0  -0.334065  -0.581999  0  2.174493  0
O  O63  1  0.20588053  0.77050094  0.77364972  1  0  -0.649625  0  1.945858  0  0  -0.599176  0  2.167981  0  0  -0.623733  0  2.158213  0  0  -0.333998  -0.581868  0  2.174336  0
O  O64  1  0.01018501  0.40768864  0.19552523  1  0  -0.654102  0  2.073742  0  0  -0.580793  0  2.344708  0  0  -0.610446  0  2.331221  0  0  -0.337985  -0.559911  0  2.353298  0
O  O65  1  0.98980382  0.59231019  0.80448550  1  0  -0.654117  0  2.073439  0  0  -0.580846  0  2.344368  0  0  -0.610496  0  2.330887  0  0  -0.338084  -0.559965  0  2.352958  0
O  O66  1  0.31437689  0.25009619  0.06614631  1  0  -0.616349  0  1.910899  0  0  -0.566806  0  2.123051  0  0  -0.5899  0  2.114828  0  0  -0.31666  -0.550482  0  2.128735  0
O  O67  1  0.68559843  0.74990513  0.93387276  1  0  -0.616171  0  1.911197  0  0  -0.566696  0  2.123227  0  0  -0.58978  0  2.114995  0  0  -0.316547  -0.550372  0  2.128907  0
O  O68  1  0.22078795  0.15242170  0.25400532  1  0  -0.680201  0  2.057914  0  0  -0.598179  0  2.328656  0  0  -0.627368  0  2.312125  0  0  -0.337842  -0.577195  0  2.338952  0
O  O69  1  0.77917330  0.84756975  0.74600306  1  0  -0.680189  0  2.058491  0  0  -0.598228  0  2.329099  0  0  -0.627438  0  2.312599  0  0  -0.337781  -0.577243  0  2.339395  0
