# generated using pymatgen
data_ZnH18C14(NO)6
_symmetry_space_group_name_H-M   'P 1'
_cell_length_a   9.37502459
_cell_length_b   9.37502152
_cell_length_c   12.26458118
_cell_angle_alpha   73.00113748
_cell_angle_beta   73.00094726
_cell_angle_gamma   82.38498869
_symmetry_Int_Tables_number   1
_chemical_formula_structural   ZnH18C14(NO)6
_chemical_formula_sum   'Zn2 H36 C28 N12 O12'
_cell_volume   984.50852933
_cell_formula_units_Z   2
loop_
 _symmetry_equiv_pos_site_id
 _symmetry_equiv_pos_as_xyz
  1  'x, y, z'
loop_
 _atom_site_type_symbol
 _atom_site_label
 _atom_site_symmetry_multiplicity
 _atom_site_fract_x
 _atom_site_fract_y
 _atom_site_fract_z
 _atom_site_occupancy
 _atom_site_pbe_bader_charge
 _atom_site_pbe_bader_spin_density
 _atom_site_pbe_cm5_charge
 _atom_site_pbe_ddec_charge
 _atom_site_pbe_ddec_spin_density
 _atom_site_pbe_ddec_sum_bond_order
 _atom_site_pbe_magmom
Zn  Zn0  1  0.22138906  0.77861172  0.24999959  1  1.2289  0  0.682551  0.67667  0  2.254523  0
Zn  Zn1  1  0.77861110  0.22138823  0.75000015  1  1.228914  0  0.682567  0.676684  0  2.254528  0
H  H2  1  0.08128307  0.09542750  0.12792785  1  0.022294  0  0.101941  0.084322  0  0.995786  0
H  H3  1  0.90457110  0.91871971  0.37206988  1  0.021901  0  0.101949  0.084374  0  0.995735  0
H  H4  1  0.91871709  0.90457244  0.87207189  1  0.022302  0  0.101947  0.084335  0  0.99577  0
H  H5  1  0.09542795  0.08128029  0.62792928  1  0.021902  0  0.101948  0.084361  0  0.995758  0
H  H6  1  0.00263475  0.16816465  0.25264343  1  0.087345  0  0.099997  0.085383  0  1.014738  0
H  H7  1  0.83183591  0.99736646  0.24735358  1  0.087333  0  0.100017  0.085444  0  1.014683  0
H  H8  1  0.99736429  0.83183423  0.74735678  1  0.08734  0  0.099991  0.08537  0  1.014748  0
H  H9  1  0.16816425  0.00263461  0.75264510  1  0.087351  0  0.099995  0.085371  0  1.014733  0
H  H10  1  0.35197650  0.09843563  0.11362309  1  0.082801  0  0.105985  0.090822  0  1.005395  0
H  H11  1  0.90156252  0.64802613  0.38637524  1  0.082681  0  0.106013  0.090846  0  1.00536  0
H  H12  1  0.64802478  0.90156539  0.88637536  1  0.082803  0  0.105995  0.090819  0  1.005413  0
H  H13  1  0.09843762  0.35197268  0.61362638  1  0.082701  0  0.106015  0.090847  0  1.005341  0
H  H14  1  0.40734452  0.04345168  0.24551094  1  0.097725  0  0.114271  0.110904  0  0.980107  0
H  H15  1  0.95654788  0.59265775  0.25448785  1  0.097608  0  0.114265  0.110901  0  0.980101  0
H  H16  1  0.59265563  0.95655050  0.75448832  1  0.097585  0  0.114268  0.110893  0  0.980083  0
H  H17  1  0.04345115  0.40734223  0.74551376  1  0.097606  0  0.114259  0.1109  0  0.980064  0
H  H18  1  0.19767774  0.19805495  0.40936914  1  0.063118  0  0.11302  0.127049  0  0.989568  0
H  H19  1  0.80194617  0.80232963  0.09062783  1  0.063665  0  0.113004  0.126984  0  0.989659  0
H  H20  1  0.80232688  0.80194590  0.59062943  1  0.063108  0  0.113007  0.127034  0  0.989578  0
H  H21  1  0.19805060  0.19767044  0.90937588  1  0.063612  0  0.112994  0.12699  0  0.989634  0
H  H22  1  0.37294869  0.35820093  0.03078995  1  0.097468  0  0.108747  0.113493  0  1.017066  0
H  H23  1  0.64180087  0.62704869  0.46920495  1  0.097539  0  0.108776  0.113502  0  1.017049  0
H  H24  1  0.62704700  0.64180259  0.96920835  1  0.09748  0  0.108758  0.11348  0  1.017042  0
H  H25  1  0.35819823  0.37294016  0.53079662  1  0.097594  0  0.108763  0.113498  0  1.016965  0
H  H26  1  0.16142960  0.46448891  0.41651868  1  0.127075  0  0.114151  0.083836  0  1.051116  0
H  H27  1  0.53551140  0.83857805  0.08347879  1  0.127054  0  0.114135  0.083809  0  1.051203  0
H  H28  1  0.83857390  0.53551086  0.58348200  1  0.127074  0  0.114146  0.083816  0  1.051152  0
H  H29  1  0.46448759  0.16142638  0.91652267  1  0.126993  0  0.114123  0.083833  0  1.05113  0
H  H30  1  0.33694257  0.61583124  0.05411953  1  0.116055  0  0.11538  0.078689  0  1.046828  0
H  H31  1  0.38417048  0.66305280  0.44587701  1  0.116088  0  0.115366  0.078709  0  1.046827  0
H  H32  1  0.66305200  0.38417121  0.94588007  1  0.116069  0  0.115376  0.07871  0  1.04685  0
H  H33  1  0.61582972  0.33693823  0.55412384  1  0.116199  0  0.115305  0.078629  0  1.046781  0
H  H34  1  0.16027921  0.98347827  0.35616263  1  0.483962  0  0.285757  0.235441  0  1.025446  0
H  H35  1  0.01652309  0.83972147  0.14383596  1  0.48396  0  0.285765  0.235429  0  1.025422  0
H  H36  1  0.83972207  0.01652162  0.64383688  1  0.483963  0  0.285748  0.235401  0  1.025501  0
H  H37  1  0.98347485  0.16027747  0.85616366  1  0.48396  0  0.285743  0.23542  0  1.025505  0
C  C38  1  0.05030850  0.06646661  0.22512721  1  0.260349  0  -0.079333  -0.054788  0  3.892743  0
C  C39  1  0.93353386  0.94969182  0.27487146  1  0.321474  0  -0.079416  -0.054966  0  3.892734  0
C  C40  1  0.94969166  0.93353334  0.77487253  1  0.320956  0  -0.079334  -0.054793  0  3.892737  0
C  C41  1  0.06646407  0.05030711  0.72512898  1  0.260684  0  -0.079381  -0.054868  0  3.892723  0
C  C42  1  0.31488107  0.09717183  0.20747450  1  0.269022  0  -0.067041  -0.09409  0  3.931632  0
C  C43  1  0.90282892  0.68512025  0.29252360  1  0.269012  0  -0.067065  -0.094089  0  3.931506  0
C  C44  1  0.68511909  0.90282922  0.79252500  1  0.268901  0  -0.067053  -0.094088  0  3.931599  0
C  C45  1  0.09717123  0.31487744  0.70747827  1  0.268997  0  -0.06708  -0.094095  0  3.93149  0
C  C46  1  0.28960779  0.25523354  0.21845745  1  -0.024489  0  0.020859  0.163727  0  3.912777  0
C  C47  1  0.74476639  0.71039671  0.28153792  1  -0.024492  0  0.020803  0.163582  0  3.912854  0
C  C48  1  0.71039237  0.74476865  0.78154099  1  -0.024639  0  0.020827  0.163688  0  3.912769  0
C  C49  1  0.25523154  0.28959887  0.71846407  1  -0.024548  0  0.020852  0.163701  0  3.912755  0
C  C50  1  0.23006920  0.28734568  0.32797845  1  -0.015034  0  -0.079563  -0.166583  0  3.907011  0
C  C51  1  0.71265331  0.76993666  0.17201938  1  -0.015637  0  -0.079479  -0.166399  0  3.906953  0
C  C52  1  0.76993207  0.71265532  0.67202163  1  -0.015017  0  -0.079523  -0.166551  0  3.906924  0
C  C53  1  0.28734349  0.23006119  0.82798317  1  -0.015654  0  -0.07946  -0.16643  0  3.906909  0
C  C54  1  0.32706616  0.37617721  0.11853566  1  -0.006574  0  -0.08124  -0.172685  0  3.934013  0
C  C55  1  0.62382474  0.67293185  0.38146078  1  -0.006535  0  -0.081241  -0.172588  0  3.93397  0
C  C56  1  0.67293065  0.62382625  0.88146241  1  -0.006513  0  -0.081232  -0.172607  0  3.933898  0
C  C57  1  0.37617545  0.32705803  0.61854277  1  -0.006449  0  -0.081269  -0.172658  0  3.934063  0
C  C58  1  0.20992555  0.43492437  0.33321390  1  0.460833  0  0.043108  0.086719  0  3.946675  0
C  C59  1  0.56507452  0.79008078  0.16678325  1  0.461332  0  0.043098  0.0867  0  3.946734  0
C  C60  1  0.79007460  0.56507557  0.66678584  1  0.460814  0  0.043098  0.086728  0  3.946632  0
C  C61  1  0.43492226  0.20992041  0.83321940  1  0.461406  0  0.043098  0.086636  0  3.946676  0
C  C62  1  0.30585398  0.52069877  0.13081584  1  0.452379  0  0.044758  0.095426  0  3.946258  0
C  C63  1  0.47930050  0.69414427  0.36918134  1  0.45235  0  0.044769  0.095335  0  3.946201  0
C  C64  1  0.69414172  0.47930250  0.86918376  1  0.45238  0  0.04478  0.095386  0  3.94618  0
C  C65  1  0.52069744  0.30584907  0.63082113  1  0.452253  0  0.044799  0.095374  0  3.946333  0
N  N66  1  0.18529947  0.00439093  0.26512384  1  -1.122259  0  -0.490118  -0.326475  0  3.526228  0
N  N67  1  0.99561035  0.81470198  0.23487497  1  -1.122008  0  -0.490131  -0.326439  0  3.526186  0
N  N68  1  0.81470070  0.99561014  0.73487484  1  -1.121892  0  -0.490119  -0.326426  0  3.526162  0
N  N69  1  0.00438758  0.18529807  0.76512523  1  -1.121923  0  -0.490081  -0.32643  0  3.52623  0
N  N70  1  0.13762473  0.74579512  0.53453521  1  0.83164  0  0.096035  0.704578  0  4.446025  0
N  N71  1  0.25420770  0.86238115  0.96546436  1  0.830887  0  0.096103  0.704536  0  4.446279  0
N  N72  1  0.86237767  0.25420472  0.46546406  1  0.831728  0  0.096038  0.704453  0  4.446101  0
N  N73  1  0.74579576  0.13762419  0.03453593  1  0.831633  0  0.09601  0.70455  0  4.446193  0
N  N74  1  0.24735801  0.55101114  0.23628931  1  -1.23995  0  -0.323643  -0.229669  0  3.519784  0
N  N75  1  0.44898981  0.75264265  0.26370791  1  -1.24051  0  -0.323654  -0.229626  0  3.519773  0
N  N76  1  0.75264102  0.44898996  0.76371123  1  -1.239926  0  -0.32366  -0.229684  0  3.519754  0
N  N77  1  0.55101033  0.24735615  0.73629453  1  -1.240546  0  -0.323654  -0.229573  0  3.519874  0
O  O78  1  0.12647263  0.68984723  0.45230318  1  -0.627175  0  -0.218612  -0.497086  0  2.068594  0
O  O79  1  0.31015119  0.87352588  0.04770028  1  -0.626448  0  -0.21866  -0.497061  0  2.068608  0
O  O80  1  0.87352417  0.31015286  0.54769807  1  -0.627194  0  -0.218626  -0.497052  0  2.068585  0
O  O81  1  0.68984894  0.12647403  0.95230274  1  -0.627152  0  -0.218635  -0.497123  0  2.068684  0
O  O82  1  0.14307727  0.65979673  0.63260946  1  -0.498281  0  -0.17836  -0.421187  0  1.930924  0
O  O83  1  0.34020713  0.85693984  0.86738814  1  -0.498209  0  -0.178288  -0.421073  0  1.93103  0
O  O84  1  0.85692400  0.34020317  0.36739005  1  -0.498274  0  -0.178362  -0.421122  0  1.930952  0
O  O85  1  0.65979739  0.14307772  0.13260926  1  -0.498283  0  -0.178332  -0.421149  0  1.930952  0
O  O86  1  0.14247595  0.88574135  0.51360856  1  -0.563097  0  -0.187343  -0.436165  0  1.972977  0
O  O87  1  0.11426260  0.85752464  0.98638964  1  -0.563139  0  -0.187429  -0.436242  0  1.973156  0
O  O88  1  0.85753089  0.11425938  0.48639037  1  -0.563183  0  -0.187336  -0.436124  0  1.973019  0
O  O89  1  0.88574204  0.14247510  0.01360835  1  -0.563127  0  -0.187322  -0.43614  0  1.973035  0
