# generated using pymatgen
data_CuH12C15SN4O5
_symmetry_space_group_name_H-M   'P 1'
_cell_length_a   8.56097493
_cell_length_b   10.37729996
_cell_length_c   10.88062022
_cell_angle_alpha   84.06524554
_cell_angle_beta   107.28446064
_cell_angle_gamma   110.35001479
_symmetry_Int_Tables_number   1
_chemical_formula_structural   CuH12C15SN4O5
_chemical_formula_sum   'Cu2 H24 C30 S2 N8 O10'
_cell_volume   865.37328251
_cell_formula_units_Z   2
loop_
 _symmetry_equiv_pos_site_id
 _symmetry_equiv_pos_as_xyz
  1  'x, y, z'
loop_
 _atom_site_type_symbol
 _atom_site_label
 _atom_site_symmetry_multiplicity
 _atom_site_fract_x
 _atom_site_fract_y
 _atom_site_fract_z
 _atom_site_occupancy
 _atom_site_hle17_ddec_charge
 _atom_site_hle17_ddec_spin_density
 _atom_site_hle17_ddec_sum_bond_order
 _atom_site_hle17_magmom
 _atom_site_hse06_10hf_ddec_charge
 _atom_site_hse06_10hf_ddec_spin_density
 _atom_site_hse06_10hf_ddec_sum_bond_order
 _atom_site_hse06_10hf_magmom
 _atom_site_hse06_ddec_charge
 _atom_site_hse06_ddec_spin_density
 _atom_site_hse06_ddec_sum_bond_order
 _atom_site_hse06_magmom
 _atom_site_pbe_cm5_charge
 _atom_site_pbe_ddec_charge
 _atom_site_pbe_ddec_spin_density
 _atom_site_pbe_ddec_sum_bond_order
 _atom_site_pbe_magmom
Cu  Cu0  1  0.00000136  0.50000817  0.49999914  1  0.854313  0.735692  1.843359  0.507  0.841967  0.818713  2.222354  0.631  0.931649  0.89946  2.160299  0.723  0.731244  0.788442  0.757735  2.264432  0.569
Cu  Cu1  1  0.50001007  0.00000059  0.50000059  1  0.852914  -0.743118  1.760444  -0.517  0.826637  -0.819687  2.139028  -0.634  0.916929  -0.89696  2.075266  -0.721  0.723894  0.770063  -0.763737  2.185188  -0.577
H  H2  1  0.18746305  0.82841052  0.38861931  1  0.408758  0.000125  0.904134  0.0  0.378317  0.000108  0.96917  0.0  0.389782  0.000111  0.952081  0.0  0.274372  0.370137  0.000102  0.981289  0.0
H  H3  1  0.81253470  0.17159498  0.61138820  1  0.408833  0.000125  0.904042  0.0  0.378415  0.000108  0.969053  0.0  0.389882  0.000111  0.951963  0.0  0.274362  0.370236  0.000102  0.98117  0.0
H  H4  1  0.17513833  0.95012279  0.28371919  1  0.379028  2e-06  0.939818  0.0  0.342385  2.1e-05  1.015749  0.0  0.353719  1.1e-05  0.999123  0.0  0.273057  0.334466  2.9e-05  1.027406  0.0
H  H5  1  0.82484251  0.04987452  0.71628452  1  0.379103  2e-06  0.939717  0.0  0.342438  2.1e-05  1.015672  0.0  0.353773  1.1e-05  0.999045  0.0  0.27307  0.334516  2.9e-05  1.027334  0.0
H  H6  1  0.06187908  0.55931261  0.24791403  1  0.100632  0.000914  0.930698  0.002  0.107186  0.000739  0.992048  0.001  0.110289  0.000531  0.988522  0.001  0.123566  0.104664  0.000893  0.994922  0.002
H  H7  1  0.93815324  0.44069588  0.75208896  1  0.100627  0.000914  0.930705  0.002  0.107197  0.000739  0.992044  0.001  0.110303  0.000531  0.988513  0.001  0.123551  0.104672  0.000893  0.99491  0.002
H  H8  1  0.07754711  0.08895569  0.33517360  1  0.135247  0.000302  0.970416  0.0  0.144642  0.000359  1.030518  0.0  0.147569  0.000249  1.029553  0.0  0.116104  0.142339  0.000451  1.031587  0.001
H  H9  1  0.92242650  0.91104729  0.66482070  1  0.135197  0.000302  0.970594  0.0  0.144636  0.000359  1.030641  0.0  0.147565  0.000249  1.02968  0.0  0.116082  0.142335  0.000451  1.031709  0.001
H  H10  1  0.37049288  0.91031358  0.93613098  1  0.115956  -0.000375  0.946031  0.0  0.124286  -0.000398  1.006456  0.0  0.12766  -0.000289  1.005377  0.0  0.112382  0.121805  -0.000518  1.007375  -0.001
H  H11  1  0.62950210  0.08968509  0.06387154  1  0.115982  -0.000374  0.946041  0.0  0.124287  -0.000398  1.006481  0.0  0.127663  -0.000289  1.005401  0.0  0.112369  0.121805  -0.000518  1.007395  -0.001
H  H12  1  0.14109867  0.45071995  0.09122628  1  0.115267  0.000293  0.937386  0.0  0.128503  0.000396  0.989958  0.0  0.131841  0.000283  0.988679  0.0  0.112461  0.125897  0.000484  0.991243  0.0
H  H13  1  0.85893209  0.54928807  0.90878279  1  0.115194  0.000293  0.937518  0.0  0.12842  0.000396  0.990111  0.0  0.131759  0.000283  0.988831  0.0  0.112458  0.125828  0.000484  0.991376  0.0
H  H14  1  0.47548517  0.87439293  0.75472230  1  0.094399  -0.000683  0.950323  -0.002  0.103393  -0.000555  1.00828  -0.001  0.105732  -0.000398  1.006767  -0.001  0.12048  0.101588  -0.000678  1.009297  -0.001
H  H15  1  0.52451064  0.12559924  0.24528532  1  0.094381  -0.000683  0.950313  -0.002  0.103361  -0.000554  1.008282  -0.001  0.105697  -0.000397  1.006776  -0.001  0.120495  0.101552  -0.000678  1.009296  -0.001
H  H16  1  0.00497576  0.21458353  0.48126478  1  0.103029  0.000816  0.935905  0.001  0.111077  0.000678  0.99844  0.001  0.113114  0.000495  0.996588  0.001  0.123995  0.109374  0.000822  0.999843  0.001
H  H17  1  0.99501036  0.78542833  0.51872299  1  0.103079  0.000816  0.935852  0.001  0.111065  0.000678  0.998438  0.001  0.113102  0.000495  0.996586  0.001  0.12398  0.109363  0.000822  0.999841  0.001
H  H18  1  0.56147309  0.59942045  0.64040814  1  0.125204  0.000535  0.95793  0.001  0.134593  5e-05  1.020879  0.0  0.137414  -2.2e-05  1.020225  0.0  0.095951  0.132811  0.000178  1.02128  0.0
H  H19  1  0.43851962  0.40056953  0.35958684  1  0.125214  0.000535  0.957748  0.001  0.134621  5e-05  1.020675  0.0  0.137445  -2.2e-05  1.020023  0.0  0.096009  0.132837  0.000178  1.021084  0.0
H  H20  1  0.38224731  0.50259990  0.51356158  1  0.127999  -0.000533  0.9514  0.0  0.14114  -0.000524  1.010752  -0.001  0.142829  -0.000366  1.011107  0.0  0.105982  0.140231  -0.000781  1.010432  -0.001
H  H21  1  0.61776043  0.49739993  0.48644219  1  0.128053  -0.000532  0.951364  0.0  0.141165  -0.000523  1.010723  -0.001  0.142857  -0.000366  1.011081  0.0  0.106012  0.140258  -0.00078  1.010403  -0.001
H  H22  1  0.20998028  0.23378707  0.71009927  1  0.12521  -0.000221  0.976124  0.0  0.132138  -0.000211  1.041314  0.0  0.136742  -0.000161  1.038373  0.0  0.10939  0.128696  -0.00024  1.043724  -0.001
H  H23  1  0.79001571  0.76620790  0.28989814  1  0.125199  -0.00022  0.976128  0.0  0.132127  -0.000211  1.041313  0.0  0.136734  -0.000161  1.038369  0.0  0.109383  0.128685  -0.000239  1.043723  -0.001
H  H24  1  0.31834488  0.18125179  0.53860804  1  0.08458  -0.00068  0.973415  -0.002  0.093464  -0.000563  1.035127  -0.001  0.095069  -0.000395  1.034638  -0.001  0.118628  0.092004  -0.000704  1.035802  -0.001
H  H25  1  0.68164785  0.81874120  0.46138773  1  0.084638  -0.00068  0.973458  -0.002  0.093547  -0.000563  1.035138  -0.001  0.095152  -0.000395  1.03465  -0.001  0.118643  0.092088  -0.000703  1.035821  -0.001
C  C26  1  0.23874442  0.10829418  0.94919791  1  0.098514  -0.003859  3.726972  -0.004  0.089357  -0.000895  4.013572  -0.001  0.095666  -0.001033  4.029398  -0.001  0.128654  0.084861  -0.000774  4.003292  -0.001
C  C27  1  0.76125440  0.89170770  0.05080357  1  0.098711  -0.00386  3.726948  -0.004  0.089458  -0.000895  4.013703  -0.001  0.095763  -0.001035  4.029532  -0.001  0.128681  0.084973  -0.000774  4.003393  -0.001
C  C28  1  0.16192841  0.18914001  0.11278814  1  0.10107  0.003885  3.706573  0.004  0.085015  0.00091  3.99402  0.001  0.092352  0.001069  4.009067  0.001  0.129433  0.080265  0.000816  3.984267  0.001
C  C29  1  0.83807370  0.81086433  0.88722233  1  0.101269  0.003886  3.706475  0.004  0.085132  0.00091  3.994109  0.001  0.092473  0.001071  4.009143  0.001  0.129442  0.080378  0.000817  3.984367  0.001
C  C30  1  0.11525712  0.25898617  0.19934374  1  0.089131  -0.008544  3.780323  -0.008  0.101304  -0.002575  4.020477  -0.003  0.105653  -0.002851  4.040097  -0.003  0.01405  0.098069  -0.002376  4.007627  -0.002
C  C31  1  0.88473896  0.74101530  0.80066261  1  0.0891  -0.008546  3.780083  -0.008  0.101136  -0.002576  4.020527  -0.003  0.105499  -0.002853  4.040128  -0.003  0.014078  0.097896  -0.002377  4.007697  -0.002
C  C32  1  0.32590250  0.49364079  0.69239337  1  0.695915  -0.005465  3.867215  -0.008  0.664231  -0.000298  4.171607  -0.002  0.699941  -3.2e-05  4.166789  -0.001  0.193211  0.639743  -0.000257  4.172804  -0.002
C  C33  1  0.67409797  0.50634680  0.30759441  1  0.69597  -0.005466  3.867412  -0.008  0.664377  -0.000299  4.171631  -0.002  0.700094  -3.4e-05  4.166807  -0.001  0.19328  0.639898  -0.000259  4.172809  -0.002
C  C34  1  0.06796062  0.45559868  0.26238081  1  0.137786  -0.008086  3.680764  -0.008  0.111073  -0.001064  3.932621  -0.002  0.120749  -0.002093  3.94864  -0.003  0.051091  0.104467  -0.000225  3.92287  -0.001
C  C35  1  0.93205305  0.54440599  0.73761408  1  0.137542  -0.008088  3.680887  -0.008  0.110859  -0.001064  3.932733  -0.002  0.120538  -0.002095  3.948753  -0.003  0.050991  0.104254  -0.000226  3.922987  -0.001
C  C36  1  0.28905603  0.07977867  0.84066235  1  0.08584  0.008765  3.7875  0.009  0.099044  0.002624  4.020709  0.003  0.102757  0.002857  4.041635  0.003  0.013281  0.09646  0.002452  4.006914  0.002
C  C37  1  0.71094208  0.92021541  0.15933378  1  0.085756  0.008763  3.787664  0.009  0.098919  0.002624  4.020987  0.003  0.102633  0.002857  4.041918  0.003  0.013164  0.096338  0.002452  4.007181  0.002
C  C38  1  0.38014443  0.70110982  0.53786088  1  0.717964  0.003005  3.82201  0.006  0.67561  -0.000742  4.128616  0.002  0.714909  -0.000197  4.117819  0.001  0.211085  0.648961  -0.001242  4.134905  0.002
C  C39  1  0.61986932  0.29889199  0.46213138  1  0.718182  0.003009  3.821258  0.006  0.675744  -0.000741  4.127969  0.002  0.71505  -0.000196  4.117172  0.001  0.211337  0.649093  -0.001241  4.134246  0.002
C  C40  1  0.07526410  0.19285957  0.31102150  1  -0.132255  0.010526  3.647965  0.01  -0.155046  0.003799  3.896726  0.004  -0.161771  0.003683  3.91652  0.004  -0.074129  -0.15118  0.00382  3.88433  0.004
C  C41  1  0.92472551  0.80714354  0.68897490  1  -0.132174  0.010528  3.648034  0.01  -0.154961  0.003799  3.896795  0.004  -0.161697  0.003684  3.916595  0.004  -0.074081  -0.151099  0.003821  3.88441  0.004
C  C42  1  0.35906352  0.97399985  0.85022561  1  -0.138703  -0.010887  3.691787  -0.011  -0.160379  -0.003849  3.943168  -0.004  -0.167113  -0.003702  3.962438  -0.004  -0.075886  -0.155218  -0.003986  3.929644  -0.005
C  C43  1  0.64093585  0.02598877  0.14977567  1  -0.138802  -0.010886  3.691837  -0.011  -0.160424  -0.003848  3.943214  -0.004  -0.167163  -0.003702  3.962488  -0.004  -0.075785  -0.155272  -0.003985  3.929688  -0.005
C  C44  1  0.10961020  0.39319428  0.17537305  1  -0.153942  0.01056  3.695719  0.011  -0.172587  0.003793  3.937314  0.004  -0.179311  0.003632  3.955411  0.004  -0.078212  -0.168095  0.003861  3.925457  0.004
C  C45  1  0.89041859  0.60681484  0.82463457  1  -0.153848  0.010561  3.695711  0.011  -0.17245  0.003793  3.937373  0.004  -0.179176  0.003634  3.955463  0.004  -0.078286  -0.167963  0.003862  3.925515  0.004
C  C46  1  0.41693335  0.95315410  0.75010778  1  0.130016  0.007382  3.685479  0.008  0.10029  0.00065  3.943852  0.001  0.109158  0.001719  3.962007  0.003  0.045789  0.094679  -8.3e-05  3.931351  0.0
C  C47  1  0.58306119  0.04683205  0.24989796  1  0.13014  0.007384  3.684933  0.008  0.100453  0.000651  3.943298  0.001  0.109327  0.00172  3.961449  0.003  0.04578  0.094847  -8.2e-05  3.93079  0.0
C  C48  1  0.03602997  0.26275280  0.39360402  1  0.121846  -0.007306  3.668047  -0.008  0.095014  -0.000735  3.925787  -0.001  0.103227  -0.001751  3.944354  -0.003  0.048741  0.089572  6.2e-05  3.914245  -0.001
C  C49  1  0.96396725  0.73725366  0.60639042  1  0.121725  -0.007306  3.668058  -0.008  0.094986  -0.000734  3.925793  -0.001  0.103201  -0.00175  3.94436  -0.003  0.048683  0.089545  6.2e-05  3.914258  -0.001
C  C50  1  0.42218784  0.57312785  0.59429865  1  -0.427706  -0.011247  3.654341  -0.011  -0.466149  -0.006112  3.894512  -0.006  -0.477188  -0.004234  3.895726  -0.005  -0.178542  -0.458763  -0.007536  3.893139  -0.008
C  C51  1  0.57781764  0.42688585  0.40568276  1  -0.42775  -0.011251  3.654176  -0.011  -0.466158  -0.006115  3.894283  -0.006  -0.477229  -0.004235  3.89554  -0.005  -0.17856  -0.458773  -0.007538  3.892909  -0.008
C  C52  1  0.27079517  0.15475444  0.72569119  1  -0.135781  -0.010883  3.66811  -0.011  -0.153931  -0.003794  3.908088  -0.004  -0.160561  -0.003619  3.92603  -0.004  -0.075895  -0.150742  -0.003963  3.897181  -0.005
C  C53  1  0.72919366  0.84523780  0.27429996  1  -0.135637  -0.010882  3.667995  -0.011  -0.153742  -0.003796  3.907963  -0.004  -0.160373  -0.00362  3.925905  -0.004  -0.075856  -0.15055  -0.003963  3.897065  -0.005
C  C54  1  0.33000764  0.12599615  0.62949766  1  0.138435  0.007731  3.660582  0.008  0.115354  0.000831  3.903308  0.001  0.123604  0.001887  3.923066  0.003  0.049912  0.109953  3.9e-05  3.89086  0.001
C  C55  1  0.66998964  0.87400190  0.37049993  1  0.138194  0.00773  3.660803  0.008  0.115092  0.000831  3.903548  0.001  0.123347  0.001887  3.923303  0.003  0.049833  0.109674  3.9e-05  3.891128  0.001
S  S56  1  0.20883155  0.25988256  0.97165146  1  0.188852  -0.000101  2.447483  0.0  0.192534  1.2e-05  2.75361  0.0  0.196446  -2.6e-05  2.751168  0.0  0.176391  0.188432  6.6e-05  2.756101  0.0
S  S57  1  0.79118074  0.74011083  0.02835740  1  0.188745  -0.000102  2.447159  0.0  0.192507  1.2e-05  2.753361  0.0  0.196416  -2.6e-05  2.750919  0.0  0.176413  0.1884  6.6e-05  2.755852  0.0
N  N58  1  0.40593813  0.02942752  0.64194339  1  -0.280337  -0.078541  3.289402  -0.095  -0.23279  -0.052823  3.578091  -0.069  -0.263369  -0.043829  3.60094  -0.06  -0.336586  -0.214147  -0.05736  3.564721  -0.072
N  N59  1  0.59405259  0.97056479  0.35807494  1  -0.280371  -0.078525  3.289282  -0.095  -0.232857  -0.052818  3.578019  -0.069  -0.263434  -0.04383  3.600861  -0.06  -0.336665  -0.214207  -0.057349  3.564653  -0.072
N  N60  1  0.03416402  0.39234722  0.37076604  1  -0.289138  0.071893  3.322812  0.086  -0.240549  0.050573  3.608782  0.066  -0.268933  0.042314  3.630655  0.058  -0.34189  -0.224618  0.054465  3.596949  0.068
N  N61  1  0.96584695  0.60765964  0.62922624  1  -0.288879  0.071894  3.322705  0.086  -0.240359  0.050574  3.608668  0.066  -0.268742  0.042318  3.630538  0.058  -0.341757  -0.224428  0.054462  3.596843  0.068
N  N62  1  0.17340771  0.06388261  0.13566750  1  -0.193295  -0.003339  3.102866  -0.004  -0.153648  -0.000746  3.380178  -0.001  -0.163716  -0.000945  3.396687  -0.001  -0.184472  -0.147567  -0.000623  3.370048  -0.001
N  N63  1  0.82658967  0.93612153  0.86433076  1  -0.193418  -0.00334  3.10274  -0.004  -0.15367  -0.000744  3.379968  -0.001  -0.163738  -0.000945  3.396471  -0.001  -0.184492  -0.147592  -0.000623  3.369842  -0.001
N  N64  1  0.21697806  0.01846700  0.04385885  1  -0.207759  0.003237  3.042961  0.004  -0.198125  0.000709  3.334689  0.001  -0.205756  0.000898  3.351522  0.001  -0.204623  -0.193006  0.000606  3.323621  0.001
N  N65  1  0.78301474  0.98152353  0.95614257  1  -0.20777  0.003238  3.043132  0.004  -0.198121  0.000708  3.334863  0.001  -0.205749  0.000899  3.351693  0.001  -0.204623  -0.193006  0.000607  3.323783  0.001
O  O66  1  0.50312117  0.81556046  0.57349849  1  -0.597178  -0.094135  2.08726  -0.121  -0.569132  -0.059059  2.371561  -0.084  -0.611084  -0.044508  2.363947  -0.067  -0.319326  -0.540329  -0.068698  2.376592  -0.094
O  O67  1  0.49689265  0.18443082  0.42651176  1  -0.5971  -0.094121  2.087042  -0.121  -0.56913  -0.059049  2.371501  -0.084  -0.611078  -0.044503  2.363877  -0.067  -0.31941  -0.540328  -0.068688  2.376529  -0.094
O  O68  1  0.23305898  0.68863007  0.46028602  1  -0.639136  -0.002003  2.056728  -0.002  -0.594715  -0.001062  2.304549  -0.001  -0.623675  -0.000599  2.291376  0.0  -0.312563  -0.574755  -0.001653  2.313271  -0.002
O  O69  1  0.76695630  0.31137344  0.53972497  1  -0.639488  -0.002002  2.056583  -0.002  -0.594926  -0.001061  2.304363  -0.001  -0.623887  -0.000598  2.291185  0.0  -0.31275  -0.574969  -0.001652  2.31308  -0.002
O  O70  1  0.41224970  0.47978850  0.80408268  1  -0.593501  0.023841  1.852475  0.029  -0.574168  0.011146  2.065347  0.015  -0.600876  0.005818  2.060499  0.008  -0.338979  -0.552437  0.017274  2.066261  0.022
O  O71  1  0.58773574  0.52022795  0.19591209  1  -0.593575  0.023833  1.85238  0.029  -0.574284  0.011141  2.065217  0.015  -0.600981  0.005816  2.060344  0.008  -0.339073  -0.552555  0.017269  2.066128  0.022
O  O72  1  0.15853851  0.43658673  0.65045659  1  -0.631609  0.095726  2.044469  0.122  -0.617992  0.057989  2.335638  0.083  -0.663182  0.043059  2.329537  0.065  -0.342946  -0.586957  0.067415  2.339061  0.092
O  O73  1  0.84146006  0.56341693  0.34953462  1  -0.631607  0.095713  2.04448  0.122  -0.618037  0.057986  2.335593  0.083  -0.663221  0.043058  2.329478  0.065  -0.343005  -0.587021  0.067413  2.339048  0.092
O  O74  1  0.17832473  0.92205375  0.37363371  1  -0.853959  0.001055  1.871961  0.0  -0.815025  0.001099  2.06001  0.001  -0.833976  0.001179  2.025551  0.001  -0.611436  -0.800879  0.000854  2.084246  0.0
O  O75  1  0.82165151  0.07794438  0.62637159  1  -0.85402  0.001056  1.871773  0.0  -0.81514  0.0011  2.059878  0.001  -0.834091  0.001179  2.025406  0.001  -0.611414  -0.800997  0.000855  2.084131  0.0
