# generated using pymatgen
data_Ag2H22C30(N3O4)3
_symmetry_space_group_name_H-M   'P 1'
_cell_length_a   7.74222032
_cell_length_b   14.70860487
_cell_length_c   14.79552033
_cell_angle_alpha   91.08382168
_cell_angle_beta   99.63430061
_cell_angle_gamma   97.02256872
_symmetry_Int_Tables_number   1
_chemical_formula_structural   Ag2H22C30(N3O4)3
_chemical_formula_sum   'Ag4 H44 C60 N18 O24'
_cell_volume   1647.31291887
_cell_formula_units_Z   2
loop_
 _symmetry_equiv_pos_site_id
 _symmetry_equiv_pos_as_xyz
  1  'x, y, z'
loop_
 _atom_site_type_symbol
 _atom_site_label
 _atom_site_symmetry_multiplicity
 _atom_site_fract_x
 _atom_site_fract_y
 _atom_site_fract_z
 _atom_site_occupancy
 _atom_site_pbe_bader_charge
 _atom_site_pbe_bader_spin_density
 _atom_site_pbe_cm5_charge
 _atom_site_pbe_ddec_charge
 _atom_site_pbe_ddec_spin_density
 _atom_site_pbe_ddec_sum_bond_order
 _atom_site_pbe_magmom
Ag  Ag0  1  0.56980619  0.62453563  0.19252791  1  0.612443  0  0.501672  0.403611  0  1.83645  0
Ag  Ag1  1  0.43020508  0.37546341  0.80747265  1  0.61229  0  0.501668  0.403588  0  1.836528  0
Ag  Ag2  1  0.09380332  0.74019696  0.55979805  1  0.585316  0  0.48271  0.376017  0  1.831497  0
Ag  Ag3  1  0.90619883  0.25980273  0.44020435  1  0.585332  0  0.482687  0.37598  0  1.831481  0
H  H4  1  0.28699694  0.30124051  0.31321280  1  0.644722  0  0.290582  0.345427  0  1.024087  0
H  H5  1  0.71299482  0.69875913  0.68678589  1  0.644726  0  0.29057  0.345389  0  1.024134  0
H  H6  1  0.82901899  0.60779629  0.40067531  1  0.176256  0  0.14335  0.120034  0  1.013389  0
H  H7  1  0.17098157  0.39220886  0.59933311  1  0.176189  0  0.143401  0.120031  0  1.013396  0
H  H8  1  0.99497155  0.88992069  0.38618865  1  0.197923  0  0.168594  0.150563  0  0.929788  0
H  H9  1  0.00504049  0.11008110  0.61380798  1  0.197671  0  0.168572  0.150542  0  0.929809  0
H  H10  1  0.80079883  0.92075140  0.24055907  1  0.181631  0  0.124842  0.132081  0  1.01143  0
H  H11  1  0.19920816  0.07924556  0.75943767  1  0.181613  0  0.124807  0.13208  0  1.011495  0
H  H12  1  0.58979092  0.85607946  0.23955638  1  0.112262  0  0.126541  0.131878  0  0.962839  0
H  H13  1  0.41021289  0.14392160  0.76044552  1  0.112237  0  0.126532  0.131874  0  0.962959  0
H  H14  1  0.91423058  0.72061559  0.16372730  1  0.140017  0  0.10415  0.114385  0  1.067525  0
H  H15  1  0.08576980  0.27938203  0.83627488  1  0.140083  0  0.104164  0.114375  0  1.067575  0
H  H16  1  0.70349573  0.73494797  0.87736825  1  0.080768  0  0.1031  0.114239  0  1.025302  0
H  H17  1  0.29650841  0.26505446  0.12263303  1  0.080692  0  0.103065  0.114184  0  1.025387  0
H  H18  1  0.53300936  0.90576676  0.07586547  1  0.073132  0  0.101335  0.108108  0  1.01589  0
H  H19  1  0.46700294  0.09423708  0.92413730  1  0.072842  0  0.101336  0.108112  0  1.015924  0
H  H20  1  0.99105102  0.65992601  0.94044241  1  0.084194  0  0.119921  0.111977  0  0.974328  0
H  H21  1  0.00895305  0.34007574  0.05955615  1  0.084249  0  0.119903  0.111948  0  0.974275  0
H  H22  1  0.02699554  0.63722368  0.05973722  1  0.112124  0  0.124214  0.127308  0  0.977786  0
H  H23  1  0.97301236  0.36277740  0.94026034  1  0.112323  0  0.124207  0.127285  0  0.977824  0
H  H24  1  0.71610687  0.55906325  0.83543891  1  0.201435  0  0.139843  0.122619  0  1.044026  0
H  H25  1  0.28390185  0.44093579  0.16455938  1  0.201478  0  0.13987  0.122649  0  1.044005  0
H  H26  1  0.61877804  0.37238645  0.03991635  1  0.177938  0  0.128249  0.094517  0  1.037584  0
H  H27  1  0.38122367  0.62761734  0.96008809  1  0.177917  0  0.128249  0.09454  0  1.037593  0
H  H28  1  0.40909869  0.91318254  0.92308924  1  0.07919  0  0.113964  0.098971  0  0.995765  0
H  H29  1  0.59090262  0.08681919  0.07691311  1  0.079229  0  0.113937  0.098936  0  0.995699  0
H  H30  1  0.58419598  0.91904787  0.85789977  1  0.107118  0  0.120743  0.11299  0  0.991386  0
H  H31  1  0.41581139  0.08095184  0.14210381  1  0.107032  0  0.120779  0.113026  0  0.991428  0
H  H32  1  0.42956577  0.87336668  0.69805348  1  0.170688  0  0.158532  0.137  0  0.944048  0
H  H33  1  0.57043755  0.12663233  0.30194901  1  0.170681  0  0.158553  0.137003  0  0.944054  0
H  H34  1  0.10777562  0.63733701  0.75678282  1  0.203159  0  0.136783  0.118258  0  1.009811  0
H  H35  1  0.89222757  0.36266200  0.24322305  1  0.203206  0  0.136785  0.118239  0  1.009729  0
H  H36  1  0.70679122  0.50315157  0.44662591  1  0.139429  0  0.107105  0.109394  0  1.056564  0
H  H37  1  0.29319825  0.49684395  0.55337383  1  0.139315  0  0.107095  0.109444  0  1.056615  0
H  H38  1  0.51118928  0.22483789  0.59413072  1  0.138999  0  0.110037  0.124064  0  1.020948  0
H  H39  1  0.48880332  0.77515969  0.40586801  1  0.139004  0  0.110045  0.124096  0  1.02097  0
H  H40  1  0.94668299  0.44205336  0.72132989  1  0.643996  0  0.292256  0.343647  0  1.026454  0
H  H41  1  0.05330975  0.55795038  0.27866760  1  0.64392  0  0.292212  0.343607  0  1.0265  0
H  H42  1  0.72164647  0.21273339  0.82148002  1  0.656099  0  0.295584  0.357416  0  0.990295  0
H  H43  1  0.27835274  0.78726970  0.17851606  1  0.656127  0  0.295509  0.357261  0  0.990415  0
H  H44  1  0.81874837  0.85127848  0.71702651  1  0.655643  0  0.303494  0.370284  0  0.962216  0
H  H45  1  0.18125206  0.14871845  0.28296959  1  0.655786  0  0.303523  0.370316  0  0.962224  0
H  H46  1  0.88205467  0.14372614  0.03441915  1  0.079047  0  0.109991  0.117108  0  1.012517  0
H  H47  1  0.11794630  0.85627285  0.96557500  1  0.079059  0  0.110002  0.117112  0  1.012496  0
C  C48  1  0.84200765  0.67732036  0.37792086  1  1.021262  0  0.163099  0.152791  0  3.923524  0
C  C49  1  0.15799426  0.32268412  0.62208227  1  1.02131  0  0.163001  0.152718  0  3.923268  0
C  C50  1  0.92828501  0.82064252  0.37275269  1  1.040044  0  0.194171  0.121961  0  3.823051  0
C  C51  1  0.07172694  0.17935926  0.62724663  1  1.04046  0  0.194222  0.121981  0  3.82318  0
C  C52  1  0.72553998  0.85196963  0.22833459  1  0.229586  0  -0.039718  -0.155342  0  3.862662  0
C  C53  1  0.27446438  0.14802801  0.77166663  1  0.229402  0  -0.039707  -0.15539  0  3.862834  0
C  C54  1  0.72341217  0.81719515  0.13141343  1  -0.001757  0  -0.013525  0.103806  0  4.008392  0
C  C55  1  0.27658973  0.18280385  0.86859163  1  -0.001622  0  -0.013473  0.103886  0  4.008407  0
C  C56  1  0.82502347  0.74992525  0.11038196  1  -0.093933  0  -0.106424  -0.227718  0  4.016066  0
C  C57  1  0.17497380  0.25007031  0.88962057  1  -0.09383  0  -0.106442  -0.227676  0  4.016097  0
C  C58  1  0.81767881  0.72001814  0.01932160  1  0.011393  0  -0.01399  0.106162  0  3.9892  0
C  C59  1  0.18232545  0.27997950  0.98068231  1  0.011306  0  -0.014032  0.106033  0  3.989378  0
C  C60  1  0.70992878  0.75815388  0.94853538  1  -0.038792  0  -0.09217  -0.192587  0  3.930962  0
C  C61  1  0.29007888  0.24184720  0.05146893  1  -0.038697  0  -0.09209  -0.192442  0  3.931122  0
C  C62  1  0.60926023  0.82636729  0.96880257  1  -0.03725  0  -0.008194  0.112002  0  3.983469  0
C  C63  1  0.39073890  0.17363101  0.03120221  1  -0.037382  0  -0.008218  0.111959  0  3.983696  0
C  C64  1  0.61564352  0.85471587  0.05999742  1  -0.025355  0  -0.089674  -0.179404  0  3.927581  0
C  C65  1  0.38435612  0.14528449  0.94000610  1  -0.025033  0  -0.089719  -0.17951  0  3.927659  0
C  C66  1  0.92607619  0.64530149  0.99998946  1  0.295767  0  -0.040715  -0.1403  0  3.859222  0
C  C67  1  0.07392980  0.35469685  0.00000720  1  0.295607  0  -0.040658  -0.140187  0  3.85907  0
C  C68  1  0.71830593  0.52463615  0.89999571  1  0.984598  0  0.158294  0.077946  0  3.868467  0
C  C69  1  0.28170405  0.47536289  0.10000405  1  0.984428  0  0.15828  0.077903  0  3.868478  0
C  C70  1  0.66781921  0.43221445  0.00542084  1  0.936464  0  0.140718  0.129656  0  3.991739  0
C  C71  1  0.33218351  0.56778729  0.99457894  1  0.936409  0  0.140714  0.129678  0  3.991673  0
C  C72  1  0.49884687  0.87282827  0.89409664  1  0.303109  0  -0.038643  -0.137929  0  3.888571  0
C  C73  1  0.50115673  0.12717210  0.10590658  1  0.303234  0  -0.038596  -0.137831  0  3.88871  0
C  C74  1  0.36414418  0.81841722  0.73270575  1  1.010337  0  0.172411  0.094784  0  3.887627  0
C  C75  1  0.63586164  0.18158112  0.26729562  1  1.010315  0  0.172332  0.094755  0  3.887508  0
C  C76  1  0.20011529  0.70012760  0.76575776  1  0.981176  0  0.148558  0.147433  0  3.933878  0
C  C77  1  0.79988907  0.29987004  0.23424346  1  0.981132  0  0.148556  0.147485  0  3.933829  0
C  C78  1  0.47242880  0.41028761  0.33216312  1  1.559035  0  0.220293  0.577837  0  4.133829  0
C  C79  1  0.52756347  0.58970860  0.66783623  1  1.559048  0  0.220292  0.577873  0  4.133655  0
C  C80  1  0.88266392  0.51089928  0.60839962  1  1.565284  0  0.225288  0.579236  0  4.127356  0
C  C81  1  0.11731915  0.48910236  0.39159757  1  1.565162  0  0.225214  0.579026  0  4.127878  0
C  C82  1  0.74747458  0.32355583  0.71082038  1  1.578539  0  0.214388  0.567463  0  4.17749  0
C  C83  1  0.25252294  0.67644589  0.28917754  1  1.578533  0  0.214409  0.567505  0  4.177389  0
C  C84  1  0.33697883  0.21735109  0.43294620  1  1.593926  0  0.202881  0.553959  0  4.206441  0
C  C85  1  0.66300985  0.78264716  0.56705622  1  1.593876  0  0.202987  0.554225  0  4.206409  0
C  C86  1  0.47408737  0.29829649  0.47169966  1  -0.028179  0  -0.008209  -0.050245  0  3.901748  0
C  C87  1  0.52590860  0.70169837  0.52829800  1  -0.028426  0  -0.008213  -0.050262  0  3.90182  0
C  C88  1  0.53129941  0.37943467  0.42878509  1  0.035882  0  -0.010509  -0.061092  0  3.911686  0
C  C89  1  0.46869118  0.62055947  0.57121136  1  0.035603  0  -0.010477  -0.061084  0  3.911698  0
C  C90  1  0.66384956  0.44167889  0.48009133  1  -0.060666  0  -0.076366  -0.095097  0  3.964053  0
C  C91  1  0.33614142  0.55831732  0.51990722  1  -0.060401  0  -0.076339  -0.095166  0  3.964309  0
C  C92  1  0.74376447  0.43133780  0.57047468  1  -0.088849  0  -0.011352  -0.065327  0  3.917189  0
C  C93  1  0.25622608  0.56866251  0.42952524  1  -0.088565  0  -0.011399  -0.065317  0  3.917274  0
C  C94  1  0.68450924  0.35100640  0.61390384  1  0.014953  0  -0.009949  -0.053688  0  3.928261  0
C  C95  1  0.31548359  0.64899186  0.38609289  1  0.015027  0  -0.009945  -0.053691  0  3.92819  0
C  C96  1  0.55386237  0.28770203  0.56228695  1  -0.029705  0  -0.080711  -0.115195  0  3.96348  0
C  C97  1  0.44613513  0.71229969  0.43771164  1  -0.029329  0  -0.080736  -0.115262  0  3.963475  0
C  C98  1  0.84492078  0.10606380  0.85181919  1  1.548594  0  0.218152  0.563394  0  4.169306  0
C  C99  1  0.15508202  0.89393726  0.14817383  1  1.548466  0  0.218025  0.5633  0  4.16927  0
C  C100  1  0.97936890  0.93190056  0.81211520  1  1.614082  0  0.234633  0.605886  0  4.141385  0
C  C101  1  0.02062860  0.06810116  0.18788340  1  1.614083  0  0.234585  0.605806  0  4.141303  0
C  C102  1  0.98842652  0.96935261  0.90835633  1  -0.006752  0  -0.001188  -0.038883  0  3.944155  0
C  C103  1  0.01157080  0.03064842  0.09164292  1  -0.006267  0  -0.001172  -0.03895  0  3.94423  0
C  C104  1  0.92033002  0.05020405  0.92850557  1  -0.024644  0  -0.011587  -0.056842  0  3.967163  0
C  C105  1  0.07967083  0.94979494  0.07149195  1  -0.024719  0  -0.011514  -0.056649  0  3.967018  0
C  C106  1  0.93243368  0.07996422  0.02000558  1  -0.005798  0  -0.078838  -0.119251  0  3.951959  0
C  C107  1  0.06757412  0.92003686  0.97999468  1  -0.005428  0  -0.078866  -0.119347  0  3.951849  0
N  N108  1  0.95378111  0.74794726  0.42432869  1  -1.182365  0  -0.362804  -0.269687  0  3.615882  0
N  N109  1  0.04622594  0.25205655  0.57567357  1  -1.182334  0  -0.362812  -0.269672  0  3.615864  0
N  N110  1  0.74967982  0.70326506  0.30127463  1  -0.714139  0  -0.247616  -0.186648  0  3.432781  0
N  N111  1  0.25032656  0.29673601  0.69872887  1  -0.714196  0  -0.247596  -0.186583  0  3.432435  0
N  N112  1  0.80569325  0.79474686  0.29865718  1  -0.813712  0  -0.123553  0.190533  0  3.677043  0
N  N113  1  0.19431289  0.20525285  0.70134425  1  -0.813717  0  -0.12352  0.190575  0  3.677163  0
N  N114  1  0.81567442  0.55661610  0.98046637  1  -0.799032  0  -0.131206  0.173542  0  3.734668  0
N  N115  1  0.18433441  0.44338361  0.01953329  1  -0.799002  0  -0.131272  0.173516  0  3.73462  0
N  N116  1  0.78504654  0.49903855  0.04881330  1  -0.677332  0  -0.224727  -0.27011  0  3.091862  0
N  N117  1  0.21495775  0.50096457  0.95118801  1  -0.6773  0  -0.224695  -0.270171  0  3.091821  0
N  N118  1  0.62239086  0.44545468  0.91352610  1  -1.188593  0  -0.370417  -0.283415  0  3.623418  0
N  N119  1  0.37761297  0.55454638  0.08647513  1  -1.188653  0  -0.370436  -0.283425  0  3.623321  0
N  N120  1  0.39228574  0.80920813  0.82379395  1  -0.805746  0  -0.131835  0.17689  0  3.735493  0
N  N121  1  0.60771266  0.19079222  0.17620742  1  -0.805802  0  -0.131848  0.176832  0  3.735524  0
N  N122  1  0.28767874  0.73453300  0.84635163  1  -0.700752  0  -0.216614  -0.263447  0  3.105946  0
N  N123  1  0.71232331  0.26546600  0.15364939  1  -0.700684  0  -0.216589  -0.263413  0  3.10594  0
N  N124  1  0.24297717  0.75014577  0.69363543  1  -1.207187  0  -0.371129  -0.281309  0  3.651621  0
N  N125  1  0.75702508  0.24985391  0.30636427  1  -1.207215  0  -0.371103  -0.281318  0  3.651526  0
O  O126  1  0.34220694  0.36034724  0.27756333  1  -1.185147  0  -0.332887  -0.499975  0  2.326941  0
O  O127  1  0.65777858  0.63965373  0.72243477  1  -1.185091  0  -0.332862  -0.499908  0  2.326869  0
O  O128  1  0.54648062  0.48226739  0.30639169  1  -1.165169  0  -0.304597  -0.515805  0  2.216942  0
O  O129  1  0.45351643  0.51773295  0.69361089  1  -1.165295  0  -0.304646  -0.515891  0  2.216994  0
O  O130  1  0.90174737  0.57948366  0.56178338  1  -1.166664  0  -0.303005  -0.509393  0  2.25771  0
O  O131  1  0.09823677  0.42051662  0.43821187  1  -1.166551  0  -0.302981  -0.509281  0  2.257858  0
O  O132  1  0.98095306  0.50606049  0.68917612  1  -1.168576  0  -0.323633  -0.483889  0  2.326613  0
O  O133  1  0.01903195  0.49394391  0.31082131  1  -1.168747  0  -0.323503  -0.483762  0  2.327091  0
O  O134  1  0.89022306  0.36368272  0.75858859  1  -1.178723  0  -0.310214  -0.515985  0  2.270176  0
O  O135  1  0.10977326  0.63631967  0.24141058  1  -1.178729  0  -0.310233  -0.516043  0  2.270181  0
O  O136  1  0.65171087  0.25852210  0.74071819  1  -1.171493  0  -0.307929  -0.541271  0  2.34507  0
O  O137  1  0.34828883  0.74147757  0.25927923  1  -1.171527  0  -0.307929  -0.541206  0  2.344962  0
O  O138  1  0.32658268  0.14600642  0.47546008  1  -1.15432  0  -0.323466  -0.510732  0  2.070752  0
O  O139  1  0.67339202  0.85399381  0.52454169  1  -1.15424  0  -0.323508  -0.510888  0  2.070825  0
O  O140  1  0.23218935  0.22827530  0.35525235  1  -1.187865  0  -0.326725  -0.558054  0  2.370421  0
O  O141  1  0.76781007  0.77172368  0.64474841  1  -1.187739  0  -0.32678  -0.558127  0  2.370405  0
O  O142  1  0.86258900  0.08995667  0.77187867  1  -1.12994  0  -0.29605  -0.500583  0  2.13706  0
O  O143  1  0.13740694  0.91004366  0.22811773  1  -1.129781  0  -0.296043  -0.500647  0  2.136966  0
O  O144  1  0.76233511  0.17306158  0.87855735  1  -1.188782  0  -0.332633  -0.489854  0  2.317972  0
O  O145  1  0.23766237  0.82693945  0.12143718  1  -1.188845  0  -0.332496  -0.489657  0  2.318074  0
O  O146  1  0.82174252  0.88707680  0.77827600  1  -1.186522  0  -0.330353  -0.495415  0  2.335342  0
O  O147  1  0.17825849  0.11292288  0.22172155  1  -1.186534  0  -0.330341  -0.495381  0  2.33534  0
O  O148  1  0.11070385  0.93616545  0.77483989  1  -1.164245  0  -0.297317  -0.512632  0  2.148607  0
O  O149  1  0.88929143  0.06383283  0.22516181  1  -1.164296  0  -0.297301  -0.512606  0  2.148478  0
