# generated using pymatgen
data_Ni2H12C13S4N8O
_symmetry_space_group_name_H-M   'P 1'
_cell_length_a   8.66260254
_cell_length_b   9.10822021
_cell_length_c   13.86371963
_cell_angle_alpha   89.36772775
_cell_angle_beta   85.30314699
_cell_angle_gamma   64.62956200
_symmetry_Int_Tables_number   1
_chemical_formula_structural   Ni2H12C13S4N8O
_chemical_formula_sum   'Ni4 H24 C26 S8 N16 O2'
_cell_volume   984.69376611
_cell_formula_units_Z   2
loop_
 _symmetry_equiv_pos_site_id
 _symmetry_equiv_pos_as_xyz
  1  'x, y, z'
loop_
 _atom_site_type_symbol
 _atom_site_label
 _atom_site_symmetry_multiplicity
 _atom_site_fract_x
 _atom_site_fract_y
 _atom_site_fract_z
 _atom_site_occupancy
 _atom_site_pbe_cm5_charge
 _atom_site_pbe_ddec_charge
 _atom_site_pbe_ddec_spin_density
 _atom_site_pbe_ddec_sum_bond_order
 _atom_site_pbe_magmom
Ni  Ni0  1  0.37119974  0.60297840  0.32230073  1  0.634694  0.58082  -0.026901  2.879481  -0.022
Ni  Ni1  1  0.63012015  0.39725611  0.67682036  1  0.650495  0.616889  -1.791735  2.839874  -1.371
Ni  Ni2  1  0.09765932  0.84640999  0.17958638  1  0.670476  0.639902  1.812326  2.910638  1.376
Ni  Ni3  1  0.89907056  0.15541778  0.82194893  1  0.664121  0.608988  -0.029847  2.96176  -0.025
H  H4  1  0.35051901  0.80668807  0.49785452  1  0.125962  0.105474  4.5e-05  1.006296  0.0
H  H5  1  0.64746984  0.19253922  0.50050254  1  0.125621  0.105298  -0.000323  1.007758  -0.001
H  H6  1  0.20671087  0.10309695  0.54617665  1  0.11171  0.123749  -0.000494  1.005292  0.0
H  H7  1  0.79142304  0.89601356  0.45259531  1  0.112593  0.125777  -0.000779  1.004319  -0.001
H  H8  1  0.99351600  0.29478849  0.43449879  1  0.101901  0.108188  0.00018  1.051749  0.0
H  H9  1  0.00516145  0.70481208  0.56406331  1  0.101441  0.10682  -2.6e-05  1.052826  0.0
H  H10  1  0.94578337  0.16725415  0.28421936  1  0.127882  0.116276  0.000593  0.988135  0.001
H  H11  1  0.05319528  0.83308210  0.71411914  1  0.126854  0.114167  5.7e-05  0.987903  0.0
H  H12  1  0.31413768  0.91375876  0.02081470  1  0.128442  0.109068  0.000557  0.999909  0.001
H  H13  1  0.68863054  0.08768052  0.98094363  1  0.129708  0.110462  -0.000134  1.000117  0.0
H  H14  1  0.63258695  0.82671827  0.97345787  1  0.112106  0.11478  0.000362  1.009587  0.0
H  H15  1  0.37096121  0.17313851  0.02785372  1  0.113211  0.116509  0.000155  1.009962  0.0
H  H16  1  0.84093317  0.64350505  0.08813801  1  0.098404  0.102082  0.000399  1.074841  0.0
H  H17  1  0.16178233  0.35391614  0.91284011  1  0.099009  0.103223  -0.000545  1.073093  0.0
H  H18  1  0.71464509  0.56144368  0.23915389  1  0.12495  0.106634  0.000498  1.009943  0.0
H  H19  1  0.28790952  0.43452301  0.76090083  1  0.124337  0.104776  -0.000729  1.010713  -0.001
H  H20  1  0.50711072  0.27272197  0.29661623  1  0.264339  0.289845  -0.000322  1.049549  0.0
H  H21  1  0.49154308  0.72712094  0.70348201  1  0.265484  0.29203  -0.000292  1.047028  0.0
H  H22  1  0.54543421  0.20200835  0.14986635  1  0.086577  0.082842  -0.000659  1.049793  -0.001
H  H23  1  0.45583071  0.79614691  0.85031899  1  0.087012  0.083056  -0.001032  1.048203  -0.001
H  H24  1  0.66246711  0.32153405  0.12557350  1  0.079362  0.084647  -0.000206  1.063042  0.0
H  H25  1  0.33822758  0.67700550  0.87397941  1  0.080024  0.084999  6.1e-05  1.056521  0.0
H  H26  1  0.43382873  0.41336144  0.12584094  1  0.084116  0.086168  -0.000864  1.03543  -0.001
H  H27  1  0.56693860  0.58493812  0.87499786  1  0.085232  0.087629  -0.000636  1.032438  -0.001
C  C28  1  0.25828084  0.89603426  0.45389624  1  0.062549  0.062437  0.002134  3.907116  0.003
C  C29  1  0.73988596  0.10352714  0.54449961  1  0.062906  0.065069  0.003438  3.905246  0.004
C  C30  1  0.17665583  0.06095963  0.48008612  1  -0.056934  -0.059023  -0.006163  3.898067  -0.006
C  C31  1  0.82150894  0.93846170  0.51855236  1  -0.05659  -0.060585  -0.004766  3.896515  -0.005
C  C32  1  0.06174373  0.16462520  0.41894256  1  -0.058507  -0.068262  0.004537  3.929228  0.005
C  C33  1  0.93686811  0.83497914  0.57959708  1  -0.058237  -0.068092  0.006174  3.930508  0.007
C  C34  1  0.03533229  0.09618594  0.33584445  1  0.06573  0.06984  -0.003962  3.884578  -0.006
C  C35  1  0.96361960  0.90391629  0.66239311  1  0.065306  0.068916  -0.00359  3.890179  -0.004
C  C36  1  0.41407241  0.83495938  0.06504195  1  0.062174  0.062591  -0.003219  3.90281  -0.004
C  C37  1  0.58904478  0.16531339  0.93622531  1  0.063958  0.063066  -0.002276  3.892308  -0.003
C  C38  1  0.58839636  0.78756565  0.04042443  1  -0.057238  -0.071112  0.003656  3.907281  0.004
C  C39  1  0.41477640  0.21187803  0.96063881  1  -0.055468  -0.069826  0.005719  3.903439  0.006
C  C40  1  0.70293211  0.68586108  0.10255680  1  -0.052359  -0.051968  -0.005023  3.920993  -0.006
C  C41  1  0.29976730  0.31212179  0.89821665  1  -0.051817  -0.051797  -0.003311  3.914204  -0.004
C  C42  1  0.63486876  0.63978435  0.18573315  1  0.071197  0.078575  0.002299  3.856493  0.003
C  C43  1  0.36779406  0.35730464  0.81469234  1  0.069898  0.077708  0.003108  3.866158  0.004
C  C44  1  0.02085911  0.84577033  0.94692452  1  0.153136  0.267624  -0.007015  4.236923  -0.017
C  C45  1  0.97606413  0.15987189  0.05469225  1  0.150901  0.268024  0.001566  4.2565  0.002
C  C46  1  0.71745353  0.95298989  0.26372054  1  0.136069  0.260948  0.000286  4.30128  0.004
C  C47  1  0.27393423  0.04936426  0.73952471  1  0.139278  0.259686  0.00256  4.289805  0.005
C  C48  1  0.13831144  0.51459954  0.22261211  1  0.151927  0.283634  0.038551  4.237162  0.045
C  C49  1  0.86487606  0.48270741  0.77716482  1  0.154975  0.286254  -0.036798  4.232101  -0.044
C  C50  1  0.35401540  0.45343434  0.53303855  1  0.15518  0.265527  -0.000251  4.233096  -0.003
C  C51  1  0.64786966  0.54929498  0.46466354  1  0.151995  0.264535  0.007877  4.237308  0.018
C  C52  1  0.54371318  0.32195875  0.15981287  1  -0.169015  -0.14212  -0.001888  3.925304  -0.001
C  C53  1  0.45770166  0.67611716  0.84042981  1  -0.167678  -0.137875  -0.002028  3.916695  -0.001
S  S54  1  0.10062087  0.70445070  0.02550904  1  -0.096866  -0.256106  0.053038  2.650224  0.056
S  S55  1  0.89534723  0.30360846  0.97788079  1  -0.100658  -0.264498  0.037666  2.637928  0.038
S  S56  1  0.52915844  0.02582112  0.32361418  1  -0.167894  -0.345576  0.000555  2.352631  0.001
S  S57  1  0.46117547  0.97801816  0.67868734  1  -0.162499  -0.336583  0.001112  2.340082  0.001
S  S58  1  0.09389882  0.36929907  0.19433545  1  -0.088952  -0.215137  0.066631  2.3731  0.062
S  S59  1  0.91162284  0.62629747  0.80586969  1  -0.085646  -0.20868  -0.062771  2.361304  -0.06
S  S60  1  0.24193829  0.48517983  0.43954172  1  -0.101978  -0.235914  -0.008047  2.649006  -0.008
S  S61  1  0.76027151  0.51752276  0.55796342  1  -0.110113  -0.253314  -0.052752  2.623256  -0.054
N  N62  1  0.23088368  0.83848704  0.37171179  1  -0.190077  -0.077476  -0.045632  3.581182  -0.061
N  N63  1  0.76777931  0.16142339  0.62647188  1  -0.191256  -0.087046  -0.051191  3.585803  -0.07
N  N64  1  0.12102254  0.93775860  0.31333757  1  -0.183627  -0.065664  0.047123  3.526684  0.064
N  N65  1  0.87813676  0.06230138  0.68465249  1  -0.180379  -0.065621  0.028608  3.506044  0.039
N  N66  1  0.35665467  0.78345489  0.14493652  1  -0.192311  -0.08897  0.043804  3.567144  0.058
N  N67  1  0.64621032  0.21622634  0.85584173  1  -0.19307  -0.073073  0.025679  3.583941  0.034
N  N68  1  0.46624814  0.68715485  0.20445894  1  -0.188582  -0.052158  -0.010629  3.53535  -0.015
N  N69  1  0.53622485  0.31082869  0.79579943  1  -0.189656  -0.065104  -0.044674  3.5269  -0.06
N  N70  1  0.96235798  0.94411414  0.88729163  1  -0.382998  -0.448968  -0.014396  3.331829  -0.014
N  N71  1  0.03500061  0.05663952  0.11154919  1  -0.386711  -0.46055  0.055752  3.333325  0.067
N  N72  1  0.85336539  0.90037032  0.21903564  1  -0.399011  -0.45583  0.041556  3.329728  0.051
N  N73  1  0.13910336  0.10192907  0.78544141  1  -0.39878  -0.439113  0.019681  3.364532  0.023
N  N74  1  0.17742695  0.62267129  0.24192566  1  -0.446171  -0.515802  0.056357  3.53344  0.062
N  N75  1  0.82367347  0.37611532  0.75758938  1  -0.446134  -0.514867  -0.054792  3.538559  -0.06
N  N76  1  0.43539571  0.43077143  0.60068902  1  -0.385299  -0.446393  -0.042874  3.366029  -0.051
N  N77  1  0.56767717  0.57283484  0.39636425  1  -0.384309  -0.443801  0.013876  3.363907  0.013
O  O78  1  0.53122851  0.35779583  0.26169562  1  -0.397225  -0.406081  -0.029795  2.511388  -0.041
O  O79  1  0.47242859  0.63948239  0.73841757  1  -0.399199  -0.412545  -0.035211  2.524346  -0.049
