# generated using pymatgen
data_Cu2H11C13I2(NO)3
_symmetry_space_group_name_H-M   'P 1'
_cell_length_a   5.97583034
_cell_length_b   9.86625797
_cell_length_c   13.71899917
_cell_angle_alpha   80.98321004
_cell_angle_beta   88.09236942
_cell_angle_gamma   84.02178559
_symmetry_Int_Tables_number   1
_chemical_formula_structural   Cu2H11C13I2(NO)3
_chemical_formula_sum   'Cu4 H22 C26 I4 N6 O6'
_cell_volume   794.40101892
_cell_formula_units_Z   2
loop_
 _symmetry_equiv_pos_site_id
 _symmetry_equiv_pos_as_xyz
  1  'x, y, z'
loop_
 _atom_site_type_symbol
 _atom_site_label
 _atom_site_symmetry_multiplicity
 _atom_site_fract_x
 _atom_site_fract_y
 _atom_site_fract_z
 _atom_site_occupancy
 _atom_site_hle17_bader_spin_density
 _atom_site_hle17_ddec_charge
 _atom_site_hle17_ddec_spin_density
 _atom_site_hle17_ddec_sum_bond_order
 _atom_site_hle17_magmom
 _atom_site_hse06_10hf_bader_spin_density
 _atom_site_hse06_10hf_ddec_charge
 _atom_site_hse06_10hf_ddec_spin_density
 _atom_site_hse06_10hf_ddec_sum_bond_order
 _atom_site_hse06_10hf_magmom
 _atom_site_hse06_bader_spin_density
 _atom_site_hse06_ddec_charge
 _atom_site_hse06_ddec_spin_density
 _atom_site_hse06_ddec_sum_bond_order
 _atom_site_hse06_magmom
 _atom_site_pbe_bader_spin_density
 _atom_site_pbe_cm5_charge
 _atom_site_pbe_ddec_charge
 _atom_site_pbe_ddec_spin_density
 _atom_site_pbe_ddec_sum_bond_order
 _atom_site_pbe_magmom
Cu  Cu0  1  0.18095325  0.68486795  0.62377985  1  0  0.353851  0  2.038605  0  0  0.264513  0  2.526283  0  0  0.275606  0  2.46909  0  0  0.310346  0.263391  0  2.561358  0
Cu  Cu1  1  0.81904839  0.31511947  0.37621591  1  0  0.35387  0  2.038687  0  0  0.264531  0  2.526363  0  0  0.275619  0  2.469196  0  0  0.310395  0.263427  0  2.561413  0
Cu  Cu2  1  0.78123237  0.50040052  0.49027881  1  0  0.162591  0  2.287836  0  0  0.1049  0  2.763529  0  0  0.124552  0  2.700631  0  0  0.132911  0.091309  0  2.806869  0
Cu  Cu3  1  0.21876268  0.49959721  0.50972393  1  0  0.162593  0  2.287957  0  0  0.104926  0  2.763639  0  0  0.124573  0  2.700731  0  0  0.13292  0.091331  0  2.806985  0
H  H4  1  0.97543797  0.98593320  0.81918328  1  0  0.324935  0  0.902409  0  0  0.30303  0  0.972829  0  0  0.31134  0  0.965482  0  0  0.318005  0.297203  0  0.977978  0
H  H5  1  0.02455966  0.01407898  0.18081341  1  0  0.324924  0  0.902411  0  0  0.303044  0  0.972803  0  0  0.311352  0  0.965459  0  0  0.318036  0.29722  0  0.977952  0
H  H6  1  0.57198876  0.81890652  0.56130480  1  0  0.069479  0  0.990221  0  0  0.075991  0  1.062763  0  0  0.078908  0  1.059134  0  0  0.095158  0.072751  0  1.066906  0
H  H7  1  0.42799801  0.18109018  0.43869309  1  0  0.069466  0  0.990285  0  0  0.075987  0  1.062813  0  0  0.078907  0  1.059181  0  0  0.095116  0.072745  0  1.066963  0
H  H8  1  0.75648925  0.03061006  0.58418189  1  0  0.117959  0  0.96585  0  0  0.125272  0  1.029922  0  0  0.12925  0  1.029101  0  0  0.093961  0.119886  0  1.035642  0
H  H9  1  0.24352399  0.96936808  0.41581618  1  0  0.117979  0  0.965832  0  0  0.125314  0  1.029874  0  0  0.129293  0  1.029051  0  0  0.093978  0.119931  0  1.035592  0
H  H10  1  0.57118092  0.17582546  0.70706900  1  0  0.079105  0  0.959384  0  0  0.084708  0  1.027846  0  0  0.087447  0  1.024793  0  0  0.103734  0.082773  0  1.029728  0
H  H11  1  0.42882857  0.82416506  0.29292555  1  0  0.079058  0  0.959377  0  0  0.084704  0  1.027788  0  0  0.087442  0  1.024741  0  0  0.103734  0.082772  0  1.029665  0
H  H12  1  0.88944247  0.91660871  0.96481192  1  0  0.089515  0  0.959968  0  0  0.100532  0  1.021934  0  0  0.103201  0  1.02065  0  0  0.103807  0.098685  0  1.022759  0
H  H13  1  0.11055275  0.08339727  0.03518040  1  0  0.089529  0  0.960001  0  0  0.100546  0  1.021961  0  0  0.103216  0  1.020675  0  0  0.103823  0.098697  0  1.022791  0
H  H14  1  0.59083316  0.89642482  0.09323984  1  0  0.102527  0  0.975318  0  0  0.10593  0  1.045707  0  0  0.109681  0  1.043955  0  0  0.103814  0.103106  0  1.047467  0
H  H15  1  0.40915755  0.10357910  0.90676373  1  0  0.102641  0  0.975324  0  0  0.106009  0  1.045736  0  0  0.10976  0  1.043986  0  0  0.10387  0.103186  0  1.047495  0
H  H16  1  0.28478182  0.61293942  0.94236480  1  0  0.105426  0  0.941586  0  0  0.11543  0  1.001525  0  0  0.119096  0  0.999348  0  0  0.10767  0.112592  0  1.003625  0
H  H17  1  0.71519296  0.38706965  0.05763773  1  0  0.105475  0  0.941571  0  0  0.115503  0  1.0015  0  0  0.119136  0  0.999361  0  0  0.107693  0.11266  0  1.003602  0
H  H18  1  0.58411983  0.63518752  0.81126751  1  0  0.101915  0  0.98761  0  0  0.105989  0  1.061358  0  0  0.109999  0  1.058764  0  0  0.091415  0.103114  0  1.062734  0
H  H19  1  0.41584753  0.36482568  0.18873177  1  0  0.101892  0  0.987634  0  0  0.105946  0  1.061392  0  0  0.109959  0  1.058801  0  0  0.09138  0.103097  0  1.062744  0
H  H20  1  0.82993038  0.56313399  0.15844502  1  0  0.092874  0  0.94244  0  0  0.111344  0  1.004064  0  0  0.111594  0  1.003999  0  0  0.094492  0.111123  0  1.004154  0
H  H21  1  0.17007871  0.43688024  0.84155561  1  0  0.092921  0  0.942476  0  0  0.111366  0  1.004109  0  0  0.111609  0  1.00406  0  0  0.09451  0.111148  0  1.004199  0
H  H22  1  0.86367068  0.72954033  0.19288796  1  0  0.091813  0  0.988614  0  0  0.099071  0  1.069147  0  0  0.100333  0  1.068298  0  0  0.092364  0.098117  0  1.070132  0
H  H23  1  0.13634036  0.27047287  0.80712004  1  0  0.091844  0  0.988571  0  0  0.099136  0  1.069079  0  0  0.100398  0  1.068223  0  0  0.092388  0.098183  0  1.070066  0
H  H24  1  0.02012796  0.57608510  0.25372159  1  0  0.096878  0  0.964383  0  0  0.110845  0  1.037592  0  0  0.111516  0  1.036497  0  0  0.086658  0.109902  0  1.038837  0
H  H25  1  0.97986952  0.42391881  0.74628696  1  0  0.096984  0  0.964351  0  0  0.110947  0  1.037547  0  0  0.111613  0  1.036459  0  0  0.086678  0.110006  0  1.038792  0
C  C26  1  0.23027281  0.93478343  0.72694585  1  0  0.564709  0  3.753766  0  0  0.522656  0  4.023653  0  0  0.545121  0  4.033807  0  0  0.345858  0.507838  0  4.017522  0
C  C27  1  0.76973507  0.06520709  0.27305237  1  0  0.564502  0  3.753678  0  0  0.522562  0  4.023358  0  0  0.545024  0  4.033509  0  0  0.345858  0.507747  0  4.017236  0
C  C28  1  0.50235027  0.88780284  0.61209188  1  0  0.180489  0  3.691547  0  0  0.146321  0  3.940787  0  0  0.15772  0  3.956283  0  0  0.050255  0.139415  0  3.930997  0
C  C29  1  0.49765620  0.11218664  0.38791304  1  0  0.180502  0  3.691479  0  0  0.146305  0  3.94071  0  0  0.157702  0  3.956197  0  0  0.050316  0.139398  0  3.930931  0
C  C30  1  0.60461708  0.00304026  0.62537932  1  0  -0.193402  0  3.726488  0  0  -0.204709  0  3.980669  0  0  -0.218141  0  4.002305  0  0  -0.098026  -0.195592  0  3.965703  0
C  C31  1  0.39538054  0.99695129  0.37461678  1  0  -0.193498  0  3.726386  0  0  -0.20485  0  3.980619  0  0  -0.218281  0  4.00225  0  0  -0.098126  -0.195738  0  3.965655  0
C  C32  1  0.50308963  0.08231354  0.69345240  1  0  0.201807  0  3.688946  0  0  0.168065  0  3.951841  0  0  0.181566  0  3.963978  0  0  0.060252  0.159643  0  3.942303  0
C  C33  1  0.49692385  0.91767388  0.30655045  1  0  0.201805  0  3.688954  0  0  0.168049  0  3.951796  0  0  0.18155  0  3.96393  0  0  0.060253  0.159627  0  3.942255  0
C  C34  1  0.92780409  0.78839819  0.79753977  1  0  0.559026  0  3.772253  0  0  0.508079  0  4.055941  0  0  0.538657  0  4.055045  0  0  0.250219  0.487534  0  4.056042  0
C  C35  1  0.07218814  0.21160573  0.20245356  1  0  0.558924  0  3.77217  0  0  0.508031  0  4.055769  0  0  0.538608  0  4.054869  0  0  0.25014  0.487483  0  4.055873  0
C  C36  1  0.75242190  0.78038778  0.87748616  1  0  -0.048953  0  3.737316  0  0  -0.028772  0  3.973011  0  0  -0.034649  0  3.994965  0  0  -0.010428  -0.025169  0  3.958557  0
C  C37  1  0.24755992  0.21961820  0.12250567  1  0  -0.048971  0  3.737529  0  0  -0.028741  0  3.973111  0  0  -0.034614  0  3.995063  0  0  -0.01043  -0.025142  0  3.95867  0
C  C38  1  0.75555680  0.85199769  0.95799577  1  0  -0.068933  0  3.720158  0  0  -0.094759  0  3.972187  0  0  -0.094779  0  3.991438  0  0  -0.081795  -0.094364  0  3.959079  0
C  C39  1  0.24443303  0.14800108  0.04200475  1  0  -0.06884  0  3.7203  0  0  -0.094677  0  3.972277  0  0  -0.094694  0  3.991522  0  0  -0.081757  -0.094281  0  3.959176  0
C  C40  1  0.58775856  0.84097997  0.03062213  1  0  -0.05852  0  3.712122  0  0  -0.075712  0  3.955814  0  0  -0.07709  0  3.975858  0  0  -0.076765  -0.074961  0  3.942688  0
C  C41  1  0.41224203  0.15902498  0.96938115  1  0  -0.058757  0  3.7122  0  0  -0.075939  0  3.955925  0  0  -0.077315  0  3.975981  0  0  -0.076887  -0.075201  0  3.942786  0
C  C42  1  0.41601388  0.75626696  0.02447906  1  0  -0.062609  0  3.766616  0  0  -0.044397  0  4.004164  0  0  -0.05084  0  4.026051  0  0  -0.01365  -0.040835  0  3.990113  0
C  C43  1  0.58399524  0.24373696  0.97552419  1  0  -0.06243  0  3.766428  0  0  -0.044249  0  4.003932  0  0  -0.050718  0  4.025861  0  0  -0.013606  -0.040639  0  3.989818  0
C  C44  1  0.41693125  0.68008275  0.94612030  1  0  -0.06707  0  3.71043  0  0  -0.0944  0  3.968621  0  0  -0.094698  0  3.98729  0  0  -0.081446  -0.094557  0  3.956763  0
C  C45  1  0.58306388  0.31992426  0.05387701  1  0  -0.067128  0  3.710524  0  0  -0.094506  0  3.968743  0  0  -0.094771  0  3.987436  0  0  -0.081509  -0.094672  0  3.956866  0
C  C46  1  0.58365741  0.69250501  0.87308732  1  0  -0.052692  0  3.688845  0  0  -0.077569  0  3.940702  0  0  -0.077683  0  3.958927  0  0  -0.081089  -0.077068  0  3.928537  0
C  C47  1  0.41633302  0.30749994  0.12690885  1  0  -0.052754  0  3.688816  0  0  -0.077625  0  3.940682  0  0  -0.077734  0  3.958886  0  0  -0.081084  -0.077144  0  3.9285  0
C  C48  1  0.23356149  0.75346337  0.10087500  1  0  0.581763  0  3.815321  0  0  0.528954  0  4.113106  0  0  0.562666  0  4.104115  0  0  0.2343  0.505836  0  4.118916  0
C  C49  1  0.76646244  0.24653230  0.89913257  1  0  0.581729  0  3.815146  0  0  0.528998  0  4.112728  0  0  0.562677  0  4.103743  0  0  0.234243  0.505859  0  4.118541  0
C  C50  1  0.94637251  0.62785279  0.18388463  1  0  -0.077872  0  3.586527  0  0  -0.179502  0  3.855482  0  0  -0.171664  0  3.858097  0  0  -0.15815  -0.184737  0  3.853968  0
C  C51  1  0.05362981  0.37215216  0.81612226  1  0  -0.078088  0  3.586631  0  0  -0.179752  0  3.855588  0  0  -0.171948  0  3.858194  0  0  -0.158294  -0.184998  0  3.854076  0
I  I52  1  0.96222567  0.73561981  0.46179567  1  0  -0.299427  0  1.835011  0  0  -0.246898  0  2.29759  0  0  -0.263635  0  2.253844  0  0  -0.146794  -0.23367  0  2.331531  0
I  I53  1  0.03777911  0.26437896  0.53819730  1  0  -0.299462  0  1.835104  0  0  -0.246958  0  2.297717  0  0  -0.263695  0  2.253973  0  0  -0.14684  -0.233734  0  2.331664  0
I  I54  1  0.48811762  0.51080971  0.34727433  1  0  -0.318851  0  1.791916  0  0  -0.26052  0  2.25682  0  0  -0.279032  0  2.212089  0  0  -0.149088  -0.245637  0  2.28559  0
I  I55  1  0.51187681  0.48917152  0.65273174  1  0  -0.318847  0  1.791935  0  0  -0.260487  0  2.256784  0  0  -0.278998  0  2.212047  0  0  -0.149066  -0.245609  0  2.285575  0
N  N56  1  0.31131346  0.85360661  0.66078711  1  0  -0.401611  0  3.264469  0  0  -0.331738  0  3.55015  0  0  -0.349337  0  3.555353  0  0  -0.35661  -0.323447  0  3.549313  0
N  N57  1  0.68869922  0.14638597  0.33921809  1  0  -0.401497  0  3.264412  0  0  -0.331596  0  3.549975  0  0  -0.349177  0  3.555171  0  0  -0.356553  -0.323324  0  3.549163  0
N  N58  1  0.31923243  0.04705670  0.74586578  1  0  -0.416099  0  3.005078  0  0  -0.373264  0  3.272509  0  0  -0.390527  0  3.28287  0  0  -0.315333  -0.363374  0  3.266615  0
N  N59  1  0.68076661  0.95293690  0.25413517  1  0  -0.416035  0  3.005139  0  0  -0.373219  0  3.272499  0  0  -0.390481  0  3.28286  0  0  -0.315383  -0.363328  0  3.266605  0
N  N60  1  0.03851411  0.90545203  0.78369549  1  0  -0.499409  0  3.294371  0  0  -0.443741  0  3.539846  0  0  -0.467652  0  3.544644  0  0  -0.383806  -0.427233  0  3.535773  0
N  N61  1  0.96148148  0.09455189  0.21629924  1  0  -0.499247  0  3.294313  0  0  -0.443702  0  3.539818  0  0  -0.467618  0  3.544622  0  0  -0.383838  -0.427196  0  3.53575  0
O  O62  1  0.96645010  0.69150105  0.74904009  1  0  -0.488072  0  2.126561  0  0  -0.427121  0  2.395285  0  0  -0.44761  0  2.382665  0  0  -0.279913  -0.414413  0  2.403574  0
O  O63  1  0.03351962  0.30850699  0.25094952  1  0  -0.487995  0  2.126507  0  0  -0.427048  0  2.395154  0  0  -0.447554  0  2.382579  0  0  -0.279784  -0.414334  0  2.403439  0
O  O64  1  0.18677848  0.84730833  0.15016789  1  0  -0.545893  0  2.010329  0  0  -0.499986  0  2.244656  0  0  -0.520046  0  2.236522  0  0  -0.277527  -0.486138  0  2.250107  0
O  O65  1  0.81325122  0.15269250  0.84983389  1  0  -0.54592  0  2.010334  0  0  -0.499975  0  2.244513  0  0  -0.520038  0  2.236385  0  0  -0.277479  -0.486129  0  2.249977  0
O  O66  1  0.12481581  0.64013869  0.10918202  1  0  -0.277208  0  2.312025  0  0  -0.198576  0  2.551542  0  0  -0.220901  0  2.551944  0  0  -0.164815  -0.183063  0  2.550879  0
O  O67  1  0.87519713  0.35986316  0.89082941  1  0  -0.27721  0  2.311992  0  0  -0.198541  0  2.551404  0  0  -0.220772  0  2.551749  0  0  -0.164679  -0.183008  0  2.550732  0
