# generated using pymatgen
data_CdH36C52(N7O2)2
_symmetry_space_group_name_H-M   'P 1'
_cell_length_a   11.02293160
_cell_length_b   16.27107325
_cell_length_c   16.27103241
_cell_angle_alpha   110.44650387
_cell_angle_beta   97.76177675
_cell_angle_gamma   97.76166415
_symmetry_Int_Tables_number   1
_chemical_formula_structural   CdH36C52(N7O2)2
_chemical_formula_sum   'Cd2 H72 C104 N28 O8'
_cell_volume   2656.67686659
_cell_formula_units_Z   2
loop_
 _symmetry_equiv_pos_site_id
 _symmetry_equiv_pos_as_xyz
  1  'x, y, z'
loop_
 _atom_site_type_symbol
 _atom_site_label
 _atom_site_symmetry_multiplicity
 _atom_site_fract_x
 _atom_site_fract_y
 _atom_site_fract_z
 _atom_site_occupancy
 _atom_site_pbe_bader_charge
 _atom_site_pbe_bader_spin_density
 _atom_site_pbe_cm5_charge
 _atom_site_pbe_ddec_charge
 _atom_site_pbe_ddec_spin_density
 _atom_site_pbe_ddec_sum_bond_order
 _atom_site_pbe_magmom
Cd  Cd0  1  0.25000028  0.24095691  0.75904418  1  1.270473  0  0.779871  0.828182  0  2.303312  0
Cd  Cd1  1  0.74999896  0.75904332  0.24095677  1  1.270449  0  0.779876  0.828159  0  2.303337  0
H  H2  1  0.49405762  0.34435882  0.69793519  1  0.221738  0  0.139028  0.124482  0  1.04912  0
H  H3  1  0.00594147  0.30206368  0.65564131  1  0.221751  0  0.139027  0.124473  0  1.049089  0
H  H4  1  0.50594234  0.65564076  0.30206314  1  0.221677  0  0.139024  0.124494  0  1.049083  0
H  H5  1  0.99405575  0.69793590  0.34435616  1  0.221661  0  0.139047  0.124476  0  1.049085  0
H  H6  1  0.32667145  0.47116914  0.91217735  1  0.15293  0  0.136552  0.108246  0  0.996668  0
H  H7  1  0.17333174  0.08782437  0.52883070  1  0.152971  0  0.136563  0.108248  0  0.99668  0
H  H8  1  0.67332981  0.52882842  0.08782284  1  0.152905  0  0.136549  0.108207  0  0.996729  0
H  H9  1  0.82666422  0.91217384  0.47117109  1  0.152982  0  0.136554  0.108209  0  0.996599  0
H  H10  1  0.92484578  0.16107360  0.75645009  1  0.170614  0  0.140642  0.121035  0  0.97409  0
H  H11  1  0.57515493  0.24355158  0.83892570  1  0.170759  0  0.140619  0.121047  0  0.974049  0
H  H12  1  0.07515382  0.83892797  0.24355137  1  0.170655  0  0.140615  0.120969  0  0.974038  0
H  H13  1  0.42484450  0.75644598  0.16107310  1  0.170759  0  0.140626  0.121037  0  0.974123  0
H  H14  1  0.22531313  0.02996675  0.76742333  1  0.14832  0  0.146819  0.121592  0  0.978851  0
H  H15  1  0.27468890  0.23257925  0.97003551  1  0.148356  0  0.146791  0.121609  0  0.97883  0
H  H16  1  0.77468407  0.97003284  0.23257107  1  0.148263  0  0.146818  0.121569  0  0.978866  0
H  H17  1  0.72531252  0.76742566  0.02996730  1  0.148343  0  0.146828  0.121604  0  0.97886  0
H  H18  1  0.68631207  0.38958728  0.69529861  1  0.044188  0  0.113762  0.122511  0  1.008463  0
H  H19  1  0.81368954  0.30469817  0.61041402  1  0.044557  0  0.113781  0.122562  0  1.008404  0
H  H20  1  0.31368586  0.61041498  0.30469681  1  0.04455  0  0.113769  0.122534  0  1.008416  0
H  H21  1  0.18631045  0.69529806  0.38958496  1  0.044353  0  0.113771  0.122523  0  1.00847  0
H  H22  1  0.87711002  0.45916213  0.66256690  1  0.063348  0  0.102004  0.103619  0  1.039805  0
H  H23  1  0.62289122  0.33743179  0.54084088  1  0.063161  0  0.102033  0.103646  0  1.039808  0
H  H24  1  0.12288809  0.54084080  0.33743000  1  0.063179  0  0.102035  0.103641  0  1.039776  0
H  H25  1  0.37710966  0.66256778  0.45915937  1  0.063154  0  0.102025  0.103617  0  1.039816  0
H  H26  1  0.85786355  0.71411607  0.85823030  1  0.030414  0  0.103861  0.111916  0  1.001552  0
H  H27  1  0.64213281  0.14177017  0.28588455  1  0.030445  0  0.103846  0.111905  0  1.001527  0
H  H28  1  0.14213937  0.28588416  0.14177406  1  0.030461  0  0.103823  0.111853  0  1.001576  0
H  H29  1  0.35786459  0.85823007  0.71411440  1  0.030464  0  0.103816  0.111863  0  1.001555  0
H  H30  1  0.66172354  0.64370696  0.88701039  1  0.071005  0  0.10241  0.09623  0  1.072805  0
H  H31  1  0.83827164  0.11298551  0.35629158  1  0.106142  0  0.10241  0.096197  0  1.072808  0
H  H32  1  0.33827569  0.35629328  0.11298811  1  0.106136  0  0.102416  0.096235  0  1.072763  0
H  H33  1  0.16172613  0.88701273  0.64370546  1  0.106176  0  0.102415  0.096204  0  1.072808  0
H  H34  1  0.83558555  0.85913716  0.67144211  1  0.126646  0  0.112803  0.122168  0  1.002894  0
H  H35  1  0.66442196  0.32855641  0.14086242  1  0.126652  0  0.112799  0.122172  0  1.002873  0
H  H36  1  0.16441606  0.14086176  0.32855491  1  0.126734  0  0.112796  0.122179  0  1.002867  0
H  H37  1  0.33558259  0.67144317  0.85913817  1  0.126511  0  0.112793  0.122152  0  1.002865  0
H  H38  1  0.81627889  0.70074906  0.66071045  1  0.132224  0  0.101971  0.10882  0  1.055991  0
H  H39  1  0.68372843  0.33929006  0.29925144  1  0.132132  0  0.101976  0.108861  0  1.055956  0
H  H40  1  0.18372474  0.29925052  0.33928883  1  0.132195  0  0.101985  0.108866  0  1.055975  0
H  H41  1  0.31627631  0.66071018  0.70075001  1  0.132185  0  0.10196  0.108819  0  1.056016  0
H  H42  1  0.17643684  0.76842556  0.83382693  1  0.091047  0  0.110077  0.12258  0  1.000255  0
H  H43  1  0.32356888  0.16617629  0.23157727  1  0.091066  0  0.110019  0.122457  0  1.00026  0
H  H44  1  0.82356514  0.23157802  0.16617484  1  0.091013  0  0.110079  0.122617  0  1.000222  0
H  H45  1  0.67643309  0.83382729  0.76842450  1  0.090944  0  0.11006  0.122534  0  1.000245  0
H  H46  1  0.19254488  0.92741505  0.84919853  1  0.091305  0  0.109061  0.113524  0  0.991704  0
H  H47  1  0.30746133  0.15080288  0.07258517  1  0.091404  0  0.109051  0.113452  0  0.99179  0
H  H48  1  0.80745507  0.07258786  0.15080283  1  0.091339  0  0.109067  0.113515  0  0.991753  0
H  H49  1  0.69253972  0.84920070  0.92741591  1  0.09136  0  0.109064  0.113518  0  0.99173  0
H  H50  1  0.09941017  0.51040074  0.77401083  1  0.086472  0  0.111051  0.126633  0  0.986616  0
H  H51  1  0.40058912  0.22599003  0.48960124  1  0.086505  0  0.111043  0.126593  0  0.986634  0
H  H52  1  0.90058980  0.48959882  0.22598995  1  0.086508  0  0.111023  0.126566  0  0.98666  0
H  H53  1  0.59941159  0.77400886  0.51039937  1  0.086548  0  0.111069  0.126629  0  0.986633  0
H  H54  1  0.23066380  0.42063786  0.68458286  1  0.084205  0  0.097158  0.094797  0  1.060961  0
H  H55  1  0.26933234  0.31541607  0.57935990  1  0.084667  0  0.097176  0.094837  0  1.060928  0
H  H56  1  0.76933618  0.57936169  0.31541915  1  0.0843  0  0.09715  0.094777  0  1.060967  0
H  H57  1  0.73066818  0.68458216  0.42063985  1  0.084644  0  0.097163  0.094797  0  1.060921  0
H  H58  1  0.17427326  0.54911043  0.49460955  1  0.056395  0  0.095675  0.091833  0  1.044619  0
H  H59  1  0.32572776  0.50539190  0.45089078  1  0.056083  0  0.095681  0.091891  0  1.044526  0
H  H60  1  0.82572617  0.45088713  0.50538986  1  0.05639  0  0.0957  0.091863  0  1.044643  0
H  H61  1  0.67427533  0.49460900  0.54911199  1  0.056134  0  0.09569  0.091854  0  1.044592  0
H  H62  1  0.05049771  0.64263053  0.58710582  1  0.109  0  0.10295  0.113484  0  1.0089  0
H  H63  1  0.44950612  0.41289588  0.35737226  1  0.109004  0  0.102969  0.113511  0  1.008949  0
H  H64  1  0.94950355  0.35736704  0.41289376  1  0.108911  0  0.10295  0.113495  0  1.008848  0
H  H65  1  0.55049771  0.58710436  0.64263033  1  0.108947  0  0.102968  0.113498  0  1.008972  0
H  H66  1  0.65308169  0.14256500  0.58042156  1  0.1249  0  0.091301  0.094225  0  1.045777  0
H  H67  1  0.84691542  0.41957547  0.85743325  1  0.124856  0  0.091321  0.09425  0  1.045721  0
H  H68  1  0.34691333  0.85743322  0.41957647  1  0.124809  0  0.091312  0.094249  0  1.045748  0
H  H69  1  0.15308399  0.58042544  0.14256612  1  0.124875  0  0.0913  0.094223  0  1.045748  0
H  H70  1  0.29657897  0.98021618  0.54752269  1  0.094033  0  0.091792  0.093792  0  1.042787  0
H  H71  1  0.20341814  0.45247695  0.01978338  1  0.094054  0  0.091778  0.09377  0  1.04285  0
H  H72  1  0.70341697  0.01978205  0.45247603  1  0.094087  0  0.091791  0.093796  0  1.042823  0
H  H73  1  0.79658236  0.54752465  0.98021326  1  0.094062  0  0.091787  0.093796  0  1.042776  0
C  C74  1  0.47271796  0.39484146  0.75535133  1  0.970932  0  0.159448  0.082194  0  3.892733  0
C  C75  1  0.02728191  0.24464760  0.60515891  1  0.970969  0  0.159478  0.082271  0  3.892804  0
C  C76  1  0.52728383  0.60515812  0.24464717  1  0.970988  0  0.159453  0.082187  0  3.892809  0
C  C77  1  0.97271531  0.75535197  0.39484040  1  0.970945  0  0.159457  0.082218  0  3.892848  0
C  C78  1  0.39089540  0.46002972  0.86619179  1  0.984336  0  0.148269  0.151981  0  3.972942  0
C  C79  1  0.10910651  0.13380886  0.53997000  1  0.984285  0  0.148209  0.151881  0  3.97296  0
C  C80  1  0.60910512  0.53996852  0.13380612  1  0.984789  0  0.148204  0.151898  0  3.973078  0
C  C81  1  0.89089293  0.86618869  0.46003125  1  0.984297  0  0.148286  0.152015  0  3.972888  0
C  C82  1  0.97750906  0.10978091  0.75892811  1  0.993592  0  0.151513  0.15221  0  3.955786  0
C  C83  1  0.52249015  0.24107322  0.89021910  1  0.993439  0  0.151486  0.152121  0  3.955861  0
C  C84  1  0.02248779  0.89022065  0.24107250  1  0.99364  0  0.151491  0.152244  0  3.955804  0
C  C85  1  0.47750781  0.75892567  0.10978126  1  0.993458  0  0.151486  0.152168  0  3.955851  0
C  C86  1  0.13310906  0.04635779  0.76683951  1  0.98741  0  0.159456  0.076839  0  3.913812  0
C  C87  1  0.36689433  0.23316239  0.95364418  1  0.987426  0  0.159468  0.076841  0  3.913869  0
C  C88  1  0.86689016  0.95364247  0.23315715  1  0.987439  0  0.159476  0.076842  0  3.913866  0
C  C89  1  0.63310838  0.76684053  0.04635804  1  0.987518  0  0.159394  0.07676  0  3.913887  0
C  C90  1  0.65955558  0.51398774  0.79075020  1  0.295992  0  0.08928  0.12301  0  4.026785  0
C  C91  1  0.84044271  0.20924688  0.48601288  1  0.295707  0  0.089279  0.122939  0  4.026841  0
C  C92  1  0.34044181  0.48601251  0.20924630  1  0.295708  0  0.089296  0.122955  0  4.026786  0
C  C93  1  0.15955563  0.79075001  0.51398620  1  0.295954  0  0.089321  0.122997  0  4.026711  0
C  C94  1  0.72159077  0.46134231  0.72890564  1  0.027506  0  -0.085559  -0.150677  0  3.999184  0
C  C95  1  0.77840801  0.27109154  0.53865856  1  0.027593  0  -0.085605  -0.150743  0  3.99917  0
C  C96  1  0.27840606  0.53865928  0.27109128  1  0.027582  0  -0.085587  -0.150691  0  3.999074  0
C  C97  1  0.22159033  0.72890535  0.46134112  1  0.02733  0  -0.085605  -0.150735  0  3.999167  0
C  C98  1  0.83005307  0.50034184  0.71139202  1  -0.003627  0  -0.096147  -0.167997  0  3.99882  0
C  C99  1  0.66994749  0.28860717  0.49966058  1  -0.003428  0  -0.096173  -0.168015  0  3.998762  0
C  C100  1  0.16994779  0.49966110  0.28860574  1  -0.003395  0  -0.096191  -0.168041  0  3.998821  0
C  C101  1  0.33005138  0.71139172  0.50033925  1  -0.003491  0  -0.096185  -0.167979  0  3.998729  0
C  C102  1  0.88000021  0.59223810  0.75637157  1  0.338125  0  0.100467  0.192381  0  4.022096  0
C  C103  1  0.62000095  0.24362936  0.40776310  1  0.338122  0  0.100543  0.192549  0  4.022051  0
C  C104  1  0.12000195  0.40776282  0.24362743  1  0.338013  0  0.100523  0.192489  0  4.022035  0
C  C105  1  0.38000012  0.75637088  0.59223741  1  0.338149  0  0.100535  0.192475  0  4.022047  0
C  C106  1  0.81914845  0.64329225  0.82118490  1  0.04235  0  -0.09421  -0.160567  0  3.982149  0
C  C107  1  0.68085013  0.17881478  0.35670962  1  0.042315  0  -0.094252  -0.160628  0  3.982207  0
C  C108  1  0.18085151  0.35671067  0.17881585  1  0.042385  0  -0.094224  -0.160539  0  3.982164  0
C  C109  1  0.31914911  0.82118546  0.64329011  1  0.042344  0  -0.094227  -0.160563  0  3.98216  0
C  C110  1  0.70961413  0.60471229  0.83755362  1  0.01978  0  -0.088302  -0.138121  0  4.018416  0
C  C111  1  0.79038237  0.16244400  0.39528728  1  -0.015341  0  -0.088293  -0.138067  0  4.018274  0
C  C112  1  0.29038454  0.39528930  0.16244469  1  -0.015412  0  -0.08827  -0.138073  0  4.018289  0
C  C113  1  0.20961540  0.83755423  0.60471100  1  -0.01535  0  -0.088303  -0.138091  0  4.018292  0
C  C114  1  0.01500850  0.90181226  0.76036347  1  0.346036  0  0.093134  0.12731  0  4.0454  0
C  C115  1  0.48499698  0.23963800  0.09818929  1  0.346145  0  0.093209  0.127276  0  4.04535  0
C  C116  1  0.98499183  0.09818865  0.23963536  1  0.346706  0  0.09319  0.127347  0  4.045354  0
C  C117  1  0.51500573  0.76036491  0.90181353  1  0.346694  0  0.093168  0.127305  0  4.04536  0
C  C118  1  0.90813702  0.83883991  0.70814385  1  -0.038258  0  -0.083953  -0.14273  0  3.985526  0
C  C119  1  0.59186795  0.29185674  0.16115949  1  -0.038048  0  -0.083898  -0.142587  0  3.985411  0
C  C120  1  0.09186569  0.16115968  0.29185411  1  -0.038621  0  -0.083952  -0.14272  0  3.985499  0
C  C121  1  0.40813440  0.70814483  0.83884222  1  -0.038389  0  -0.083961  -0.142665  0  3.985383  0
C  C122  1  0.89869691  0.75066050  0.70145361  1  -0.036608  0  -0.08606  -0.147232  0  3.967744  0
C  C123  1  0.60130881  0.29854885  0.24934133  1  -0.036424  0  -0.086071  -0.147313  0  3.967816  0
C  C124  1  0.10130671  0.24933909  0.29854505  1  -0.036332  0  -0.086038  -0.147227  0  3.967906  0
C  C125  1  0.39869280  0.70145339  0.75066055  1  -0.036413  0  -0.086044  -0.147257  0  3.967785  0
C  C126  1  0.99601455  0.72471541  0.74548623  1  0.334479  0  0.092591  0.171766  0  4.031522  0
C  C127  1  0.50398921  0.25451746  0.27528520  1  0.33405  0  0.092469  0.17154  0  4.031857  0
C  C128  1  0.00398852  0.27528551  0.25451347  1  0.334458  0  0.092491  0.171602  0  4.031676  0
C  C129  1  0.49601257  0.74548546  0.72471510  1  0.334316  0  0.092508  0.171596  0  4.031711  0
C  C130  1  0.10232576  0.78838423  0.79804824  1  -0.015724  0  -0.085319  -0.139977  0  3.96806  0
C  C131  1  0.39768126  0.20195532  0.21161692  1  -0.01544  0  -0.085173  -0.139632  0  3.967999  0
C  C132  1  0.89767749  0.21161736  0.20195232  1  -0.015761  0  -0.085341  -0.14003  0  3.968047  0
C  C133  1  0.60232144  0.79804760  0.78838468  1  -0.015532  0  -0.085265  -0.139811  0  3.968073  0
C  C134  1  0.11144280  0.87721846  0.80626476  1  -0.081696  0  -0.089672  -0.159616  0  4.01357  0
C  C135  1  0.38856303  0.19373657  0.12278186  1  -0.08208  0  -0.08973  -0.159598  0  4.013616  0
C  C136  1  0.88855771  0.12278312  0.19373495  1  -0.082215  0  -0.089653  -0.159552  0  4.013646  0
C  C137  1  0.61143839  0.80626501  0.87721854  1  -0.082183  0  -0.089689  -0.159642  0  4.01366  0
C  C138  1  0.06505002  0.58282648  0.68678433  1  0.285191  0  0.088773  0.173632  0  4.032174  0
C  C139  1  0.43495097  0.31321734  0.41717478  1  0.285114  0  0.088791  0.173695  0  4.032141  0
C  C140  1  0.93495288  0.41717376  0.31321757  1  0.285247  0  0.088712  0.173609  0  4.032264  0
C  C141  1  0.56505010  0.68678290  0.58282572  1  0.285103  0  0.088724  0.173565  0  4.032147  0
C  C142  1  0.11682488  0.51928692  0.71289564  1  -0.009894  0  -0.094261  -0.168584  0  3.978817  0
C  C143  1  0.38317466  0.28710527  0.48071240  1  -0.009921  0  -0.094237  -0.168515  0  3.978796  0
C  C144  1  0.88317602  0.48071264  0.28710584  1  -0.009881  0  -0.094196  -0.168467  0  3.978712  0
C  C145  1  0.61682605  0.71289363  0.51928822  1  -0.009927  0  -0.094292  -0.168569  0  3.978834  0
C  C146  1  0.18940268  0.46739582  0.66083357  1  -0.079678  0  -0.093602  -0.118948  0  3.97934  0
C  C147  1  0.31059481  0.33916683  0.53260185  1  -0.079589  0  -0.093658  -0.119072  0  3.979368  0
C  C148  1  0.81059730  0.53260373  0.33916906  1  -0.079831  0  -0.09357  -0.118912  0  3.979279  0
C  C149  1  0.68940590  0.66083207  0.46739938  1  -0.079713  0  -0.093615  -0.118993  0  3.979309  0
C  C150  1  0.21262989  0.47576705  0.58062672  1  -0.014234  0  -0.017811  0.048217  0  4.002746  0
C  C151  1  0.28736766  0.41937263  0.52423122  1  0.014456  0  -0.017797  0.048243  0  4.002782  0
C  C152  1  0.78737173  0.52423185  0.41937398  1  0.014648  0  -0.017785  0.048259  0  4.002793  0
C  C153  1  0.71263324  0.58062692  0.47577088  1  -0.014032  0  -0.017773  0.048259  0  4.002841  0
C  C154  1  0.16136906  0.54075991  0.55656481  1  -0.013405  0  -0.091958  -0.113028  0  3.991825  0
C  C155  1  0.33863047  0.44343581  0.45924109  1  -0.013579  0  -0.091935  -0.113025  0  3.991686  0
C  C156  1  0.83863240  0.45923831  0.44343747  1  -0.013725  0  -0.092039  -0.11315  0  3.991834  0
C  C157  1  0.66137243  0.55656442  0.54076081  1  -0.013645  0  -0.091986  -0.113058  0  3.991769  0
C  C158  1  0.08994610  0.59379903  0.60851254  1  -0.094169  0  -0.095957  -0.167482  0  3.991033  0
C  C159  1  0.41005575  0.39148883  0.40620180  1  -0.093912  0  -0.096013  -0.167573  0  3.991062  0
C  C160  1  0.91005662  0.40620055  0.39148788  1  -0.093987  0  -0.095939  -0.167474  0  3.99098  0
C  C161  1  0.58994550  0.60851207  0.59380080  1  -0.093918  0  -0.095934  -0.167436  0  3.9909  0
C  C162  1  0.44174926  0.14434301  0.64639598  1  1.578294  0  0.186885  0.56385  0  4.259134  0
C  C163  1  0.05824595  0.35360040  0.85565796  1  1.578354  0  0.186794  0.563772  0  4.259223  0
C  C164  1  0.55824668  0.85565522  0.35360213  1  1.578369  0  0.186866  0.563735  0  4.259257  0
C  C165  1  0.94174999  0.64639782  0.14434138  1  1.578331  0  0.18682  0.563799  0  4.259211  0
C  C166  1  0.47187980  0.06894763  0.57123068  1  -0.019274  0  -0.026221  -0.033816  0  3.971244  0
C  C167  1  0.02811784  0.42876738  0.93105279  1  -0.019543  0  -0.026194  -0.0338  0  3.971245  0
C  C168  1  0.52811541  0.93105126  0.42876760  1  -0.019515  0  -0.026178  -0.03377  0  3.971081  0
C  C169  1  0.97188121  0.57123219  0.06894669  1  -0.019479  0  -0.026237  -0.033897  0  3.971337  0
C  C170  1  0.58691097  0.07965418  0.54468773  1  -0.056332  0  -0.096367  -0.101728  0  3.996607  0
C  C171  1  0.91308604  0.45530971  0.92034413  1  -0.056281  0  -0.096344  -0.101713  0  3.996596  0
C  C172  1  0.41308313  0.92034404  0.45530960  1  -0.055917  0  -0.09638  -0.101781  0  3.99651  0
C  C173  1  0.08691301  0.54468986  0.07965473  1  -0.056305  0  -0.096308  -0.101622  0  3.996529  0
C  C174  1  0.38524849  0.98846688  0.52585918  1  -0.137073  0  -0.098776  -0.112106  0  4.002536  0
C  C175  1  0.11474722  0.47414022  0.01153202  1  -0.136718  0  -0.098807  -0.112172  0  4.002697  0
C  C176  1  0.61474562  0.01153134  0.47413938  1  -0.136747  0  -0.098799  -0.112146  0  4.002566  0
C  C177  1  0.88525201  0.52586002  0.98846648  1  -0.13674  0  -0.098783  -0.112132  0  4.002655  0
N  N178  1  0.37381677  0.38333184  0.79183354  1  -1.217314  0  -0.346622  -0.321817  0  3.479098  0
N  N179  1  0.12618293  0.20816751  0.61666865  1  -1.217348  0  -0.346595  -0.321773  0  3.479136  0
N  N180  1  0.62618467  0.61666639  0.20816691  1  -1.217344  0  -0.346579  -0.321712  0  3.479119  0
N  N181  1  0.87381429  0.79183204  0.38333189  1  -1.217416  0  -0.346649  -0.321791  0  3.479168  0
N  N182  1  0.54591852  0.47518135  0.80582255  1  -0.881454  0  -0.119031  0.1398  0  3.763885  0
N  N183  1  0.95407986  0.19417644  0.52482021  1  -0.881483  0  -0.11904  0.139758  0  3.764071  0
N  N184  1  0.45407906  0.52481957  0.19417543  1  -0.881349  0  -0.119047  0.13976  0  3.763967  0
N  N185  1  0.04591609  0.80582178  0.47517913  1  -0.88132  0  -0.119063  0.139767  0  3.763925  0
N  N186  1  0.49440919  0.51817545  0.87732866  1  -0.692462  0  -0.22573  -0.269599  0  3.071867  0
N  N187  1  0.00559206  0.12267119  0.48182521  1  -0.692442  0  -0.225714  -0.269544  0  3.07183  0
N  N188  1  0.50559021  0.48182547  0.12266887  1  -0.692967  0  -0.225698  -0.269528  0  3.071939  0
N  N189  1  0.99440444  0.87732569  0.51817432  1  -0.692437  0  -0.225727  -0.269593  0  3.07188  0
N  N190  1  0.10405315  0.12214133  0.76468207  1  -1.22154  0  -0.338134  -0.297495  0  3.463606  0
N  N191  1  0.39594865  0.23531957  0.87785998  1  -1.221536  0  -0.338093  -0.297458  0  3.46365  0
N  N192  1  0.89594626  0.87785958  0.23531607  1  -1.221573  0  -0.338137  -0.297473  0  3.463754  0
N  N193  1  0.60405242  0.76468067  0.12214114  1  -1.22163  0  -0.33809  -0.297451  0  3.463674  0
N  N194  1  0.02778015  0.99064467  0.76345769  1  -0.866197  0  -0.121687  0.127125  0  3.790858  0
N  N195  1  0.47222127  0.23654350  0.00935403  1  -0.8662  0  -0.121676  0.127106  0  3.790906  0
N  N196  1  0.97221798  0.00935490  0.23654109  1  -0.866002  0  -0.121668  0.127195  0  3.790641  0
N  N197  1  0.52777942  0.76345875  0.99064593  1  -0.86621  0  -0.121594  0.127259  0  3.790742  0
N  N198  1  0.92682650  0.03026392  0.75745534  1  -0.656841  0  -0.228908  -0.271643  0  3.063267  0
N  N199  1  0.57317548  0.24254574  0.96973569  1  -0.656877  0  -0.228937  -0.271643  0  3.063292  0
N  N200  1  0.07317219  0.96973764  0.24254604  1  -0.657061  0  -0.228911  -0.271699  0  3.063175  0
N  N201  1  0.42682559  0.75745450  0.03026481  1  -0.656899  0  -0.228918  -0.271668  0  3.063268  0
N  N202  1  0.98664801  0.63376288  0.73706430  1  -1.223287  0  -0.258561  -0.165972  0  3.665296  0
N  N203  1  0.51335481  0.26293840  0.36623912  1  -1.223231  0  -0.25853  -0.166026  0  3.66529  0
N  N204  1  0.01335325  0.36623802  0.26293769  1  -1.223279  0  -0.258542  -0.166008  0  3.665288  0
N  N205  1  0.48664644  0.73706250  0.63376226  1  -1.223256  0  -0.258523  -0.16595  0  3.665315  0
O  O206  1  0.33751267  0.12725370  0.67021637  1  -1.184729  0  -0.354177  -0.593511  0  2.268749  0
O  O207  1  0.16248892  0.32978369  0.87274816  1  -1.184593  0  -0.354161  -0.593499  0  2.268725  0
O  O208  1  0.66248621  0.87274519  0.32978592  1  -1.184568  0  -0.354126  -0.593439  0  2.268762  0
O  O209  1  0.83751105  0.67021588  0.12725201  1  -1.184623  0  -0.354142  -0.593468  0  2.268811  0
O  O210  1  0.51817014  0.21817402  0.67953824  1  -1.20918  0  -0.351643  -0.593223  0  2.133765  0
O  O211  1  0.98182309  0.32045164  0.78182923  1  -1.209158  0  -0.351621  -0.593195  0  2.133852  0
O  O212  1  0.48182524  0.78182556  0.32045784  1  -1.20922  0  -0.35171  -0.593224  0  2.133862  0
O  O213  1  0.01817489  0.67954389  0.21817240  1  -1.209136  0  -0.351642  -0.59321  0  2.13373  0
