# generated using pymatgen
data_CuH6C8(NCl)2
_symmetry_space_group_name_H-M   'P 1'
_cell_length_a   6.91333707
_cell_length_b   7.60105056
_cell_length_c   9.32386520
_cell_angle_alpha   104.64369819
_cell_angle_beta   89.95996191
_cell_angle_gamma   117.10859887
_symmetry_Int_Tables_number   1
_chemical_formula_structural   CuH6C8(NCl)2
_chemical_formula_sum   'Cu2 H12 C16 N4 Cl4'
_cell_volume   418.21897218
_cell_formula_units_Z   2
loop_
 _symmetry_equiv_pos_site_id
 _symmetry_equiv_pos_as_xyz
  1  'x, y, z'
loop_
 _atom_site_type_symbol
 _atom_site_label
 _atom_site_symmetry_multiplicity
 _atom_site_fract_x
 _atom_site_fract_y
 _atom_site_fract_z
 _atom_site_occupancy
 _atom_site_pbe_cm5_charge
 _atom_site_pbe_ddec_charge
 _atom_site_pbe_ddec_spin_density
 _atom_site_pbe_ddec_sum_bond_order
 _atom_site_pbe_magmom
Cu  Cu0  1  0.96111777  0.92319976  0.66858019  1  0.577401  0.628244  -0.666767  2.375316  -0.503
Cu  Cu1  1  0.03888187  0.07679311  0.33142322  1  0.577413  0.628292  -0.666755  2.375159  -0.503
H  H2  1  0.52324677  0.68686821  0.49196188  1  0.106737  0.100915  -0.002355  1.048563  -0.003
H  H3  1  0.83738782  0.31302076  0.50801503  1  0.106648  0.101427  -0.002353  1.048122  -0.003
H  H4  1  0.47677824  0.31314932  0.50803802  1  0.106704  0.100824  -0.002356  1.048555  -0.003
H  H5  1  0.16263565  0.68699369  0.49197674  1  0.106733  0.101468  -0.002352  1.048157  -0.003
H  H6  1  0.89140995  0.42307017  0.13374091  1  0.08898  0.10559  -0.000337  1.047586  0.0
H  H7  1  0.46932385  0.57680039  0.86636948  1  0.089151  0.106028  -0.000335  1.04842  0.0
H  H8  1  0.10855449  0.57688416  0.86627711  1  0.088977  0.105647  -0.000337  1.047369  0.0
H  H9  1  0.53066768  0.42321096  0.13362917  1  0.089146  0.105968  -0.000335  1.048455  0.0
H  H10  1  0.95692539  0.19389078  0.92304870  1  0.097165  0.097437  -3.5e-05  1.060947  -0.001
H  H11  1  0.76390801  0.80606371  0.07734747  1  0.097104  0.096727  -3e-05  1.061837  -0.001
H  H12  1  0.04304426  0.80604507  0.07698053  1  0.097134  0.097466  -3.4e-05  1.061016  -0.001
H  H13  1  0.23610166  0.19394919  0.92264720  1  0.097111  0.096752  -3e-05  1.061959  -0.001
C  C14  1  0.49976980  0.79651532  0.58115165  1  0.058014  0.070252  -0.002647  3.871647  -0.003
C  C15  1  0.70414372  0.20338945  0.41886146  1  0.058237  0.069941  -0.002633  3.873832  -0.003
C  C16  1  0.50023882  0.20348679  0.41883544  1  0.058083  0.070377  -0.002648  3.872023  -0.003
C  C17  1  0.29587714  0.79663424  0.58112363  1  0.058144  0.069883  -0.002633  3.873624  -0.003
C  C18  1  0.76416783  0.32515627  0.03861574  1  -0.078615  -0.039262  -0.000158  3.928753  0.0
C  C19  1  0.43987367  0.67477015  0.96143825  1  -0.079176  -0.04056  -0.000166  3.929514  0.0
C  C20  1  0.23582920  0.67484585  0.96139602  1  -0.078578  -0.039172  -0.000159  3.928519  0.0
C  C21  1  0.56012376  0.32524429  0.03855352  1  -0.079216  -0.040477  -0.000166  3.929308  0.0
C  C22  1  0.80163668  0.19770023  0.92131702  1  -0.085033  -0.148198  -0.001667  3.964899  -0.002
C  C23  1  0.60477975  0.80224525  0.07876267  1  -0.084748  -0.146762  -0.001665  3.965137  -0.002
C  C24  1  0.19834136  0.80229571  0.07869132  1  -0.085034  -0.148166  -0.001668  3.964595  -0.002
C  C25  1  0.39521286  0.19775377  0.92122700  1  -0.084718  -0.14677  -0.001665  3.965273  -0.002
C  C26  1  0.63621440  0.06459456  0.79953956  1  0.117821  0.168085  -0.006778  3.946263  -0.007
C  C27  1  0.57233827  0.93533392  0.20048044  1  0.116622  0.166631  -0.006787  3.946924  -0.007
C  C28  1  0.36378206  0.93541217  0.20045706  1  0.117817  0.167933  -0.006777  3.946661  -0.007
C  C29  1  0.42766272  0.06467898  0.79951637  1  0.116651  0.166715  -0.006786  3.947009  -0.007
N  N30  1  0.66795681  0.93061703  0.68546047  1  -0.315473  -0.203918  -0.059126  3.569642  -0.075
N  N31  1  0.73813188  0.06930363  0.31456271  1  -0.314423  -0.202617  -0.059272  3.570152  -0.076
N  N32  1  0.33205161  0.06937893  0.31453929  1  -0.31548  -0.203919  -0.059127  3.570205  -0.075
N  N33  1  0.26189052  0.93072314  0.68542944  1  -0.314414  -0.202654  -0.059272  3.570103  -0.076
Cl  Cl34  1  0.12305740  0.24615985  0.63227148  1  -0.269173  -0.476577  -0.084074  1.391488  -0.101
Cl  Cl35  1  0.87693636  0.75382994  0.36772273  1  -0.269164  -0.47656  -0.084062  1.391427  -0.101
Cl  Cl36  1  0.81064625  0.62160920  0.72860776  1  -0.287279  -0.453503  -0.102821  1.222253  -0.122
Cl  Cl37  1  0.18935696  0.37838213  0.27139534  1  -0.287269  -0.453485  -0.102832  1.22221  -0.122
