# generated using pymatgen
data_BaH10C6(N2O3)4
_symmetry_space_group_name_H-M   'P 1'
_cell_length_a   6.49813041
_cell_length_b   10.01167254
_cell_length_c   13.46846414
_cell_angle_alpha   74.87975527
_cell_angle_beta   76.00116696
_cell_angle_gamma   71.07423539
_symmetry_Int_Tables_number   1
_chemical_formula_structural   BaH10C6(N2O3)4
_chemical_formula_sum   'Ba2 H20 C12 N16 O24'
_cell_volume   788.19680093
_cell_formula_units_Z   2
loop_
 _symmetry_equiv_pos_site_id
 _symmetry_equiv_pos_as_xyz
  1  'x, y, z'
loop_
 _atom_site_type_symbol
 _atom_site_label
 _atom_site_symmetry_multiplicity
 _atom_site_fract_x
 _atom_site_fract_y
 _atom_site_fract_z
 _atom_site_occupancy
 _atom_site_hle17_bader_spin_density
 _atom_site_hle17_ddec_charge
 _atom_site_hle17_ddec_spin_density
 _atom_site_hle17_ddec_sum_bond_order
 _atom_site_hle17_magmom
 _atom_site_hse06_10hf_bader_spin_density
 _atom_site_hse06_10hf_ddec_charge
 _atom_site_hse06_10hf_ddec_spin_density
 _atom_site_hse06_10hf_ddec_sum_bond_order
 _atom_site_hse06_10hf_magmom
 _atom_site_hse06_bader_spin_density
 _atom_site_hse06_ddec_charge
 _atom_site_hse06_ddec_spin_density
 _atom_site_hse06_ddec_sum_bond_order
 _atom_site_hse06_magmom
 _atom_site_pbe_bader_spin_density
 _atom_site_pbe_cm5_charge
 _atom_site_pbe_ddec_charge
 _atom_site_pbe_ddec_spin_density
 _atom_site_pbe_ddec_sum_bond_order
 _atom_site_pbe_magmom
Ba  Ba0  1  0.77458910  0.25001078  0.75001099  1  0  1.607017  0  1.129918  0  0  1.447449  0  1.533013  0  0  1.485292  0  1.489541  0  0  0.904062  1.419583  0  1.564511  0
Ba  Ba1  1  0.22541167  0.74998870  0.24998853  1  0  1.607011  0  1.129925  0  0  1.447441  0  1.533014  0  0  1.485286  0  1.489542  0  0  0.904043  1.419578  0  1.564512  0
H  H2  1  0.23973352  0.46513278  0.77008381  1  0  0.426658  0  0.852386  0  0  0.395856  0  0.924367  0  0  0.404675  0  0.911469  0  0  0.30697  0.389558  0  0.933628  0
H  H3  1  0.47474521  0.03503763  0.73003621  1  0  0.427662  0  0.849394  0  0  0.396728  0  0.922916  0  0  0.405555  0  0.909985  0  0  0.308167  0.390448  0  0.932132  0
H  H4  1  0.76026464  0.53486778  0.22991611  1  0  0.426655  0  0.852379  0  0  0.395854  0  0.924369  0  0  0.404671  0  0.911473  0  0  0.306969  0.389556  0  0.933629  0
H  H5  1  0.52525295  0.96496293  0.26996371  1  0  0.427718  0  0.849327  0  0  0.396783  0  0.922845  0  0  0.405605  0  0.909921  0  0  0.308189  0.390504  0  0.932059  0
H  H6  1  0.30856729  0.40130651  0.88248078  1  0  0.390461  0  0.935274  0  0  0.345983  0  1.022683  0  0  0.357591  0  1.006216  0  0  0.284317  0.337807  0  1.03426  0
H  H7  1  0.59240804  0.09868893  0.61760301  1  0  0.38995  0  0.936121  0  0  0.345121  0  1.023967  0  0  0.356755  0  1.007466  0  0  0.284053  0.337008  0  1.03542  0
H  H8  1  0.69143088  0.59869405  0.11751914  1  0  0.390457  0  0.935284  0  0  0.345983  0  1.022683  0  0  0.357592  0  1.006215  0  0  0.284309  0.337808  0  1.034261  0
H  H9  1  0.40759339  0.90131054  0.38239744  1  0  0.389971  0  0.936089  0  0  0.345144  0  1.023932  0  0  0.356778  0  1.007431  0  0  0.284066  0.337031  0  1.035385  0
H  H10  1  0.24451693  0.14354302  0.49984650  1  0  0.0945  0  0.936417  0  0  0.095161  0  1.009954  0  0  0.098419  0  1.006391  0  0  0.130057  0.092447  0  1.013388  0
H  H11  1  0.88793569  0.35681343  0.00002268  1  0  0.094188  0  0.936576  0  0  0.094095  0  1.010873  0  0  0.097317  0  1.007404  0  0  0.1305  0.091645  0  1.013629  0
H  H12  1  0.75548338  0.85645754  0.50015287  1  0  0.094484  0  0.936442  0  0  0.095151  0  1.009973  0  0  0.098409  0  1.006409  0  0  0.130057  0.092437  0  1.013407  0
H  H13  1  0.11206508  0.64318605  0.99997683  1  0  0.094168  0  0.936589  0  0  0.094078  0  1.010883  0  0  0.097299  0  1.007416  0  0  0.130507  0.09163  0  1.013639  0
H  H14  1  0.17316088  0.24104014  0.85431840  1  0  0.423911  0  0.877807  0  0  0.397964  0  0.934374  0  0  0.408386  0  0.919072  0  0  0.29554  0.390551  0  0.945232  0
H  H15  1  0.26864446  0.25904784  0.64566423  1  0  0.421992  0  0.880059  0  0  0.395805  0  0.936998  0  0  0.406281  0  0.921647  0  0  0.29465  0.388408  0  0.94787  0
H  H16  1  0.82684278  0.75895935  0.14567982  1  0  0.423834  0  0.877891  0  0  0.39788  0  0.934478  0  0  0.408302  0  0.919177  0  0  0.295501  0.390467  0  0.945338  0
H  H17  1  0.73135585  0.74095272  0.35433513  1  0  0.422032  0  0.88  0  0  0.395846  0  0.93694  0  0  0.406321  0  0.921589  0  0  0.294666  0.388448  0  0.947813  0
H  H18  1  0.17796181  0.07669134  0.89281268  1  0  0.419371  0  0.875689  0  0  0.386931  0  0.941174  0  0  0.397963  0  0.924688  0  0  0.298205  0.379133  0  0.95281  0
H  H19  1  0.14772379  0.42339357  0.60720964  1  0  0.420782  0  0.873947  0  0  0.388666  0  0.938754  0  0  0.39961  0  0.922396  0  0  0.298954  0.380351  0  0.951197  0
H  H20  1  0.82204110  0.92330814  0.10718628  1  0  0.419384  0  0.875677  0  0  0.386944  0  0.941165  0  0  0.397968  0  0.924689  0  0  0.298201  0.379146  0  0.952799  0
H  H21  1  0.85227652  0.57660699  0.39278973  1  0  0.420791  0  0.873937  0  0  0.388678  0  0.938736  0  0  0.399621  0  0.922379  0  0  0.298961  0.380365  0  0.95118  0
C  C22  1  0.20921330  0.04333989  0.54329084  1  0  0.267061  0  3.651123  0  0  0.209136  0  3.945111  0  0  0.217521  0  3.960607  0  0  0.153195  0.203436  0  3.935419  0
C  C23  1  0.79568553  0.45692355  0.95662765  1  0  0.265466  0  3.652268  0  0  0.207906  0  3.947071  0  0  0.216329  0  3.962493  0  0  0.150408  0.202356  0  3.936731  0
C  C24  1  0.79078813  0.95665958  0.45670960  1  0  0.267068  0  3.651136  0  0  0.209141  0  3.945113  0  0  0.217526  0  3.960607  0  0  0.153151  0.203442  0  3.935422  0
C  C25  1  0.20431403  0.54307701  0.04337246  1  0  0.265591  0  3.652191  0  0  0.20802  0  3.946997  0  0  0.216442  0  3.962418  0  0  0.150454  0.202468  0  3.936659  0
C  C26  1  0.10058151  0.88900414  0.66959465  1  0  0.140023  0  3.729912  0  0  0.091225  0  4.02349  0  0  0.094113  0  4.043031  0  0  0.195039  0.08944  0  4.010123  0
C  C27  1  0.65874324  0.61108247  0.83045588  1  0  0.136308  0  3.730046  0  0  0.08818  0  4.023002  0  0  0.091049  0  4.042678  0  0  0.194191  0.086172  0  4.010067  0
C  C28  1  0.89941991  0.11099534  0.33040580  1  0  0.140066  0  3.729866  0  0  0.091217  0  4.023488  0  0  0.094104  0  4.043031  0  0  0.195  0.089431  0  4.010121  0
C  C29  1  0.34125538  0.38891701  0.16954420  1  0  0.136309  0  3.73008  0  0  0.08817  0  4.023031  0  0  0.091037  0  4.04271  0  0  0.194184  0.086161  0  4.010094  0
C  C30  1  0.20230349  0.82371897  0.58154593  1  0  0.116569  0  3.723884  0  0  0.063515  0  4.019216  0  0  0.062299  0  4.040593  0  0  0.188303  0.063839  0  4.004813  0
C  C31  1  0.60708337  0.67640813  0.91846528  1  0  0.117051  0  3.723121  0  0  0.063729  0  4.019222  0  0  0.062475  0  4.040634  0  0  0.18766  0.064232  0  4.005048  0
C  C32  1  0.79769533  0.17628158  0.41845492  1  0  0.116523  0  3.723958  0  0  0.063517  0  4.019236  0  0  0.062298  0  4.040618  0  0  0.188304  0.063842  0  4.004833  0
C  C33  1  0.39291619  0.32359243  0.08153482  1  0  0.116907  0  3.723238  0  0  0.063628  0  4.019258  0  0  0.062372  0  4.040683  0  0  0.187611  0.064133  0  4.005079  0
N  N34  1  0.10322504  0.02768483  0.64371041  1  0  -0.432115  0  3.070259  0  0  -0.390657  0  3.36039  0  0  -0.405639  0  3.377585  0  0  -0.368427  -0.38041  0  3.349248  0
N  N35  1  0.77436650  0.47246750  0.85628412  1  0  -0.42926  0  3.068183  0  0  -0.387722  0  3.357569  0  0  -0.402805  0  3.374851  0  0  -0.366171  -0.37752  0  3.346184  0
N  N36  1  0.89677778  0.97231465  0.35629022  1  0  -0.43214  0  3.070204  0  0  -0.390674  0  3.36035  0  0  -0.405655  0  3.377546  0  0  -0.368389  -0.380428  0  3.349209  0
N  N37  1  0.22563212  0.52753197  0.14371595  1  0  -0.429334  0  3.068177  0  0  -0.387807  0  3.357589  0  0  -0.402891  0  3.37487  0  0  -0.366237  -0.377607  0  3.346207  0
N  N38  1  0.26906055  0.92449213  0.50253958  1  0  -0.381708  0  3.104152  0  0  -0.329172  0  3.375091  0  0  -0.343406  0  3.392429  0  0  -0.310275  -0.319072  0  3.363207  0
N  N39  1  0.69580622  0.57573648  0.99739445  1  0  -0.380812  0  3.103921  0  0  -0.328261  0  3.374787  0  0  -0.34251  0  3.392184  0  0  -0.308425  -0.318362  0  3.362988  0
N  N40  1  0.73094301  0.07550735  0.49746031  1  0  -0.381653  0  3.104079  0  0  -0.329126  0  3.375018  0  0  -0.34336  0  3.392358  0  0  -0.310223  -0.319027  0  3.363135  0
N  N41  1  0.30419380  0.42426299  0.00260581  1  0  -0.380814  0  3.103964  0  0  -0.328246  0  3.374793  0  0  -0.342497  0  3.392193  0  0  -0.308413  -0.318346  0  3.362993  0
N  N42  1  0.01559255  0.83346253  0.77551465  1  0  0.465923  0  3.973617  0  0  0.524334  0  4.236638  0  0  0.546994  0  4.240638  0  0  0.057144  0.509044  0  4.233657  0
N  N43  1  0.62435940  0.66654425  0.72454711  1  0  0.466642  0  3.970213  0  0  0.525231  0  4.232506  0  0  0.547833  0  4.236551  0  0  0.057682  0.509886  0  4.229854  0
N  N44  1  0.98440607  0.16653694  0.22448542  1  0  0.465956  0  3.973707  0  0  0.524374  0  4.236726  0  0  0.547032  0  4.24073  0  0  0.057168  0.509085  0  4.233743  0
N  N45  1  0.37564016  0.33345631  0.27545300  1  0  0.46674  0  3.970097  0  0  0.525307  0  4.232401  0  0  0.547907  0  4.236451  0  0  0.057716  0.509962  0  4.229751  0
N  N46  1  0.21631250  0.68832219  0.56181633  1  0  0.478468  0  3.971123  0  0  0.533813  0  4.228146  0  0  0.557071  0  4.233859  0  0  0.062388  0.518341  0  4.223967  0
N  N47  1  0.46611682  0.81178436  0.93825504  1  0  0.480489  0  3.971438  0  0  0.53455  0  4.230325  0  0  0.557973  0  4.235906  0  0  0.061205  0.519021  0  4.226486  0
N  N48  1  0.78369078  0.31167621  0.43818446  1  0  0.478469  0  3.97124  0  0  0.533806  0  4.228248  0  0  0.557059  0  4.233967  0  0  0.062361  0.518333  0  4.224068  0
N  N49  1  0.53388227  0.18821404  0.06174518  1  0  0.480547  0  3.971457  0  0  0.534615  0  4.23029  0  0  0.558021  0  4.235893  0  0  0.061272  0.51909  0  4.226447  0
O  O50  1  0.87466093  0.92013764  0.82681242  1  0  -0.364188  0  1.773463  0  0  -0.359476  0  1.982992  0  0  -0.371902  0  1.977129  0  0  -0.12629  -0.350929  0  1.987124  0
O  O51  1  0.62167281  0.57979144  0.67327394  1  0  -0.364514  0  1.771174  0  0  -0.359638  0  1.980711  0  0  -0.372032  0  1.974867  0  0  -0.126665  -0.351113  0  1.984819  0
O  O52  1  0.12533770  0.07986184  0.17318765  1  0  -0.36421  0  1.773468  0  0  -0.359495  0  1.982983  0  0  -0.371922  0  1.977123  0  0  -0.126299  -0.350948  0  1.987114  0
O  O53  1  0.37832703  0.42021020  0.32672527  1  0  -0.364587  0  1.771153  0  0  -0.359695  0  1.980666  0  0  -0.372089  0  1.974825  0  0  -0.126699  -0.351169  0  1.984776  0
O  O54  1  0.07841167  0.17435813  0.87862144  1  0  -0.877882  0  1.812147  0  0  -0.824475  0  1.985715  0  0  -0.843712  0  1.954089  0  0  -0.642913  -0.810651  0  2.007989  0
O  O55  1  0.13166432  0.32570906  0.62132036  1  0  -0.877915  0  1.812493  0  0  -0.824443  0  1.986179  0  0  -0.843704  0  1.95463  0  0  -0.642921  -0.810294  0  2.009526  0
O  O56  1  0.92159255  0.82564029  0.12137526  1  0  -0.877801  0  1.812169  0  0  -0.824385  0  1.985714  0  0  -0.843623  0  1.954103  0  0  -0.64286  -0.810562  0  2.007985  0
O  O57  1  0.86833645  0.67429042  0.37867915  1  0  -0.877963  0  1.812437  0  0  -0.824499  0  1.986124  0  0  -0.84376  0  1.954576  0  0  -0.642942  -0.810351  0  2.009467  0
O  O58  1  0.09026717  0.70338371  0.81225773  1  0  -0.344064  0  1.803158  0  0  -0.33926  0  2.01461  0  0  -0.350557  0  2.011135  0  0  -0.121526  -0.331263  0  2.016993  0
O  O59  1  0.60570746  0.79662868  0.68778024  1  0  -0.342504  0  1.801734  0  0  -0.338867  0  2.0144  0  0  -0.350256  0  2.011161  0  0  -0.12145  -0.330907  0  2.016771  0
O  O60  1  0.90973331  0.29661469  0.18774268  1  0  -0.34408  0  1.803247  0  0  -0.339285  0  2.01471  0  0  -0.350584  0  2.011239  0  0  -0.121542  -0.331287  0  2.017089  0
O  O61  1  0.39429210  0.20337187  0.31221986  1  0  -0.342536  0  1.801699  0  0  -0.338871  0  2.014346  0  0  -0.350263  0  2.011112  0  0  -0.121454  -0.330911  0  2.016716  0
O  O62  1  0.31962045  0.37720822  0.81243650  1  0  -0.87149  0  1.907905  0  0  -0.810705  0  2.108695  0  0  -0.83173  0  2.078426  0  0  -0.606112  -0.795501  0  2.129888  0
O  O63  1  0.50931588  0.12291874  0.68764281  1  0  -0.87207  0  1.90625  0  0  -0.81087  0  2.108578  0  0  -0.831978  0  2.078366  0  0  -0.6074  -0.795674  0  2.129415  0
O  O64  1  0.68037911  0.62279234  0.18756361  1  0  -0.871494  0  1.907931  0  0  -0.810703  0  2.108715  0  0  -0.831727  0  2.078449  0  0  -0.606101  -0.795496  0  2.129908  0
O  O65  1  0.49068443  0.87708182  0.31235655  1  0  -0.872142  0  1.906173  0  0  -0.810947  0  2.10851  0  0  -0.832054  0  2.078306  0  0  -0.607432  -0.795748  0  2.12934  0
O  O66  1  0.12934886  0.60352828  0.63257019  1  0  -0.392132  0  1.836875  0  0  -0.371829  0  2.03686  0  0  -0.386275  0  2.031166  0  0  -0.124415  -0.361805  0  2.04124  0
O  O67  1  0.36522595  0.89664529  0.86756700  1  0  -0.392997  0  1.839437  0  0  -0.371342  0  2.039439  0  0  -0.3861  0  2.034009  0  0  -0.124488  -0.361289  0  2.043414  0
O  O68  1  0.87064996  0.39647227  0.36743066  1  0  -0.392086  0  1.836873  0  0  -0.371807  0  2.036861  0  0  -0.386238  0  2.031155  0  0  -0.124393  -0.361787  0  2.04125  0
O  O69  1  0.63477333  0.10335419  0.13243401  1  0  -0.393002  0  1.839415  0  0  -0.37137  0  2.039396  0  0  -0.386088  0  2.033934  0  0  -0.124507  -0.361325  0  2.043372  0
O  O70  1  0.30901670  0.66003531  0.47434082  1  0  -0.362752  0  1.77402  0  0  -0.341756  0  1.968491  0  0  -0.3539  0  1.962668  0  0  -0.122905  -0.33326  0  1.972616  0
O  O71  1  0.44313728  0.84002698  0.02572237  1  0  -0.364086  0  1.77296  0  0  -0.342915  0  1.968416  0  0  -0.355007  0  1.962535  0  0  -0.122305  -0.334666  0  1.973033  0
O  O72  1  0.69098844  0.33996201  0.52566031  1  0  -0.362797  0  1.774065  0  0  -0.341777  0  1.968539  0  0  -0.35392  0  1.962716  0  0  -0.122904  -0.333281  0  1.972664  0
O  O73  1  0.55686246  0.15997142  0.97427879  1  0  -0.364046  0  1.773012  0  0  -0.342881  0  1.96848  0  0  -0.354963  0  1.962599  0  0  -0.122297  -0.334635  0  1.973098  0
