# generated using pymatgen
data_ZnH12C15N2Cl3O4
_symmetry_space_group_name_H-M   'P 1'
_cell_length_a   8.22274675
_cell_length_b   10.48883862
_cell_length_c   11.09079259
_cell_angle_alpha   71.28456377
_cell_angle_beta   78.46138335
_cell_angle_gamma   73.46620693
_symmetry_Int_Tables_number   1
_chemical_formula_structural   ZnH12C15N2Cl3O4
_chemical_formula_sum   'Zn2 H24 C30 N4 Cl6 O8'
_cell_volume   862.26151088
_cell_formula_units_Z   2
loop_
 _symmetry_equiv_pos_site_id
 _symmetry_equiv_pos_as_xyz
  1  'x, y, z'
loop_
 _atom_site_type_symbol
 _atom_site_label
 _atom_site_symmetry_multiplicity
 _atom_site_fract_x
 _atom_site_fract_y
 _atom_site_fract_z
 _atom_site_occupancy
 _atom_site_hle17_bader_spin_density
 _atom_site_hle17_ddec_charge
 _atom_site_hle17_ddec_spin_density
 _atom_site_hle17_ddec_sum_bond_order
 _atom_site_hle17_magmom
 _atom_site_hse06_10hf_bader_spin_density
 _atom_site_hse06_10hf_ddec_charge
 _atom_site_hse06_10hf_ddec_spin_density
 _atom_site_hse06_10hf_ddec_sum_bond_order
 _atom_site_hse06_10hf_magmom
 _atom_site_hse06_bader_spin_density
 _atom_site_hse06_ddec_charge
 _atom_site_hse06_ddec_spin_density
 _atom_site_hse06_ddec_sum_bond_order
 _atom_site_hse06_magmom
 _atom_site_pbe_bader_spin_density
 _atom_site_pbe_cm5_charge
 _atom_site_pbe_ddec_charge
 _atom_site_pbe_ddec_spin_density
 _atom_site_pbe_ddec_sum_bond_order
 _atom_site_pbe_magmom
Zn  Zn0  1  0.37838940  0.90157311  0.90494461  1  0  1.086971  0  1.794065  0  0  0.90961  0  2.264277  0  0  0.95866  0  2.205175  0  0  0.685862  0.874557  0  2.305588  0
Zn  Zn1  1  0.62161716  0.09843074  0.09505537  1  0  1.087005  0  1.793929  0  0  0.909671  0  2.264081  0  0  0.958722  0  2.204971  0  0  0.68583  0.874616  0  2.305395  0
H  H2  1  0.88113279  0.47009334  0.64227200  1  0  0.121123  0  0.943896  0  0  0.131203  0  1.006074  0  0  0.134587  0  1.003164  0  0  0.101584  0.128724  0  1.008264  0
H  H3  1  0.11886700  0.52989827  0.35774708  1  0  0.121107  0  0.944008  0  0  0.131167  0  1.006205  0  0  0.134553  0  1.003296  0  0  0.101563  0.128688  0  1.008394  0
H  H4  1  0.42226579  0.60135007  0.03324602  1  0  0.077668  0  0.9796  0  0  0.08294  0  1.051905  0  0  0.085327  0  1.05002  0  0  0.108978  0.081107  0  1.053506  0
H  H5  1  0.57772760  0.39865285  0.96673985  1  0  0.077614  0  0.979585  0  0  0.082899  0  1.051866  0  0  0.085253  0  1.050077  0  0  0.108938  0.081067  0  1.053464  0
H  H6  1  0.27609185  0.41392499  0.07073138  1  0  0.115049  0  0.957723  0  0  0.125255  0  1.017032  0  0  0.128969  0  1.015135  0  0  0.10796  0.122646  0  1.018288  0
H  H7  1  0.72390009  0.58608312  0.92925493  1  0  0.115182  0  0.957541  0  0  0.125288  0  1.016963  0  0  0.128988  0  1.015083  0  0  0.107993  0.12268  0  1.018215  0
H  H8  1  0.84921537  0.72946818  0.90288575  1  0  0.113038  0  0.955684  0  0  0.123727  0  1.013807  0  0  0.127013  0  1.012651  0  0  0.107593  0.121335  0  1.014955  0
H  H9  1  0.15077610  0.27054614  0.09709964  1  0  0.112935  0  0.955792  0  0  0.123599  0  1.013994  0  0  0.126901  0  1.012806  0  0  0.107509  0.121207  0  1.015128  0
H  H10  1  0.01914053  0.90204323  0.86818957  1  0  0.088893  0  0.960272  0  0  0.091979  0  1.031767  0  0  0.095639  0  1.027965  0  0  0.111137  0.089647  0  1.033704  0
H  H11  1  0.98085838  0.09796588  0.13180988  1  0  0.088994  0  0.960239  0  0  0.092069  0  1.031727  0  0  0.095727  0  1.027926  0  0  0.111185  0.089737  0  1.033663  0
H  H12  1  0.65875216  0.98610636  0.68658420  1  0  0.056481  0  0.943051  0  0  0.064479  0  1.011429  0  0  0.066945  0  1.005707  0  0  0.12352  0.062386  0  1.015737  0
H  H13  1  0.34124722  0.01390167  0.31340379  1  0  0.056453  0  0.942993  0  0  0.064419  0  1.011409  0  0  0.066874  0  1.005698  0  0  0.12351  0.062326  0  1.015719  0
H  H14  1  0.81671163  0.03697307  0.50626689  1  0  0.100256  0  0.943079  0  0  0.120381  0  1.006334  0  0  0.121123  0  1.00602  0  0  0.105461  0.119775  0  1.006456  0
H  H15  1  0.18328867  0.96302256  0.49372475  1  0  0.100169  0  0.943065  0  0  0.120336  0  1.006307  0  0  0.121081  0  1.00599  0  0  0.105454  0.119731  0  1.006429  0
H  H16  1  0.74636151  0.01687288  0.37236026  1  0  0.112923  0  0.944426  0  0  0.131504  0  1.007708  0  0  0.132515  0  1.007746  0  0  0.105387  0.130816  0  1.007494  0
H  H17  1  0.25363901  0.98311245  0.62764260  1  0  0.113005  0  0.944353  0  0  0.13162  0  1.00759  0  0  0.132633  0  1.00763  0  0  0.105404  0.130929  0  1.007382  0
H  H18  1  0.92250294  0.89219926  0.44412150  1  0  0.091909  0  0.982832  0  0  0.105772  0  1.058487  0  0  0.106467  0  1.058562  0  0  0.088193  0.105155  0  1.058429  0
H  H19  1  0.07748957  0.10778823  0.55588002  1  0  0.0919  0  0.982779  0  0  0.105781  0  1.058399  0  0  0.106478  0  1.058471  0  0  0.088183  0.105164  0  1.058337  0
H  H20  1  0.53299105  0.74182099  0.57928009  1  0  0.114054  0  0.955034  0  0  0.129462  0  1.022198  0  0  0.131595  0  1.020047  0  0  0.104582  0.127851  0  1.023743  0
H  H21  1  0.46699204  0.25816872  0.42073020  1  0  0.11391  0  0.955185  0  0  0.129314  0  1.022365  0  0  0.131446  0  1.020205  0  0  0.104525  0.127704  0  1.023908  0
H  H22  1  0.74939245  0.69083324  0.50975333  1  0  0.097243  0  0.95264  0  0  0.115427  0  1.022303  0  0  0.114752  0  1.02417  0  0  0.097418  0.115717  0  1.021162  0
H  H23  1  0.25059768  0.30916672  0.49025826  1  0  0.09735  0  0.952603  0  0  0.115481  0  1.022286  0  0  0.114801  0  1.024158  0  0  0.097484  0.115771  0  1.021144  0
H  H24  1  0.60051051  0.82321363  0.41463538  1  0  0.102359  0  0.951302  0  0  0.12232  0  1.015758  0  0  0.121995  0  1.017087  0  0  0.103241  0.12233  0  1.015122  0
H  H25  1  0.39948957  0.17678206  0.58537070  1  0  0.102317  0  0.951354  0  0  0.122299  0  1.015767  0  0  0.121975  0  1.017091  0  0  0.103265  0.122308  0  1.015132  0
C  C26  1  0.29053147  0.25772905  0.80538502  1  0  -0.250025  0  3.734239  0  0  -0.234565  0  3.979989  0  0  -0.247527  0  4.000225  0  0  -0.045564  -0.226712  0  3.967052  0
C  C27  1  0.70947998  0.74227061  0.19461463  1  0  -0.249892  0  3.734136  0  0  -0.234477  0  3.979835  0  0  -0.247442  0  4.000068  0  0  -0.045607  -0.226636  0  3.96692  0
C  C28  1  0.16426748  0.18693215  0.80735311  1  0  0.306604  0  3.917614  0  0  0.281468  0  4.179479  0  0  0.298311  0  4.195269  0  0  0.079151  0.270049  0  4.16865  0
C  C29  1  0.83575057  0.81306637  0.19264055  1  0  0.306368  0  3.917839  0  0  0.281294  0  4.179634  0  0  0.298138  0  4.195426  0  0  0.0791  0.269879  0  4.168805  0
C  C30  1  0.01491647  0.27037315  0.74856079  1  0  0.018621  0  3.758023  0  0  0.028893  0  4.033439  0  0  0.026184  0  4.05425  0  0  -0.011075  0.030802  0  4.019314  0
C  C31  1  0.98509204  0.72962346  0.25144382  1  0  0.018734  0  3.758209  0  0  0.028979  0  4.033595  0  0  0.026277  0  4.054394  0  0  -0.011046  0.030886  0  4.019476  0
C  C32  1  0.99588828  0.41083188  0.68749063  1  0  -0.174568  0  3.821039  0  0  -0.213831  0  4.089966  0  0  -0.211595  0  4.108052  0  0  -0.112337  -0.21489  0  4.07749  0
C  C33  1  0.00412030  0.58916471  0.31250946  1  0  -0.174624  0  3.821222  0  0  -0.213851  0  4.090158  0  0  -0.211603  0  4.108213  0  0  -0.112334  -0.214913  0  4.077677  0
C  C34  1  0.12502196  0.47588603  0.68179656  1  0  0.044323  0  3.834035  0  0  0.050786  0  4.11388  0  0  0.04907  0  4.135657  0  0  -0.018552  0.051772  0  4.099044  0
C  C35  1  0.87498976  0.52410844  0.31819833  1  0  0.044454  0  3.833861  0  0  0.050868  0  4.113776  0  0  0.049154  0  4.135556  0  0  -0.01847  0.051868  0  4.098923  0
C  C36  1  0.27216927  0.39905097  0.74089101  1  0  0.082524  0  3.800232  0  0  0.074773  0  4.073162  0  0  0.081896  0  4.093133  0  0  0.002574  0.070017  0  4.05988  0
C  C37  1  0.72784471  0.60094864  0.25910560  1  0  0.08241  0  3.800281  0  0  0.074662  0  4.073241  0  0  0.081783  0  4.093216  0  0  0.002498  0.069906  0  4.059957  0
C  C38  1  0.43745144  0.17460794  0.88027075  1  0  0.699454  0  3.886359  0  0  0.641676  0  4.184318  0  0  0.679178  0  4.17242  0  0  0.207935  0.616278  0  4.191648  0
C  C39  1  0.56256747  0.82538747  0.11972284  1  0  0.69923  0  3.886315  0  0  0.641557  0  4.184098  0  0  0.679063  0  4.172198  0  0  0.207834  0.616154  0  4.191439  0
C  C40  1  0.29658272  0.62370092  0.00305202  1  0  0.123279  0  3.721013  0  0  0.089327  0  3.977219  0  0  0.095928  0  3.995817  0  0  0.039262  0.08449  0  3.964985  0
C  C41  1  0.70339834  0.37630533  0.99695262  1  0  0.123451  0  3.721066  0  0  0.089502  0  3.977279  0  0  0.096097  0  3.995856  0  0  0.039343  0.084662  0  3.965046  0
C  C42  1  0.21156847  0.52008483  0.02593568  1  0  -0.148441  0  3.694571  0  0  -0.168999  0  3.947208  0  0  -0.176523  0  3.967795  0  0  -0.082789  -0.163403  0  3.933046  0
C  C43  1  0.78841755  0.47992136  0.97406918  1  0  -0.14868  0  3.694572  0  0  -0.169181  0  3.947233  0  0  -0.176696  0  3.967821  0  0  -0.082888  -0.163582  0  3.933071  0
C  C44  1  0.04754282  0.55359659  0.98876537  1  0  0.097925  0  3.736198  0  0  0.108056  0  3.970254  0  0  0.111598  0  3.992815  0  0  0.012974  0.105372  0  3.955821  0
C  C45  1  0.95244060  0.44641478  0.01123378  1  0  0.097914  0  3.7363  0  0  0.108153  0  3.970251  0  0  0.111707  0  3.992801  0  0  0.013037  0.105466  0  3.95582  0
C  C46  1  0.97764830  0.69408123  0.93076552  1  0  -0.146993  0  3.689544  0  0  -0.16732  0  3.94131  0  0  -0.175016  0  3.962731  0  0  -0.080403  -0.163366  0  3.928621  0
C  C47  1  0.02234960  0.30592783  0.06921876  1  0  -0.146835  0  3.689686  0  0  -0.167222  0  3.941486  0  0  -0.174924  0  3.962909  0  0  -0.080373  -0.163262  0  3.928793  0
C  C48  1  0.07103834  0.79198425  0.91062358  1  0  0.141534  0  3.681068  0  0  0.110607  0  3.932595  0  0  0.117991  0  3.949144  0  0  0.046854  0.105719  0  3.921849  0
C  C49  1  0.92896302  0.20802068  0.08937228  1  0  0.141447  0  3.681213  0  0  0.110545  0  3.932769  0  0  0.117928  0  3.949321  0  0  0.046824  0.105656  0  3.922025  0
C  C50  1  0.61846438  0.90450275  0.66573699  1  0  0.386353  0  3.789539  0  0  0.312146  0  4.072575  0  0  0.340569  0  4.072463  0  0  0.175462  0.293112  0  4.072385  0
C  C51  1  0.38153525  0.09549913  0.33426636  1  0  0.386495  0  3.789506  0  0  0.312334  0  4.072513  0  0  0.340761  0  4.072401  0  0  0.175493  0.293298  0  4.072325  0
C  C52  1  0.79871779  0.96159427  0.46381865  1  0  -0.179102  0  3.645942  0  0  -0.279004  0  3.892299  0  0  -0.276146  0  3.903386  0  0  -0.136024  -0.280334  0  3.88428  0
C  C53  1  0.20127536  0.03839529  0.53618485  1  0  -0.178957  0  3.64556  0  0  -0.278948  0  3.891956  0  0  -0.276097  0  3.90304  0  0  -0.135954  -0.280277  0  3.88394  0
C  C54  1  0.63800660  0.77832842  0.51188272  1  0  -0.173404  0  3.624227  0  0  -0.27331  0  3.866336  0  0  -0.269768  0  3.877491  0  0  -0.138059  -0.275393  0  3.858896  0
C  C55  1  0.36197904  0.22166540  0.48812956  1  0  -0.173299  0  3.624383  0  0  -0.273155  0  3.86649  0  0  -0.269602  0  3.877638  0  0  -0.138109  -0.27524  0  3.85905  0
N  N56  1  0.22917915  0.75750777  0.94525928  1  0  -0.329549  0  3.286522  0  0  -0.250596  0  3.558061  0  0  -0.268788  0  3.572768  0  0  -0.328812  -0.238302  0  3.548894  0
N  N57  1  0.77080806  0.24249842  0.05474902  1  0  -0.329664  0  3.286726  0  0  -0.250695  0  3.558253  0  0  -0.268885  0  3.572955  0  0  -0.32884  -0.2384  0  3.549086  0
N  N58  1  0.68211446  0.88243958  0.55195102  1  0  -0.080422  0  3.515161  0  0  0.024293  0  3.747764  0  0  0.003889  0  3.773932  0  0  -0.280173  0.037799  0  3.729743  0
N  N59  1  0.31787688  0.11755622  0.44805715  1  0  -0.080726  0  3.515179  0  0  0.023935  0  3.74786  0  0  0.00353  0  3.774024  0  0  -0.280283  0.037444  0  3.729842  0
Cl  Cl60  1  0.85417592  0.19098304  0.75544856  1  0  -0.07376  0  1.44333  0  0  -0.060654  0  1.696078  0  0  -0.063251  0  1.68977  0  0  0.004791  -0.058256  0  1.700025  0
Cl  Cl61  1  0.14583415  0.80900740  0.24456672  1  0  -0.073719  0  1.443233  0  0  -0.060607  0  1.695997  0  0  -0.063211  0  1.689685  0  0  0.00483  -0.058209  0  1.699947  0
Cl  Cl62  1  0.09892345  0.65052121  0.60240895  1  0  -0.101763  0  1.420629  0  0  -0.087467  0  1.659825  0  0  -0.090034  0  1.65568  0  0  -0.010509  -0.084918  0  1.662541  0
Cl  Cl63  1  0.90106575  0.34947773  0.39760127  1  0  -0.101813  0  1.420512  0  0  -0.087502  0  1.659719  0  0  -0.09007  0  1.655572  0  0  -0.010543  -0.084958  0  1.662427  0
Cl  Cl64  1  0.43473216  0.47873419  0.72854702  1  0  -0.069867  0  1.412358  0  0  -0.054326  0  1.65002  0  0  -0.055641  0  1.643268  0  0  0.005969  -0.053364  0  1.654781  0
Cl  Cl65  1  0.56528593  0.52126943  0.27143066  1  0  -0.069801  0  1.412395  0  0  -0.054261  0  1.650084  0  0  -0.055582  0  1.643327  0  0  0.006007  -0.053298  0  1.654845  0
O  O66  1  0.52612332  0.06256024  0.85747859  1  0  -0.655525  0  2.028895  0  0  -0.593818  0  2.28505  0  0  -0.620189  0  2.269781  0  0  -0.322819  -0.575086  0  2.294822  0
O  O67  1  0.47390062  0.93742998  0.14252489  1  0  -0.655422  0  2.028842  0  0  -0.59379  0  2.285004  0  0  -0.620148  0  2.269705  0  0  -0.322712  -0.575054  0  2.294779  0
O  O68  1  0.17722300  0.05495909  0.86105955  1  0  -0.627136  0  2.158712  0  0  -0.558945  0  2.444288  0  0  -0.587426  0  2.435271  0  0  -0.344895  -0.5388  0  2.4496  0
O  O69  1  0.82279141  0.94504361  0.13893336  1  0  -0.627102  0  2.158663  0  0  -0.558932  0  2.444213  0  0  -0.587411  0  2.435188  0  0  -0.344913  -0.538786  0  2.449527  0
O  O70  1  0.45872336  0.21990509  0.96878092  1  0  -0.633126  0  2.097735  0  0  -0.562363  0  2.374352  0  0  -0.592279  0  2.360432  0  0  -0.309528  -0.541148  0  2.382879  0
O  O71  1  0.54128405  0.78009150  0.03121393  1  0  -0.633045  0  2.097849  0  0  -0.562286  0  2.374364  0  0  -0.592211  0  2.360444  0  0  -0.309497  -0.541066  0  2.382889  0
O  O72  1  0.51634320  0.83960978  0.74530284  1  0  -0.534873  0  2.102755  0  0  -0.470874  0  2.372053  0  0  -0.495999  0  2.360809  0  0  -0.304304  -0.453472  0  2.379305  0
O  O73  1  0.48363985  0.16040265  0.25470144  1  0  -0.534896  0  2.102754  0  0  -0.470878  0  2.371985  0  0  -0.496012  0  2.360759  0  0  -0.304288  -0.453478  0  2.37924  0
