# generated using pymatgen
data_MgCd2P2H4(CO3)4
_symmetry_space_group_name_H-M   'P 1'
_cell_length_a   5.08204904
_cell_length_b   8.94230628
_cell_length_c   12.53268789
_cell_angle_alpha   90.00008426
_cell_angle_beta   89.99945196
_cell_angle_gamma   104.36044205
_symmetry_Int_Tables_number   1
_chemical_formula_structural   MgCd2P2H4(CO3)4
_chemical_formula_sum   'Mg2 Cd4 P4 H8 C8 O24'
_cell_volume   551.75516540
_cell_formula_units_Z   2
loop_
 _symmetry_equiv_pos_site_id
 _symmetry_equiv_pos_as_xyz
  1  'x, y, z'
loop_
 _atom_site_type_symbol
 _atom_site_label
 _atom_site_symmetry_multiplicity
 _atom_site_fract_x
 _atom_site_fract_y
 _atom_site_fract_z
 _atom_site_occupancy
 _atom_site_hle17_bader_spin_density
 _atom_site_hle17_ddec_charge
 _atom_site_hle17_ddec_spin_density
 _atom_site_hle17_ddec_sum_bond_order
 _atom_site_hle17_magmom
 _atom_site_hse06_10hf_bader_spin_density
 _atom_site_hse06_10hf_ddec_charge
 _atom_site_hse06_10hf_ddec_spin_density
 _atom_site_hse06_10hf_ddec_sum_bond_order
 _atom_site_hse06_10hf_magmom
 _atom_site_hse06_bader_spin_density
 _atom_site_hse06_ddec_charge
 _atom_site_hse06_ddec_spin_density
 _atom_site_hse06_ddec_sum_bond_order
 _atom_site_hse06_magmom
 _atom_site_pbe_bader_spin_density
 _atom_site_pbe_cm5_charge
 _atom_site_pbe_ddec_charge
 _atom_site_pbe_ddec_spin_density
 _atom_site_pbe_ddec_sum_bond_order
 _atom_site_pbe_magmom
Mg  Mg0  1  0.50000021  0.50000067  0.49999981  1  0  1.609742  0  1.006079  0  0  1.504145  0  1.248521  0  0  1.52634  0  1.214294  0  0  0.830707  1.487263  0  1.274584  0
Mg  Mg1  1  0.99999967  0.99999979  0.00000025  1  0  1.609734  0  1.006082  0  0  1.504227  0  1.248397  0  0  1.526422  0  1.214176  0  0  0.830719  1.48735  0  1.274458  0
Cd  Cd2  1  0.35642047  0.13520135  0.57204347  1  0  1.313531  0  1.619887  0  0  1.149715  0  2.052996  0  0  1.203158  0  1.995117  0  0  0.82861  1.108982  0  2.09462  0
Cd  Cd3  1  0.14358243  0.36480039  0.07204275  1  0  1.313578  0  1.619813  0  0  1.149758  0  2.052915  0  0  1.203201  0  1.995039  0  0  0.828623  1.109029  0  2.094539  0
Cd  Cd4  1  0.64357798  0.86479998  0.42795695  1  0  1.313582  0  1.619824  0  0  1.149761  0  2.052928  0  0  1.203203  0  1.99505  0  0  0.828635  1.109029  0  2.094551  0
Cd  Cd5  1  0.85641703  0.63519865  0.92795687  1  0  1.313563  0  1.619826  0  0  1.149753  0  2.052923  0  0  1.2032  0  1.995045  0  0  0.828622  1.109021  0  2.094546  0
P  P6  1  0.59980054  0.24328212  0.93419043  1  0  1.500812  0  4.86483  0  0  1.332528  0  5.368982  0  0  1.382793  0  5.331936  0  0  0.331215  1.29706  0  5.394165  0
P  P7  1  0.90020373  0.25671525  0.43419575  1  0  1.500806  0  4.864911  0  0  1.332436  0  5.36921  0  0  1.38268  0  5.332199  0  0  0.331151  1.29697  0  5.394378  0
P  P8  1  0.40020138  0.75671809  0.06580998  1  0  1.500683  0  4.864927  0  0  1.332353  0  5.369182  0  0  1.382606  0  5.332154  0  0  0.331122  1.296884  0  5.394365  0
P  P9  1  0.09979472  0.74328608  0.56580546  1  0  1.500733  0  4.864947  0  0  1.332394  0  5.369188  0  0  1.382644  0  5.33216  0  0  0.331142  1.296926  0  5.394353  0
H  H10  1  0.79432800  0.10672838  0.72709473  1  0  0.394483  0  0.892006  0  0  0.366813  0  0.965486  0  0  0.378259  0  0.953015  0  0  0.302565  0.358926  0  0.97394  0
H  H11  1  0.70567138  0.39326926  0.22709619  1  0  0.394483  0  0.892011  0  0  0.366806  0  0.9655  0  0  0.378251  0  0.953031  0  0  0.302562  0.358919  0  0.973957  0
H  H12  1  0.20567099  0.89326950  0.27290489  1  0  0.394481  0  0.892026  0  0  0.366808  0  0.965507  0  0  0.378255  0  0.953036  0  0  0.302562  0.358921  0  0.973964  0
H  H13  1  0.29432659  0.60673092  0.77290343  1  0  0.394448  0  0.891974  0  0  0.366768  0  0.965482  0  0  0.378214  0  0.953012  0  0  0.302556  0.358879  0  0.973941  0
H  H14  1  0.90033060  0.34400232  0.78936623  1  0  0.119485  0  0.910024  0  0  0.128545  0  0.96383  0  0  0.131287  0  0.962365  0  0  0.128768  0.126801  0  0.96467  0
H  H15  1  0.59966967  0.15600099  0.28937260  1  0  0.119507  0  0.910026  0  0  0.128559  0  0.963834  0  0  0.131304  0  0.962368  0  0  0.12873  0.126814  0  0.964679  0
H  H16  1  0.09967724  0.65599794  0.21063260  1  0  0.119442  0  0.910064  0  0  0.128509  0  0.963858  0  0  0.131253  0  0.962393  0  0  0.128737  0.126765  0  0.964702  0
H  H17  1  0.40032680  0.84400032  0.71062941  1  0  0.119462  0  0.91003  0  0  0.128547  0  0.963814  0  0  0.13129  0  0.962348  0  0  0.128741  0.126802  0  0.964658  0
C  C18  1  0.54188178  0.40402325  0.74254700  1  0  0.737336  0  3.783874  0  0  0.673949  0  4.090745  0  0  0.709894  0  4.081044  0  0  0.238636  0.64906  0  4.096885  0
C  C19  1  0.95811322  0.09597894  0.24254551  1  0  0.737427  0  3.783888  0  0  0.673971  0  4.09087  0  0  0.709914  0  4.081171  0  0  0.238607  0.649086  0  4.097014  0
C  C20  1  0.45812409  0.59597699  0.25745182  1  0  0.737275  0  3.784036  0  0  0.673922  0  4.090859  0  0  0.709862  0  4.081164  0  0  0.23862  0.649034  0  4.097001  0
C  C21  1  0.04188277  0.90402122  0.75745490  1  0  0.737404  0  3.783859  0  0  0.673999  0  4.090777  0  0  0.709944  0  4.081073  0  0  0.238641  0.649113  0  4.096921  0
C  C22  1  0.68068483  0.28684060  0.79085393  1  0  -0.19912  0  3.645944  0  0  -0.200812  0  3.900184  0  0  -0.206414  0  3.9041  0  0  -0.009707  -0.1972  0  3.897475  0
C  C23  1  0.81931840  0.21316043  0.29085712  1  0  -0.199289  0  3.64613  0  0  -0.200945  0  3.900391  0  0  -0.206554  0  3.904314  0  0  -0.00972  -0.197335  0  3.897686  0
C  C24  1  0.31932151  0.71316080  0.20914649  1  0  -0.199023  0  3.645944  0  0  -0.200719  0  3.900175  0  0  -0.206323  0  3.904095  0  0  -0.009682  -0.197108  0  3.897467  0
C  C25  1  0.18068005  0.78684090  0.70914409  1  0  -0.199186  0  3.646004  0  0  -0.200901  0  3.900286  0  0  -0.206502  0  3.904202  0  0  -0.009743  -0.197292  0  3.897579  0
O  O26  1  0.62783958  0.14866457  0.72995161  1  0  -0.538363  0  2.221339  0  0  -0.481108  0  2.462261  0  0  -0.499837  0  2.451184  0  0  -0.390968  -0.467912  0  2.469418  0
O  O27  1  0.87216362  0.35133770  0.22995556  1  0  -0.538289  0  2.221347  0  0  -0.481043  0  2.462274  0  0  -0.49977  0  2.451197  0  0  -0.390947  -0.46785  0  2.469433  0
O  O28  1  0.37215989  0.85133447  0.27004801  1  0  -0.538367  0  2.221368  0  0  -0.481126  0  2.46231  0  0  -0.499853  0  2.451231  0  0  -0.390974  -0.467931  0  2.46947  0
O  O29  1  0.12783530  0.64866479  0.77004486  1  0  -0.538267  0  2.221283  0  0  -0.481013  0  2.462219  0  0  -0.499744  0  2.451145  0  0  -0.390936  -0.46782  0  2.469375  0
O  O30  1  0.43352557  0.37755870  0.65087492  1  0  -0.699286  0  2.075985  0  0  -0.626358  0  2.332554  0  0  -0.654027  0  2.318609  0  0  -0.325304  -0.605855  0  2.341226  0
O  O31  1  0.06645575  0.12243815  0.15087420  1  0  -0.699296  0  2.076222  0  0  -0.626319  0  2.332789  0  0  -0.653986  0  2.318852  0  0  -0.325202  -0.605808  0  2.341436  0
O  O32  1  0.56647784  0.62244037  0.34912470  1  0  -0.699251  0  2.076025  0  0  -0.626339  0  2.332577  0  0  -0.654006  0  2.318637  0  0  -0.325285  -0.605841  0  2.341261  0
O  O33  1  0.93353534  0.87755967  0.84912542  1  0  -0.699297  0  2.076194  0  0  -0.626344  0  2.332737  0  0  -0.654016  0  2.318804  0  0  -0.325244  -0.605832  0  2.341381  0
O  O34  1  0.53999585  0.52499668  0.79556922  1  0  -0.635431  0  2.060625  0  0  -0.567887  0  2.31341  0  0  -0.597232  0  2.301357  0  0  -0.301403  -0.547495  0  2.321666  0
O  O35  1  0.96000038  0.97500216  0.29557059  1  0  -0.635505  0  2.06041  0  0  -0.567935  0  2.313216  0  0  -0.597278  0  2.301163  0  0  -0.301455  -0.547545  0  2.321472  0
O  O36  1  0.46000852  0.47500470  0.20442960  1  0  -0.635433  0  2.060719  0  0  -0.567889  0  2.313469  0  0  -0.59723  0  2.301419  0  0  -0.301392  -0.547495  0  2.321724  0
O  O37  1  0.04000004  0.02499919  0.70443143  1  0  -0.635483  0  2.060409  0  0  -0.567955  0  2.313225  0  0  -0.597298  0  2.301171  0  0  -0.301455  -0.547565  0  2.321482  0
O  O38  1  0.73801321  0.39412683  0.99571576  1  0  -0.932765  0  2.081181  0  0  -0.832744  0  2.377384  0  0  -0.865514  0  2.354624  0  0  -0.397571  -0.808199  0  2.392322  0
O  O39  1  0.76199699  0.10586934  0.49571825  1  0  -0.932689  0  2.081158  0  0  -0.832633  0  2.377345  0  0  -0.865412  0  2.354618  0  0  -0.39751  -0.808089  0  2.392285  0
O  O40  1  0.26198626  0.60587220  0.00428465  1  0  -0.932756  0  2.081218  0  0  -0.832701  0  2.377384  0  0  -0.865488  0  2.354669  0  0  -0.397545  -0.808155  0  2.392322  0
O  O41  1  0.23800343  0.89413201  0.50428217  1  0  -0.932652  0  2.081168  0  0  -0.832605  0  2.37736  0  0  -0.865382  0  2.354626  0  0  -0.397488  -0.80806  0  2.392299  0
O  O42  1  0.28839283  0.20610319  0.94986443  1  0  -0.930529  0  1.975308  0  0  -0.836482  0  2.245087  0  0  -0.863948  0  2.223262  0  0  -0.398981  -0.81694  0  2.26101  0
O  O43  1  0.21161036  0.29389684  0.44986416  1  0  -0.930496  0  1.975349  0  0  -0.836433  0  2.245147  0  0  -0.863895  0  2.223325  0  0  -0.398939  -0.816885  0  2.261066  0
O  O44  1  0.71160909  0.79389702  0.05013518  1  0  -0.930485  0  1.97534  0  0  -0.836427  0  2.245117  0  0  -0.863888  0  2.223292  0  0  -0.398939  -0.816887  0  2.261038  0
O  O45  1  0.78838958  0.70610336  0.55013546  1  0  -0.93051  0  1.975404  0  0  -0.83645  0  2.245204  0  0  -0.863915  0  2.223383  0  0  -0.398946  -0.816901  0  2.261121  0
O  O46  1  0.72743382  0.11405460  0.96276099  1  0  -0.935036  0  2.039268  0  0  -0.858305  0  2.309221  0  0  -0.881654  0  2.287066  0  0  -0.421241  -0.840943  0  2.324616  0
O  O47  1  0.77256832  0.38593926  0.46276857  1  0  -0.935114  0  2.039428  0  0  -0.858285  0  2.3093  0  0  -0.88162  0  2.287139  0  0  -0.421246  -0.840922  0  2.324706  0
O  O48  1  0.27256809  0.88594561  0.03723943  1  0  -0.935  0  2.039292  0  0  -0.858265  0  2.309265  0  0  -0.881611  0  2.287112  0  0  -0.421213  -0.84089  0  2.324637  0
O  O49  1  0.22743210  0.61406208  0.53723185  1  0  -0.935078  0  2.039419  0  0  -0.858242  0  2.309249  0  0  -0.881581  0  2.287088  0  0  -0.421231  -0.840883  0  2.324657  0
