# generated using pymatgen
data_ZnH12C22(NO3)2
_symmetry_space_group_name_H-M   'P 1'
_cell_length_a   14.78010646
_cell_length_b   15.65432740
_cell_length_c   16.21179519
_cell_angle_alpha   90.66354458
_cell_angle_beta   90.76606226
_cell_angle_gamma   65.47764691
_symmetry_Int_Tables_number   1
_chemical_formula_structural   ZnH12C22(NO3)2
_chemical_formula_sum   'Zn2 H24 C44 N4 O12'
_cell_volume   3412.24629830
_cell_formula_units_Z   2
loop_
 _symmetry_equiv_pos_site_id
 _symmetry_equiv_pos_as_xyz
  1  'x, y, z'
loop_
 _atom_site_type_symbol
 _atom_site_label
 _atom_site_symmetry_multiplicity
 _atom_site_fract_x
 _atom_site_fract_y
 _atom_site_fract_z
 _atom_site_occupancy
 _atom_site_pbe_bader_charge
 _atom_site_pbe_bader_spin_density
 _atom_site_pbe_cm5_charge
 _atom_site_pbe_ddec_charge
 _atom_site_pbe_ddec_spin_density
 _atom_site_pbe_ddec_sum_bond_order
 _atom_site_pbe_magmom
Zn  Zn0  1  0.59710556  0.49476292  0.50091622  1  1.322286  0  0.685316  0.884074  0  2.4449  0
Zn  Zn1  1  0.40243975  0.50746197  0.49702192  1  1.318916  0  0.684398  0.883875  0  2.435279  0
H  H2  1  0.76970124  0.87491461  0.54306724  1  0.011168  0  0.092033  0.086525  0  1.023111  0
H  H3  1  0.23518618  0.12445800  0.57117566  1  0.017189  0  0.09416  0.090297  0  1.014148  0
H  H4  1  0.53690025  0.76884136  0.52219856  1  0.101396  0  0.101899  0.108233  0  1.034911  0
H  H5  1  0.46348433  0.23298591  0.53062670  1  0.105332  0  0.102337  0.109005  0  1.03309  0
H  H6  1  0.81628950  0.00683367  0.52757698  1  0.075063  0  0.094328  0.095237  0  1.015368  0
H  H7  1  0.18627346  0.99281854  0.55570076  1  0.064049  0  0.094339  0.095414  0  1.014526  0
H  H8  1  0.64104432  0.81405729  0.54680036  1  1e-06  0  0.099002  0.098559  0  1.018877  0
H  H9  1  0.36347115  0.18552206  0.56606916  1  0.012477  0  0.100567  0.101366  0  1.013395  0
H  H10  1  0.65039582  0.47555646  0.91793208  1  0.135734  0  0.13076  0.148722  0  0.964144  0
H  H11  1  0.37160808  0.46737401  0.08005909  1  0.162206  0  0.130564  0.149034  0  0.964588  0
H  H12  1  0.15099903  0.34950077  0.49686248  1  0.108242  0  0.12422  0.133436  0  0.971884  0
H  H13  1  0.84901048  0.65161757  0.50189402  1  0.096253  0  0.123599  0.133005  0  0.973149  0
H  H14  1  0.21149823  0.76403092  0.57649397  1  0.033213  0  0.09359  0.136082  0  0.995294  0
H  H15  1  0.13026376  0.87919718  0.54251875  1  0.004568  0  0.082448  0.110192  0  1.015195  0
H  H16  1  0.19734310  0.78786112  0.47056369  1  0.04547  0  0.092458  0.134663  0  0.997901  0
H  H17  1  0.79104059  0.21929660  0.44992869  1  0.063805  0  0.094401  0.138128  0  0.992708  0
H  H18  1  0.79852772  0.23114965  0.55715482  1  0.02839  0  0.09185  0.132765  0  1.00058  0
H  H19  1  0.87055714  0.12022410  0.50922980  1  -0.006905  0  0.082137  0.109621  0  1.015415  0
H  H20  1  0.05114495  0.26132907  0.49433191  1  0.053718  0  0.103965  0.144214  0  0.98758  0
H  H21  1  0.93784164  0.31562712  0.54980212  1  0.080116  0  0.109489  0.153455  0  0.973229  0
H  H22  1  0.93556545  0.31787161  0.44104946  1  0.096305  0  0.112328  0.158575  0  0.964936  0
H  H23  1  0.94873588  0.73975448  0.50420969  1  0.066054  0  0.102639  0.142057  0  0.992912  0
H  H24  1  0.06280003  0.68369370  0.55982461  1  0.066221  0  0.110783  0.155866  0  0.968323  0
H  H25  1  0.06358231  0.68520681  0.45109461  1  0.076991  0  0.110684  0.155237  0  0.968241  0
C  C26  1  0.50176364  0.49345636  0.33797553  1  1.688888  0  0.221743  0.661912  0  4.246658  0
C  C27  1  0.50295440  0.49647061  0.66078283  1  1.67822  0  0.218173  0.657609  0  4.254518  0
C  C28  1  0.57561607  0.31895186  0.50728596  1  1.512008  0  0.217122  0.600003  0  4.15265  0
C  C29  1  0.42317180  0.68284450  0.50866069  1  1.589447  0  0.217423  0.601998  0  4.149202  0
C  C30  1  0.61246808  0.21499316  0.51964612  1  0.011422  0  -0.017436  -0.091883  0  3.914074  0
C  C31  1  0.38755757  0.78635470  0.52473127  1  -0.032533  0  -0.017785  -0.092117  0  3.910463  0
C  C32  1  0.73827436  0.05694184  0.52866993  1  -0.133668  0  -0.099028  -0.21205  0  3.96393  0
C  C33  1  0.26387439  0.94328843  0.54810389  1  -0.047571  0  -0.098677  -0.212374  0  3.959678  0
C  C34  1  0.71537245  0.15169037  0.51924530  1  0.03399  0  0.00046  0.169768  0  3.942149  0
C  C35  1  0.28533048  0.84912549  0.53458619  1  0.018688  0  0.000515  0.170217  0  3.941739  0
C  C36  1  0.54023117  0.18110154  0.53126304  1  -0.07664  0  -0.080426  -0.12529  0  3.959081  0
C  C37  1  0.46076472  0.82026477  0.53031623  1  -0.098994  0  -0.081828  -0.126737  0  3.959295  0
C  C38  1  0.56292582  0.08516612  0.54054473  1  0.029392  0  -0.006258  0.025256  0  3.968137  0
C  C39  1  0.43949065  0.91558755  0.54332580  1  0.014054  0  -0.006029  0.026187  0  3.970185  0
C  C40  1  0.66536961  0.02138185  0.53777030  1  0.013011  0  -0.008579  0.089292  0  4.045575  0
C  C41  1  0.33745092  0.97894505  0.55142299  1  -0.02297  0  -0.009393  0.088405  0  4.046183  0
C  C42  1  0.48746972  0.04938521  0.54838335  1  -0.059686  0  -0.002563  0.038262  0  3.950008  0
C  C43  1  0.51565770  0.95109996  0.54547826  1  0.000107  0  -0.003318  0.037146  0  3.953343  0
C  C44  1  0.61906255  0.88959227  0.54458105  1  0.014645  0  -0.093035  -0.129687  0  4.030282  0
C  C45  1  0.38476517  0.11037974  0.55870589  1  0.00736  0  -0.092386  -0.129949  0  4.024947  0
C  C46  1  0.69102292  0.92319275  0.54245460  1  -0.027948  0  -0.097492  -0.14161  0  4.043  0
C  C47  1  0.31294302  0.07657539  0.56158519  1  0.011041  0  -0.096509  -0.141462  0  4.040207  0
C  C48  1  0.59013336  0.47103390  0.95279559  1  -0.00029  0  -0.055809  -0.142311  0  3.885409  0
C  C49  1  0.43441045  0.46642958  0.04522499  1  0.082331  0  -0.055757  -0.143569  0  3.887243  0
C  C50  1  0.50734344  0.46849303  0.91051625  1  0.121869  0  0.022232  0.115528  0  4.077234  0
C  C51  1  0.51786709  0.46742497  0.08750722  1  0.139871  0  0.022369  0.11699  0  4.074178  0
C  C52  1  0.43080687  0.46468310  0.95983901  1  0.165801  0  0.094547  0.043232  0  3.877298  0
C  C53  1  0.59578826  0.46824680  0.03812195  1  0.216387  0  0.094674  0.042796  0  3.876448  0
C  C54  1  0.50287301  0.47555079  0.82380373  1  -0.465534  0  -0.037859  -0.067479  0  4.116088  0
C  C55  1  0.51678359  0.47331327  0.17439896  1  -0.400477  0  -0.037005  -0.066791  0  4.113813  0
C  C56  1  0.50791488  0.48291430  0.24889450  1  0.181178  0  -0.019304  -0.120272  0  3.893573  0
C  C57  1  0.50399731  0.48600876  0.74958554  1  0.303453  0  -0.018349  -0.118576  0  3.896186  0
C  C58  1  0.99081171  0.41232764  0.49771728  1  0.026851  0  0.020571  0.160546  0  3.945322  0
C  C59  1  0.00918874  0.58877902  0.50172259  1  0.056437  0  0.020612  0.159495  0  3.94805  0
C  C60  1  0.90734817  0.50023380  0.49913271  1  0.092308  0  0.020468  0.001618  0  4.057405  0
C  C61  1  0.09267192  0.50089364  0.50005323  1  0.11264  0  0.019408  0.000442  0  4.059169  0
C  C62  1  0.91612206  0.58625533  0.50099959  1  0.070327  0  -0.059087  -0.152353  0  3.901231  0
C  C63  1  0.08390301  0.41486151  0.49817027  1  -0.00948  0  -0.057866  -0.15077  0  3.898195  0
C  C64  1  0.81107765  0.50081543  0.49903281  1  0.85124  0  0.247203  0.308452  0  3.927491  0
C  C65  1  0.18879675  0.50061250  0.49969744  1  0.83591  0  0.247192  0.308123  0  3.925815  0
C  C66  1  0.20116809  0.81878255  0.53094074  1  -0.015174  0  -0.242357  -0.410094  0  3.996081  0
C  C67  1  0.79876393  0.18185868  0.50829656  1  -0.013258  0  -0.241985  -0.408758  0  3.994573  0
C  C68  1  0.97872276  0.32179940  0.49563705  1  -0.086839  0  -0.223345  -0.424539  0  3.944983  0
C  C69  1  0.02120203  0.67930757  0.50432490  1  -0.071722  0  -0.223402  -0.422377  0  3.944987  0
N  N70  1  0.26596127  0.50350684  0.49863051  1  -1.157631  0  -0.267507  -0.278827  0  3.095468  0
N  N71  1  0.73352378  0.49871395  0.49950408  1  -1.173846  0  -0.268085  -0.279791  0  3.098126  0
N  N72  1  0.68777758  0.46641031  0.07640602  1  0.386475  0  0.060661  0.518908  0  4.210929  0
N  N73  1  0.34194929  0.46010958  0.92107180  1  0.403498  0  0.060548  0.518628  0  4.211139  0
O  O74  1  0.57779846  0.49527847  0.37400353  1  -1.131083  0  -0.309491  -0.537158  0  2.249536  0
O  O75  1  0.42072312  0.51243755  0.62465903  1  -1.137927  0  -0.31072  -0.540125  0  2.247059  0
O  O76  1  0.42138385  0.49950780  0.37039468  1  -1.136479  0  -0.314652  -0.545488  0  2.244168  0
O  O77  1  0.58420301  0.48826626  0.62871179  1  -1.136523  0  -0.314073  -0.544667  0  2.240472  0
O  O78  1  0.63940692  0.35366495  0.50060476  1  -1.150793  0  -0.308858  -0.53389  0  2.348958  0
O  O79  1  0.35908315  0.64887964  0.49703283  1  -1.161748  0  -0.310074  -0.535541  0  2.33414  0
O  O80  1  0.48150051  0.36609574  0.50451978  1  -1.144445  0  -0.321362  -0.561224  0  2.356284  0
O  O81  1  0.51724522  0.63513802  0.50800697  1  -1.19067  0  -0.321723  -0.562574  0  2.367795  0
O  O82  1  0.71811002  0.41946712  0.13977700  1  -0.420051  0  -0.120394  -0.312505  0  1.880763  0
O  O83  1  0.72862716  0.51075296  0.04124737  1  -0.437014  0  -0.139594  -0.336062  0  1.848214  0
O  O84  1  0.35427686  0.41518137  0.85580758  1  -0.425108  0  -0.119874  -0.311723  0  1.882002  0
O  O85  1  0.26181874  0.50067949  0.95741385  1  -0.441007  0  -0.140943  -0.337828  0  1.848013  0
