# generated using pymatgen
data_ZnPH9C6N2O3
_symmetry_space_group_name_H-M   'P 1'
_cell_length_a   7.95395549
_cell_length_b   8.06743283
_cell_length_c   13.49760164
_cell_angle_alpha   90.00001222
_cell_angle_beta   90.00005068
_cell_angle_gamma   90.00022028
_symmetry_Int_Tables_number   1
_chemical_formula_structural   ZnPH9C6N2O3
_chemical_formula_sum   'Zn4 P4 H36 C24 N8 O12'
_cell_volume   866.11412418
_cell_formula_units_Z   4
loop_
 _symmetry_equiv_pos_site_id
 _symmetry_equiv_pos_as_xyz
  1  'x, y, z'
loop_
 _atom_site_type_symbol
 _atom_site_label
 _atom_site_symmetry_multiplicity
 _atom_site_fract_x
 _atom_site_fract_y
 _atom_site_fract_z
 _atom_site_occupancy
 _atom_site_hle17_bader_spin_density
 _atom_site_hle17_ddec_charge
 _atom_site_hle17_ddec_spin_density
 _atom_site_hle17_ddec_sum_bond_order
 _atom_site_hle17_magmom
 _atom_site_hse06_10hf_bader_spin_density
 _atom_site_hse06_10hf_ddec_charge
 _atom_site_hse06_10hf_ddec_spin_density
 _atom_site_hse06_10hf_ddec_sum_bond_order
 _atom_site_hse06_10hf_magmom
 _atom_site_hse06_bader_spin_density
 _atom_site_hse06_ddec_charge
 _atom_site_hse06_ddec_spin_density
 _atom_site_hse06_ddec_sum_bond_order
 _atom_site_hse06_magmom
 _atom_site_pbe_bader_spin_density
 _atom_site_pbe_cm5_charge
 _atom_site_pbe_ddec_charge
 _atom_site_pbe_ddec_spin_density
 _atom_site_pbe_ddec_sum_bond_order
 _atom_site_pbe_magmom
Zn  Zn0  1  0.65185124  0.65757242  0.93097227  1  0  1.177179  0  1.750012  0  0  1.00373  0  2.218368  0  0  1.045641  0  2.161107  0  0  0.720738  0.974305  0  2.257853  0
Zn  Zn1  1  0.34814664  0.15757000  0.06902866  1  0  1.177193  0  1.749981  0  0  1.003747  0  2.218335  0  0  1.045658  0  2.161072  0  0  0.720739  0.97432  0  2.257827  0
Zn  Zn2  1  0.84814631  0.15757110  0.93097155  1  0  1.177196  0  1.749962  0  0  1.003752  0  2.218317  0  0  1.045659  0  2.161055  0  0  0.720758  0.974326  0  2.257786  0
Zn  Zn3  1  0.15185157  0.65757256  0.06902864  1  0  1.177198  0  1.749998  0  0  1.003721  0  2.218362  0  0  1.045636  0  2.161103  0  0  0.720742  0.9743  0  2.257847  0
P  P4  1  0.00328483  0.78212133  0.87754114  1  0  1.421526  0  4.927684  0  0  1.22709  0  5.430957  0  0  1.277801  0  5.394205  0  0  0.277035  1.191821  0  5.455709  0
P  P5  1  0.99671228  0.28212140  0.12245981  1  0  1.421584  0  4.927739  0  0  1.227129  0  5.431037  0  0  1.277844  0  5.394281  0  0  0.277049  1.191846  0  5.455812  0
P  P6  1  0.49671256  0.28212182  0.87754049  1  0  1.421535  0  4.927797  0  0  1.227104  0  5.431078  0  0  1.277821  0  5.394318  0  0  0.277029  1.191832  0  5.455833  0
P  P7  1  0.50328580  0.78212215  0.12245972  1  0  1.421599  0  4.927596  0  0  1.22719  0  5.430872  0  0  1.277905  0  5.394112  0  0  0.277073  1.191922  0  5.455623  0
H  H8  1  0.05090391  0.82703284  0.78098029  1  0  -0.141652  0  0.922144  0  0  -0.106555  0  1.006984  0  0  -0.111699  0  1.005133  0  0  0.09291  -0.103107  0  1.008351  0
H  H9  1  0.94909336  0.32703276  0.21902066  1  0  -0.141629  0  0.922112  0  0  -0.106587  0  1.007014  0  0  -0.111733  0  1.005164  0  0  0.092893  -0.103131  0  1.008377  0
H  H10  1  0.44909476  0.32703315  0.78097963  1  0  -0.141659  0  0.922161  0  0  -0.106561  0  1.007001  0  0  -0.111705  0  1.005149  0  0  0.092911  -0.103111  0  1.008367  0
H  H11  1  0.55090629  0.82703121  0.21902059  1  0  -0.141642  0  0.922122  0  0  -0.106581  0  1.006998  0  0  -0.111725  0  1.005146  0  0  0.092897  -0.10313  0  1.00836  0
H  H12  1  0.67744349  0.79003213  0.52432819  1  0  0.097676  0  0.971722  0  0  0.111174  0  1.02995  0  0  0.113481  0  1.029987  0  0  0.098004  0.109534  0  1.030033  0
H  H13  1  0.32256119  0.29003224  0.47567350  1  0  0.097737  0  0.971711  0  0  0.111239  0  1.029928  0  0  0.113546  0  1.029961  0  0  0.09801  0.109588  0  1.030023  0
H  H14  1  0.82255396  0.29003320  0.52432746  1  0  0.097715  0  0.971709  0  0  0.111215  0  1.029929  0  0  0.113521  0  1.029966  0  0  0.098004  0.10958  0  1.030008  0
H  H15  1  0.17744443  0.79003365  0.47567201  1  0  0.097686  0  0.971693  0  0  0.111182  0  1.029925  0  0  0.113489  0  1.029962  0  0  0.098011  0.109547  0  1.030002  0
H  H16  1  0.46570186  0.58134327  0.47689970  1  0  0.085516  0  0.968507  0  0  0.096774  0  1.030734  0  0  0.099374  0  1.029548  0  0  0.094546  0.094888  0  1.031663  0
H  H17  1  0.53430452  0.08134545  0.52309900  1  0  0.085513  0  0.968525  0  0  0.096771  0  1.03075  0  0  0.09937  0  1.029563  0  0  0.09451  0.094888  0  1.031679  0
H  H18  1  0.03429792  0.08134449  0.47689955  1  0  0.085522  0  0.968495  0  0  0.096781  0  1.030722  0  0  0.099381  0  1.029535  0  0  0.094552  0.094897  0  1.031647  0
H  H19  1  0.96570469  0.58134299  0.52310063  1  0  0.085527  0  0.968521  0  0  0.096789  0  1.030743  0  0  0.099389  0  1.029557  0  0  0.094559  0.094908  0  1.03167  0
H  H20  1  0.25711245  0.47832376  0.60353250  1  0  0.087144  0  0.971162  0  0  0.097062  0  1.035989  0  0  0.099188  0  1.03651  0  0  0.092842  0.095516  0  1.035766  0
H  H21  1  0.74289044  0.97832633  0.39646477  1  0  0.087156  0  0.971197  0  0  0.097079  0  1.036009  0  0  0.099203  0  1.036532  0  0  0.092856  0.095533  0  1.035783  0
H  H22  1  0.24288654  0.97833037  0.60353327  1  0  0.087198  0  0.971171  0  0  0.097115  0  1.035983  0  0  0.099243  0  1.0365  0  0  0.092877  0.095566  0  1.035774  0
H  H23  1  0.75711384  0.47832343  0.39646770  1  0  0.087164  0  0.971164  0  0  0.097069  0  1.036001  0  0  0.099194  0  1.036525  0  0  0.092849  0.095543  0  1.035757  0
H  H24  1  0.27265223  0.58784441  0.77550529  1  0  0.103609  0  0.962333  0  0  0.115003  0  1.021474  0  0  0.118189  0  1.01965  0  0  0.101399  0.112706  0  1.022838  0
H  H25  1  0.72734286  0.08784349  0.22449045  1  0  0.103577  0  0.962286  0  0  0.114984  0  1.021412  0  0  0.118169  0  1.019591  0  0  0.101394  0.11269  0  1.022771  0
H  H26  1  0.22734424  0.08784636  0.77550599  1  0  0.103606  0  0.962314  0  0  0.114991  0  1.021466  0  0  0.118176  0  1.019646  0  0  0.101423  0.112702  0  1.022824  0
H  H27  1  0.77265210  0.58784526  0.22449494  1  0  0.103605  0  0.962358  0  0  0.115005  0  1.021489  0  0  0.118191  0  1.019666  0  0  0.101409  0.11271  0  1.022852  0
H  H28  1  0.37398467  0.78650261  0.88304443  1  0  0.324878  0  0.921216  0  0  0.309706  0  0.980376  0  0  0.316852  0  0.975186  0  0  0.293021  0.304661  0  0.984014  0
H  H29  1  0.62600993  0.28650499  0.11695429  1  0  0.324797  0  0.921296  0  0  0.309619  0  0.980477  0  0  0.316767  0  0.975286  0  0  0.29297  0.304572  0  0.984108  0
H  H30  1  0.12601274  0.28650541  0.88304508  1  0  0.324827  0  0.921269  0  0  0.309664  0  0.980438  0  0  0.316811  0  0.975251  0  0  0.29298  0.304618  0  0.984069  0
H  H31  1  0.87398438  0.78650342  0.11695587  1  0  0.324873  0  0.921228  0  0  0.309707  0  0.980391  0  0  0.316856  0  0.975193  0  0  0.293006  0.304662  0  0.98402  0
H  H32  1  0.52726337  0.92250279  0.85847567  1  0  0.319713  0  0.921804  0  0  0.305184  0  0.978315  0  0  0.312408  0  0.973098  0  0  0.295737  0.300067  0  0.982022  0
H  H33  1  0.47273176  0.42250335  0.14152455  1  0  0.319676  0  0.9219  0  0  0.305143  0  0.978414  0  0  0.312369  0  0.973198  0  0  0.295755  0.300022  0  0.982124  0
H  H34  1  0.97273384  0.42250443  0.85847724  1  0  0.319701  0  0.921857  0  0  0.305177  0  0.978371  0  0  0.312402  0  0.973156  0  0  0.29574  0.300059  0  0.982073  0
H  H35  1  0.02726130  0.92250419  0.14152447  1  0  0.319713  0  0.921817  0  0  0.305188  0  0.97833  0  0  0.312412  0  0.973114  0  0  0.295726  0.300072  0  0.982029  0
H  H36  1  0.78608548  0.97399050  0.64515044  1  0  0.293989  0  0.930603  0  0  0.286035  0  0.988369  0  0  0.29005  0  0.987554  0  0  0.290174  0.283204  0  0.988938  0
H  H37  1  0.21391488  0.47398892  0.35485054  1  0  0.293988  0  0.930545  0  0  0.286058  0  0.988293  0  0  0.290073  0  0.987477  0  0  0.290177  0.283228  0  0.988852  0
H  H38  1  0.71391287  0.47398992  0.64515187  1  0  0.293936  0  0.930651  0  0  0.285976  0  0.988432  0  0  0.289991  0  0.987617  0  0  0.290153  0.283145  0  0.988993  0
H  H39  1  0.28608624  0.97399198  0.35484836  1  0  0.293991  0  0.930613  0  0  0.286037  0  0.988376  0  0  0.290052  0  0.98756  0  0  0.290179  0.283206  0  0.988939  0
H  H40  1  0.69064186  0.00916669  0.75563665  1  0  0.310615  0  0.956106  0  0  0.294705  0  1.019929  0  0  0.301369  0  1.014989  0  0  0.288063  0.290001  0  1.023367  0
H  H41  1  0.30935543  0.50916632  0.24436353  1  0  0.310608  0  0.956137  0  0  0.294729  0  1.019918  0  0  0.301392  0  1.014978  0  0  0.288047  0.290025  0  1.023353  0
H  H42  1  0.80935610  0.50916612  0.75563671  1  0  0.310576  0  0.956173  0  0  0.29468  0  1.019979  0  0  0.301343  0  1.015039  0  0  0.288042  0.289974  0  1.023415  0
H  H43  1  0.19064120  0.00916813  0.24436272  1  0  0.310662  0  0.956186  0  0  0.29475  0  1.019998  0  0  0.301415  0  1.015058  0  0  0.288105  0.290045  0  1.023436  0
C  C44  1  0.47922145  0.75061528  0.74673061  1  0  0.148633  0  3.74078  0  0  0.150245  0  3.981522  0  0  0.152191  0  4.005056  0  0  0.062929  0.148711  0  3.965764  0
C  C45  1  0.52078182  0.25062103  0.25327107  1  0  0.148676  0  3.740823  0  0  0.150221  0  3.981651  0  0  0.15217  0  4.00519  0  0  0.062945  0.148683  0  3.965892  0
C  C46  1  0.02077813  0.25062017  0.74672824  1  0  0.148631  0  3.740854  0  0  0.150277  0  3.981587  0  0  0.152227  0  4.005121  0  0  0.062985  0.14874  0  3.965837  0
C  C47  1  0.97922136  0.75061491  0.25326974  1  0  0.148662  0  3.740868  0  0  0.150289  0  3.981606  0  0  0.152237  0  4.005139  0  0  0.062961  0.148748  0  3.965858  0
C  C48  1  0.59540773  0.81171052  0.67593659  1  0  0.219075  0  3.848166  0  0  0.213892  0  4.093858  0  0  0.221952  0  4.114638  0  0  0.087549  0.208321  0  4.079764  0
C  C49  1  0.40459954  0.31171956  0.32406659  1  0  0.219135  0  3.848123  0  0  0.213962  0  4.093846  0  0  0.222016  0  4.114638  0  0  0.087557  0.208393  0  4.079748  0
C  C50  1  0.90459506  0.31171562  0.67593441  1  0  0.219125  0  3.848175  0  0  0.213926  0  4.093879  0  0  0.221983  0  4.114664  0  0  0.087517  0.208353  0  4.079796  0
C  C51  1  0.09540844  0.81171075  0.32406283  1  0  0.219097  0  3.84812  0  0  0.213916  0  4.093803  0  0  0.221976  0  4.114583  0  0  0.087566  0.208346  0  4.079709  0
C  C52  1  0.58683193  0.74653610  0.57913494  1  0  -0.207201  0  3.785388  0  0  -0.219982  0  4.03102  0  0  -0.22496  0  4.050841  0  0  -0.11342  -0.216648  0  4.01769  0
C  C53  1  0.41317635  0.24653901  0.42086675  1  0  -0.207337  0  3.785441  0  0  -0.220115  0  4.031062  0  0  -0.225092  0  4.050887  0  0  -0.113408  -0.216768  0  4.017734  0
C  C54  1  0.91316796  0.24653875  0.57913425  1  0  -0.207351  0  3.78539  0  0  -0.220127  0  4.031028  0  0  -0.225105  0  4.05085  0  0  -0.113438  -0.216795  0  4.017702  0
C  C55  1  0.08683152  0.74653512  0.42086521  1  0  -0.207221  0  3.785394  0  0  -0.220002  0  4.031031  0  0  -0.224981  0  4.050854  0  0  -0.113424  -0.216666  0  4.017699  0
C  C56  1  0.46761678  0.62794300  0.55266353  1  0  -0.082651  0  3.852216  0  0  -0.099113  0  4.107635  0  0  -0.098347  0  4.126916  0  0  -0.108759  -0.099467  0  4.094488  0
C  C57  1  0.53238853  0.12794761  0.44733740  1  0  -0.082681  0  3.85229  0  0  -0.099139  0  4.1077  0  0  -0.098372  0  4.126978  0  0  -0.108801  -0.099497  0  4.094554  0
C  C58  1  0.03238581  0.12794544  0.55266339  1  0  -0.082622  0  3.85223  0  0  -0.099076  0  4.107627  0  0  -0.09831  0  4.126907  0  0  -0.108765  -0.099427  0  4.094483  0
C  C59  1  0.96761950  0.62794269  0.44733532  1  0  -0.082662  0  3.852319  0  0  -0.099127  0  4.107736  0  0  -0.098362  0  4.127019  0  0  -0.108769  -0.099488  0  4.094603  0
C  C60  1  0.35172721  0.57074368  0.62258629  1  0  -0.106626  0  3.83089  0  0  -0.124704  0  4.093229  0  0  -0.127689  0  4.114631  0  0  -0.117387  -0.122685  0  4.078665  0
C  C61  1  0.64827662  0.07074623  0.37741315  1  0  -0.106638  0  3.830925  0  0  -0.124722  0  4.093262  0  0  -0.127708  0  4.114662  0  0  -0.11735  -0.1227  0  4.078701  0
C  C62  1  0.14827149  0.07074532  0.62258695  1  0  -0.106683  0  3.831043  0  0  -0.124758  0  4.093378  0  0  -0.127742  0  4.114778  0  0  -0.1174  -0.122744  0  4.07882  0
C  C63  1  0.85172982  0.57074086  0.37741398  1  0  -0.106693  0  3.83092  0  0  -0.124763  0  4.093269  0  0  -0.127748  0  4.11467  0  0  -0.117409  -0.122758  0  4.078707  0
C  C64  1  0.35939906  0.63276220  0.71903010  1  0  -0.162027  0  3.790688  0  0  -0.18313  0  4.048428  0  0  -0.184643  0  4.068746  0  0  -0.107941  -0.181948  0  4.034676  0
C  C65  1  0.64060375  0.13276965  0.28097009  1  0  -0.162  0  3.790696  0  0  -0.183079  0  4.048432  0  0  -0.184592  0  4.06875  0  0  -0.107939  -0.1819  0  4.034683  0
C  C66  1  0.14060128  0.13276877  0.71902927  1  0  -0.161976  0  3.790798  0  0  -0.183084  0  4.048542  0  0  -0.184596  0  4.068858  0  0  -0.107951  -0.181905  0  4.034794  0
C  C67  1  0.85940027  0.63276183  0.28096944  1  0  -0.161974  0  3.790755  0  0  -0.183069  0  4.048468  0  0  -0.184581  0  4.068785  0  0  -0.107941  -0.18189  0  4.034728  0
N  N68  1  0.49018724  0.80068577  0.84912362  1  0  -0.680626  0  3.160264  0  0  -0.615399  0  3.408274  0  0  -0.63559  0  3.402139  0  0  -0.606182  -0.601339  0  3.412434  0
N  N69  1  0.50980994  0.30068896  0.15087733  1  0  -0.680558  0  3.160295  0  0  -0.615309  0  3.408302  0  0  -0.635507  0  3.402179  0  0  -0.606155  -0.601234  0  3.412449  0
N  N70  1  0.00981144  0.30068814  0.84912273  1  0  -0.680578  0  3.160237  0  0  -0.615413  0  3.408284  0  0  -0.635611  0  3.402156  0  0  -0.60617  -0.601349  0  3.41243  0
N  N71  1  0.99018574  0.80068660  0.15087674  1  0  -0.680653  0  3.160247  0  0  -0.61547  0  3.4083  0  0  -0.635663  0  3.402173  0  0  -0.606183  -0.601411  0  3.412453  0
N  N72  1  0.71847630  0.92444426  0.70182419  1  0  -0.653477  0  3.129429  0  0  -0.619962  0  3.356115  0  0  -0.639466  0  3.359854  0  0  -0.602779  -0.606144  0  3.353213  0
N  N73  1  0.28152639  0.42444540  0.29817752  1  0  -0.653433  0  3.129302  0  0  -0.619966  0  3.355922  0  0  -0.639466  0  3.359664  0  0  -0.602756  -0.606151  0  3.353014  0
N  N74  1  0.78152320  0.42444642  0.70182343  1  0  -0.653365  0  3.129327  0  0  -0.619851  0  3.355989  0  0  -0.63935  0  3.359729  0  0  -0.602744  -0.606029  0  3.353078  0
N  N75  1  0.21847571  0.92444572  0.29817531  1  0  -0.653526  0  3.129471  0  0  -0.620006  0  3.356154  0  0  -0.639509  0  3.359892  0  0  -0.602837  -0.606187  0  3.353246  0
O  O76  1  0.87482575  0.63789247  0.86816562  1  0  -0.859617  0  2.094552  0  0  -0.75065  0  2.379652  0  0  -0.779093  0  2.355384  0  0  -0.375163  -0.730618  0  2.395842  0
O  O77  1  0.12517079  0.13789295  0.13183531  1  0  -0.859604  0  2.094474  0  0  -0.750632  0  2.379589  0  0  -0.779072  0  2.355312  0  0  -0.375174  -0.730601  0  2.395797  0
O  O78  1  0.62517163  0.13789403  0.86816478  1  0  -0.859584  0  2.094505  0  0  -0.750612  0  2.379608  0  0  -0.779052  0  2.355332  0  0  -0.375165  -0.730584  0  2.395808  0
O  O79  1  0.37482491  0.63789387  0.13183541  1  0  -0.859635  0  2.094506  0  0  -0.750665  0  2.379607  0  0  -0.779109  0  2.355338  0  0  -0.375181  -0.730637  0  2.395806  0
O  O80  1  0.16595852  0.71939413  0.92805756  1  0  -0.839678  0  2.045856  0  0  -0.734979  0  2.333133  0  0  -0.763623  0  2.3093  0  0  -0.376517  -0.71495  0  2.349177  0
O  O81  1  0.83403960  0.21939357  0.07194264  1  0  -0.839687  0  2.045922  0  0  -0.734968  0  2.333192  0  0  -0.763613  0  2.309358  0  0  -0.376514  -0.714927  0  2.349229  0
O  O82  1  0.33403996  0.21939153  0.92805757  1  0  -0.839686  0  2.045852  0  0  -0.735035  0  2.333182  0  0  -0.763682  0  2.309348  0  0  -0.376539  -0.714995  0  2.34922  0
O  O83  1  0.66595942  0.71939245  0.07194337  1  0  -0.839704  0  2.045823  0  0  -0.735041  0  2.333135  0  0  -0.763688  0  2.309302  0  0  -0.376537  -0.715006  0  2.349174  0
O  O84  1  0.92653900  0.92911285  0.93172805  1  0  -0.856026  0  2.08745  0  0  -0.756144  0  2.405782  0  0  -0.783402  0  2.378159  0  0  -0.386823  -0.736856  0  2.424144  0
O  O85  1  0.07345994  0.42911311  0.06827366  1  0  -0.856111  0  2.087469  0  0  -0.756141  0  2.405726  0  0  -0.783401  0  2.378102  0  0  -0.386814  -0.736849  0  2.424099  0
O  O86  1  0.57345584  0.42911545  0.93172793  1  0  -0.856022  0  2.087461  0  0  -0.756128  0  2.40578  0  0  -0.783387  0  2.378157  0  0  -0.386782  -0.73684  0  2.424151  0
O  O87  1  0.42654310  0.92911547  0.06827230  1  0  -0.856045  0  2.087473  0  0  -0.756142  0  2.40577  0  0  -0.78341  0  2.378166  0  0  -0.386785  -0.736853  0  2.424137  0
