# generated using pymatgen
data_NiH16C22(N2O5)2
_symmetry_space_group_name_H-M   'P 1'
_cell_length_a   8.75815795
_cell_length_b   7.70308031
_cell_length_c   8.25635173
_cell_angle_alpha   84.01514901
_cell_angle_beta   82.24683814
_cell_angle_gamma   87.35584998
_symmetry_Int_Tables_number   1
_chemical_formula_structural   NiH16C22(N2O5)2
_chemical_formula_sum   'Ni1 H16 C22 N4 O10'
_cell_volume   548.62217651
_cell_formula_units_Z   1
loop_
 _symmetry_equiv_pos_site_id
 _symmetry_equiv_pos_as_xyz
  1  'x, y, z'
loop_
 _atom_site_type_symbol
 _atom_site_label
 _atom_site_symmetry_multiplicity
 _atom_site_fract_x
 _atom_site_fract_y
 _atom_site_fract_z
 _atom_site_occupancy
 _atom_site_hle17_bader_spin_density
 _atom_site_hle17_ddec_charge
 _atom_site_hle17_ddec_spin_density
 _atom_site_hle17_ddec_sum_bond_order
 _atom_site_hle17_magmom
 _atom_site_hse06_10hf_bader_spin_density
 _atom_site_hse06_10hf_ddec_charge
 _atom_site_hse06_10hf_ddec_spin_density
 _atom_site_hse06_10hf_ddec_sum_bond_order
 _atom_site_hse06_10hf_magmom
 _atom_site_hse06_bader_spin_density
 _atom_site_hse06_ddec_charge
 _atom_site_hse06_ddec_spin_density
 _atom_site_hse06_ddec_sum_bond_order
 _atom_site_hse06_magmom
 _atom_site_pbe_bader_spin_density
 _atom_site_pbe_cm5_charge
 _atom_site_pbe_ddec_charge
 _atom_site_pbe_ddec_spin_density
 _atom_site_pbe_ddec_sum_bond_order
 _atom_site_pbe_magmom
Ni  Ni0  1  0.99999341  0.50000155  0.00000668  1  0  0.599224  0  2.373362  0  0  0.541865  0  2.86974  0  0  0.608929  0  2.79855  0  0  0.655511  0.509923  0  2.912929  0
H  H1  1  0.25440898  0.09603927  0.04288729  1  0  0.093261  0  0.977853  0  0  0.103635  0  1.042289  0  0  0.106867  0  1.040515  0  0  0.101902  0.101368  0  1.043832  0
H  H2  1  0.74559039  0.90397620  0.95709417  1  0  0.093288  0  0.977713  0  0  0.103689  0  1.042118  0  0  0.106926  0  1.040344  0  0  0.101917  0.101422  0  1.043663  0
H  H3  1  0.47764319  0.83522955  0.80020345  1  0  0.129911  0  0.924922  0  0  0.139286  0  0.979203  0  0  0.142882  0  0.977951  0  0  0.11943  0.136674  0  0.980369  0
H  H4  1  0.52234935  0.16476927  0.19980667  1  0  0.12983  0  0.92501  0  0  0.139204  0  0.979281  0  0  0.142796  0  0.978029  0  0  0.119428  0.136591  0  0.980441  0
H  H5  1  0.42019773  0.60943886  0.30462113  1  0  0.126295  0  0.915473  0  0  0.138746  0  0.967169  0  0  0.142329  0  0.965087  0  0  0.123685  0.135878  0  0.969391  0
H  H6  1  0.57979805  0.39054313  0.69538836  1  0  0.126297  0  0.915525  0  0  0.138737  0  0.967223  0  0  0.142327  0  0.965128  0  0  0.12365  0.135867  0  0.969447  0
H  H7  1  0.57562765  0.77774190  0.07906685  1  0  0.106281  0  0.975121  0  0  0.116525  0  1.033219  0  0  0.118669  0  1.031791  0  0  0.110524  0.114412  0  1.035472  0
H  H8  1  0.42437067  0.22224687  0.92093657  1  0  0.106249  0  0.975134  0  0  0.116532  0  1.03319  0  0  0.118677  0  1.03176  0  0  0.110542  0.114419  0  1.035442  0
H  H9  1  0.22623142  0.71093495  0.76655010  1  0  0.121313  0  0.91759  0  0  0.125005  0  0.979207  0  0  0.12873  0  0.97492  0  0  0.134697  0.122226  0  0.982607  0
H  H10  1  0.77375755  0.28906760  0.23346183  1  0  0.121309  0  0.917572  0  0  0.12498  0  0.979231  0  0  0.128706  0  0.974944  0  0  0.134681  0.1222  0  0.982638  0
H  H11  1  0.24621687  0.43236184  0.47939419  1  0  0.356166  0  0.853781  0  0  0.339042  0  0.910642  0  0  0.346598  0  0.903901  0  0  0.324115  0.33368  0  0.915599  0
H  H12  1  0.75378412  0.56763369  0.52060435  1  0  0.356174  0  0.853728  0  0  0.339087  0  0.910557  0  0  0.346642  0  0.903822  0  0  0.324137  0.333725  0  0.915514  0
H  H13  1  0.07383971  0.32500994  0.49377689  1  0  0.367809  0  0.897578  0  0  0.344568  0  0.963198  0  0  0.353638  0  0.955353  0  0  0.314433  0.338051  0  0.968949  0
H  H14  1  0.92616044  0.67498805  0.50622653  1  0  0.367819  0  0.897507  0  0  0.344593  0  0.963133  0  0  0.353665  0  0.95528  0  0  0.314452  0.338075  0  0.968886  0
H  H15  1  0.24958020  0.03053217  0.45485671  1  0  0.4204  0  0.881406  0  0  0.386431  0  0.956742  0  0  0.400393  0  0.93685  0  0  0.298304  0.3766  0  0.970738  0
H  H16  1  0.75042623  0.96946626  0.54513901  1  0  0.420467  0  0.881273  0  0  0.386428  0  0.956741  0  0  0.40039  0  0.936849  0  0  0.298287  0.376597  0  0.970738  0
C  C17  1  0.14190324  0.05579750  0.02212748  1  0  -0.095287  0  3.737964  0  0  -0.133723  0  4.002809  0  0  -0.13352  0  4.01985  0  0  -0.08702  -0.133896  0  3.9918  0
C  C18  1  0.85810088  0.94421013  0.97786196  1  0  -0.095264  0  3.737892  0  0  -0.133743  0  4.002651  0  0  -0.13356  0  4.019713  0  0  -0.086946  -0.133915  0  3.991641  0
C  C19  1  0.24198465  0.56601460  0.15620540  1  0  0.072884  0  3.751142  0  0  0.076873  0  3.989526  0  0  0.07825  0  4.011774  0  0  0.113998  0.075098  0  3.976975  0
C  C20  1  0.75800990  0.43398310  0.84380066  1  0  0.07297  0  3.751206  0  0  0.07693  0  3.989458  0  0  0.078309  0  4.011697  0  0  0.114015  0.075152  0  3.976912  0
C  C21  1  0.09943444  0.07909481  0.86410576  1  0  -0.049924  0  3.699013  0  0  -0.040225  0  3.948092  0  0  -0.041975  0  3.963617  0  0  -0.00692  -0.039397  0  3.938202  0
C  C22  1  0.90056994  0.92091949  0.13587819  1  0  -0.050048  0  3.699  0  0  -0.04029  0  3.948145  0  0  -0.042034  0  3.963671  0  0  -0.007027  -0.039464  0  3.938254  0
C  C23  1  0.21967949  0.14584926  0.72392425  1  0  0.64927  0  3.953164  0  0  0.596749  0  4.266324  0  0  0.630588  0  4.255992  0  0  0.197487  0.573699  0  4.272068  0
C  C24  1  0.78032383  0.85414923  0.27606372  1  0  0.649339  0  3.953023  0  0  0.596752  0  4.266284  0  0  0.630588  0  4.255952  0  0  0.197482  0.573705  0  4.272028  0
C  C25  1  0.41424185  0.75769396  0.90343651  1  0  -0.094513  0  3.66763  0  0  -0.109489  0  3.920624  0  0  -0.117094  0  3.940784  0  0  -0.063906  -0.104703  0  3.908355  0
C  C26  1  0.58574793  0.24229941  0.09657841  1  0  -0.094404  0  3.667682  0  0  -0.109344  0  3.920643  0  0  -0.116944  0  3.940798  0  0  -0.063914  -0.104555  0  3.908369  0
C  C27  1  0.13320684  0.45903727  0.27244766  1  0  0.574177  0  3.791115  0  0  0.526937  0  4.072019  0  0  0.559508  0  4.072668  0  0  0.259299  0.50447  0  4.071613  0
C  C28  1  0.86678784  0.54095654  0.72755747  1  0  0.573718  0  3.791634  0  0  0.526816  0  4.072181  0  0  0.55939  0  4.07282  0  0  0.259267  0.504352  0  4.071771  0
C  C29  1  0.04708399  0.97663837  0.15703011  1  0  -0.07175  0  3.724943  0  0  -0.06285  0  3.96875  0  0  -0.066657  0  3.987375  0  0  -0.014696  -0.060512  0  3.956399  0
C  C30  1  0.95291726  0.02337829  0.84295930  1  0  -0.071887  0  3.724948  0  0  -0.062819  0  3.968662  0  0  -0.066619  0  3.987286  0  0  -0.014647  -0.060483  0  3.956311  0
C  C31  1  0.10879801  0.94242364  0.31749409  1  0  0.668942  0  3.809759  0  0  0.616627  0  4.111011  0  0  0.649661  0  4.102405  0  0  0.231793  0.594226  0  4.116039  0
C  C32  1  0.89120861  0.05757890  0.68249393  1  0  0.669286  0  3.809368  0  0  0.616779  0  4.110854  0  0  0.649814  0  4.102242  0  0  0.231827  0.594384  0  4.115876  0
C  C33  1  0.37951439  0.63159377  0.18496964  1  0  -0.086434  0  3.679067  0  0  -0.110667  0  3.926804  0  0  -0.114907  0  3.946309  0  0  -0.061528  -0.107883  0  3.915347  0
C  C34  1  0.62048061  0.36839869  0.81503796  1  0  -0.08651  0  3.679326  0  0  -0.110751  0  3.927072  0  0  -0.114997  0  3.946572  0  0  -0.061535  -0.107964  0  3.915613  0
C  C35  1  0.46702933  0.72876493  0.05593511  1  0  0.003777  0  3.671707  0  0  -0.017566  0  3.924887  0  0  -0.012792  0  3.942338  0  0  -0.059918  -0.021698  0  3.915372  0
C  C36  1  0.53297031  0.27123030  0.94407353  1  0  0.003784  0  3.672006  0  0  -0.017596  0  3.925169  0  0  -0.012823  0  3.942623  0  0  -0.059935  -0.021729  0  3.915654  0
C  C37  1  0.27431902  0.68873603  0.88209184  1  0  0.156939  0  3.597745  0  0  0.12555  0  3.849306  0  0  0.136219  0  3.864663  0  0  0.072179  0.118593  0  3.840967  0
C  C38  1  0.72567209  0.31126538  0.11791721  1  0  0.157075  0  3.59762  0  0  0.125672  0  3.849188  0  0  0.136343  0  3.864537  0  0  0.072314  0.118715  0  3.840849  0
N  N39  1  0.19087146  0.59503769  0.00621629  1  0  -0.247153  0  3.380265  0  0  -0.197069  0  3.668352  0  0  -0.223461  0  3.686774  0  0  -0.334329  -0.183487  0  3.659475  0
N  N40  1  0.80912340  0.40496252  0.99379436  1  0  -0.2472  0  3.38014  0  0  -0.197137  0  3.668261  0  0  -0.223524  0  3.686669  0  0  -0.334451  -0.183556  0  3.659386  0
N  N41  1  0.15254091  0.40911384  0.42518501  1  0  -0.607153  0  3.128044  0  0  -0.567605  0  3.360095  0  0  -0.589274  0  3.35612  0  0  -0.530451  -0.553457  0  3.363069  0
N  N42  1  0.84745908  0.59088518  0.57482932  1  0  -0.606885  0  3.128143  0  0  -0.567565  0  3.360175  0  0  -0.589239  0  3.356199  0  0  -0.530434  -0.55342  0  3.36315  0
O  O43  1  0.01311730  0.41354707  0.21457068  1  0  -0.462546  0  2.128836  0  0  -0.424046  0  2.418198  0  0  -0.464168  0  2.410458  0  0  -0.270696  -0.397199  0  2.422263  0
O  O44  1  0.98688002  0.58644677  0.78543744  1  0  -0.462373  0  2.128721  0  0  -0.424006  0  2.417942  0  0  -0.464132  0  2.410213  0  0  -0.270684  -0.397156  0  2.422008  0
O  O45  1  0.26499470  0.29905928  0.72133829  1  0  -0.635422  0  1.890368  0  0  -0.599234  0  2.124107  0  0  -0.621019  0  2.112304  0  0  -0.33831  -0.58275  0  2.131847  0
O  O46  1  0.73502474  0.70094381  0.27864891  1  0  -0.635399  0  1.890474  0  0  -0.599152  0  2.124227  0  0  -0.620932  0  2.11242  0  0  -0.338257  -0.582671  0  2.131967  0
O  O47  1  0.22413655  0.04205033  0.33276500  1  0  -0.565649  0  2.090165  0  0  -0.510116  0  2.304422  0  0  -0.533974  0  2.288254  0  0  -0.328973  -0.493262  0  2.315207  0
O  O48  1  0.77587104  0.95794429  0.66722831  1  0  -0.565777  0  2.08993  0  0  -0.510153  0  2.304352  0  0  -0.534011  0  2.288186  0  0  -0.328985  -0.493301  0  2.315137  0
O  O49  1  0.27131832  0.03195856  0.62626608  1  0  -0.655055  0  1.979097  0  0  -0.604229  0  2.203817  0  0  -0.628879  0  2.189564  0  0  -0.341946  -0.5862  0  2.212785  0
O  O50  1  0.72869263  0.96804811  0.37372051  1  0  -0.655214  0  1.978982  0  0  -0.604337  0  2.20377  0  0  -0.628986  0  2.189516  0  0  -0.341976  -0.586308  0  2.212739  0
O  O51  1  0.06018286  0.82525619  0.42389986  1  0  -0.576149  0  2.003101  0  0  -0.530134  0  2.230316  0  0  -0.551127  0  2.22268  0  0  -0.290925  -0.515537  0  2.235205  0
O  O52  1  0.93982934  0.17474150  0.57608230  1  0  -0.576257  0  2.002986  0  0  -0.530191  0  2.230296  0  0  -0.551182  0  2.222656  0  0  -0.290947  -0.515598  0  2.235186  0
