# generated using pymatgen
data_CoH9C8O3
_symmetry_space_group_name_H-M   'P 1'
_cell_length_a   6.77590772
_cell_length_b   15.16392837
_cell_length_c   15.16171756
_cell_angle_alpha   117.83034710
_cell_angle_beta   98.58074870
_cell_angle_gamma   98.53138119
_symmetry_Int_Tables_number   1
_chemical_formula_structural   CoH9C8O3
_chemical_formula_sum   'Co6 H54 C48 O18'
_cell_volume   1319.22952428
_cell_formula_units_Z   6
loop_
 _symmetry_equiv_pos_site_id
 _symmetry_equiv_pos_as_xyz
  1  'x, y, z'
loop_
 _atom_site_type_symbol
 _atom_site_label
 _atom_site_symmetry_multiplicity
 _atom_site_fract_x
 _atom_site_fract_y
 _atom_site_fract_z
 _atom_site_occupancy
 _atom_site_pbe_bader_charge
 _atom_site_pbe_bader_spin_density
 _atom_site_pbe_cm5_charge
 _atom_site_pbe_ddec_charge
 _atom_site_pbe_ddec_spin_density
 _atom_site_pbe_ddec_sum_bond_order
 _atom_site_pbe_magmom
Co  Co0  1  0.12438022  0.59357598  0.32454810  1  1.252825  2.560662  0.631089  0.928835  2.777443  2.455271  2.538
Co  Co1  1  0.79985966  0.67552820  0.26921138  1  1.25532  2.561277  0.632417  0.931385  2.775188  2.453297  2.539
Co  Co2  1  0.53093449  0.73091624  0.40642665  1  1.256946  2.559841  0.631384  0.929561  2.77575  2.454967  2.538
Co  Co3  1  0.87560794  0.40644304  0.67547497  1  1.252615  2.560561  0.630943  0.928691  2.777311  2.455478  2.538
Co  Co4  1  0.20009874  0.32447003  0.73079472  1  1.25544  2.561222  0.632463  0.931433  2.77519  2.45342  2.539
Co  Co5  1  0.46906409  0.26909969  0.59358976  1  1.257056  2.559866  0.631423  0.929606  2.775799  2.455056  2.538
H  H6  1  0.81551658  0.44103857  0.46491405  1  0.10437  0.000982  0.112623  0.135955  0.000329  1.005266  0.0
H  H7  1  0.35053112  0.53496846  0.97617573  1  0.106508  0.000983  0.112703  0.136013  0.000331  1.006166  0.0
H  H8  1  0.37435997  0.02368992  0.55890765  1  0.094616  0.001011  0.1125  0.135896  0.000337  1.006396  0.0
H  H9  1  0.18446807  0.55896428  0.53507948  1  0.104108  0.000982  0.112624  0.135919  0.000328  1.005262  0.0
H  H10  1  0.64943941  0.46504825  0.02385894  1  0.10623  0.000983  0.112695  0.135938  0.00033  1.006036  0.0
H  H11  1  0.62561379  0.97630907  0.44108599  1  0.09432  0.001011  0.112585  0.136016  0.000337  1.006347  0.0
H  H12  1  0.12523538  0.40146936  0.13536977  1  0.065984  1.4e-05  0.090051  0.132646  -0.000416  1.064769  0.0
H  H13  1  0.98944933  0.86464369  0.26614431  1  0.07423  2.7e-05  0.090227  0.132447  -0.000409  1.06498  0.0
H  H14  1  0.72305203  0.73378316  0.59822251  1  0.043464  9e-06  0.090246  0.13277  -0.00042  1.066646  0.0
H  H15  1  0.87475632  0.59848189  0.86460479  1  0.065834  1.5e-05  0.090073  0.132704  -0.000417  1.064838  0.0
H  H16  1  0.01057962  0.13541150  0.73381925  1  0.074989  2.8e-05  0.090137  0.132556  -0.00041  1.064997  0.0
H  H17  1  0.27695868  0.26622739  0.40182057  1  0.043468  1.1e-05  0.090266  0.132733  -0.00042  1.066669  0.0
H  H18  1  0.37512603  0.45212307  0.23307067  1  0.066015  -0.000184  0.093664  0.146734  -0.000738  1.036702  0.0
H  H19  1  0.14152464  0.76679488  0.21910826  1  0.082124  -0.000177  0.094018  0.146964  -0.000738  1.038628  0.0
H  H20  1  0.92230725  0.78075903  0.54754334  1  0.094069  -0.000166  0.093674  0.147214  -0.000741  1.037228  0.0
H  H21  1  0.62486785  0.54782355  0.76689925  1  0.066323  -0.000187  0.093809  0.14691  -0.000739  1.036449  0.0
H  H22  1  0.85854531  0.23328264  0.78086913  1  0.08618  -0.000175  0.094152  0.147179  -0.00074  1.038678  0.0
H  H23  1  0.07769968  0.21924997  0.45250338  1  0.092916  -0.000166  0.093661  0.147121  -0.000742  1.037205  0.0
H  H24  1  0.22786827  0.37401879  0.32456283  1  0.07044  0.000357  0.0926  0.076252  -0.000261  1.039697  0.0
H  H25  1  0.90243397  0.67532340  0.04953720  1  0.074922  0.000341  0.092871  0.076724  -0.000257  1.040266  0.0
H  H26  1  0.85336857  0.95045325  0.62589868  1  0.069561  0.000353  0.092718  0.076139  -0.000262  1.039328  0.0
H  H27  1  0.77214327  0.62591243  0.67540505  1  0.069685  0.000361  0.092752  0.076348  -0.000261  1.039841  0.0
H  H28  1  0.09762627  0.32471100  0.95044383  1  0.074906  0.000341  0.092931  0.076845  -0.000258  1.040168  0.0
H  H29  1  0.14665451  0.04956114  0.37414505  1  0.070275  0.000353  0.092745  0.076204  -0.000262  1.039564  0.0
H  H30  1  0.92338918  0.22600353  0.21461000  1  0.042031  0.002409  0.093254  0.085803  0.000968  0.973754  0.002
H  H31  1  0.70824176  0.78533839  0.01133964  1  0.03065  0.00242  0.093067  0.08594  0.000967  0.973696  0.002
H  H32  1  0.69714607  0.98857129  0.77401118  1  0.03674  0.002429  0.093558  0.086544  0.000975  0.97315  0.002
H  H33  1  0.07657768  0.77393694  0.78536973  1  0.041896  0.002415  0.093234  0.085826  0.00097  0.973771  0.002
H  H34  1  0.29172460  0.21465443  0.98861368  1  0.030966  0.002428  0.093048  0.085922  0.00097  0.973814  0.002
H  H35  1  0.30287425  0.01145851  0.22604152  1  0.037384  0.00243  0.093568  0.086618  0.000975  0.973304  0.002
H  H36  1  0.84611848  0.33682903  0.28966887  1  0.044043  0.002121  0.096877  0.098784  0.000727  0.983741  0.001
H  H37  1  0.55570428  0.71046683  0.04712934  1  0.054361  0.002107  0.097052  0.099545  0.000727  0.982769  0.001
H  H38  1  0.50900388  0.95298158  0.66332618  1  0.047384  0.002141  0.097403  0.099757  0.000737  0.983077  0.002
H  H39  1  0.15387568  0.66312991  0.71028240  1  0.043624  0.002128  0.096928  0.098886  0.00073  0.983713  0.002
H  H40  1  0.44432487  0.28953831  0.95285441  1  0.053973  0.002115  0.097035  0.099499  0.00073  0.982684  0.002
H  H41  1  0.49099614  0.04701356  0.33671162  1  0.065527  0.002128  0.097406  0.09968  0.000739  0.982853  0.002
H  H42  1  0.61998760  0.24341331  0.11223242  1  0.033811  5.2e-05  0.084579  0.107847  -4e-06  1.02088  0.0
H  H43  1  0.50725319  0.88795774  0.13103139  1  0.007647  5.5e-05  0.085046  0.108635  -2e-06  1.020374  0.0
H  H44  1  0.37631400  0.86893017  0.75664427  1  0.019479  5.3e-05  0.084574  0.108085  -4e-06  1.020229  0.0
H  H45  1  0.38003111  0.75654101  0.88772034  1  0.03459  5.2e-05  0.084607  0.107951  -4e-06  1.020981  0.0
H  H46  1  0.49272028  0.11203739  0.86892547  1  0.007302  5.5e-05  0.084962  0.108655  -3e-06  1.020242  0.0
H  H47  1  0.62372620  0.13108577  0.24341782  1  0.019194  5.3e-05  0.084519  0.108139  -4e-06  1.020339  0.0
H  H48  1  0.83450974  0.24998368  0.05899987  1  0.014407  0.000372  0.0828  0.110037  0.000179  1.008081  0.0
H  H49  1  0.77502416  0.94104232  0.19079235  1  0.010291  0.000376  0.082933  0.109745  0.000181  1.009203  0.0
H  H50  1  0.58430089  0.80911576  0.75003916  1  0.013194  0.000374  0.082999  0.109802  0.00018  1.009169  0.0
H  H51  1  0.16552463  0.74994831  0.94095342  1  0.010924  0.000372  0.082961  0.110232  0.000178  1.00814  0.0
H  H52  1  0.22494934  0.05897361  0.80915310  1  0.010942  0.000376  0.08284  0.109703  0.000181  1.009421  0.0
H  H53  1  0.41576828  0.19091635  0.25003440  1  0.01438  0.000374  0.083255  0.110198  0.000179  1.009131  0.0
H  H54  1  0.76203666  0.36427639  0.13705028  1  0.057434  8.3e-05  0.086657  0.124746  -0.000105  1.017595  0.0
H  H55  1  0.62455848  0.86320753  0.22719389  1  0.032731  8.5e-05  0.08623  0.123934  -0.000105  1.017303  0.0
H  H56  1  0.39753325  0.77284913  0.63572660  1  0.038054  8.5e-05  0.08652  0.124325  -0.000106  1.017275  0.0
H  H57  1  0.23802003  0.63567331  0.86290551  1  0.057631  8.3e-05  0.086755  0.124882  -0.000105  1.017474  0.0
H  H58  1  0.37545940  0.13681378  0.77278082  1  0.031648  8.5e-05  0.086418  0.124382  -0.000105  1.017  0.0
H  H59  1  0.60251233  0.22715680  0.36434702  1  0.037741  8.5e-05  0.086389  0.124353  -0.000106  1.017  0.0
C  C60  1  0.74617272  0.56188954  0.38865168  1  1.500949  -0.000349  0.226138  0.618603  -0.002592  4.091302  -0.001
C  C61  1  0.35758439  0.61134699  0.17331264  1  1.489466  -0.000315  0.226412  0.617725  -0.002623  4.091982  -0.001
C  C62  1  0.18427018  0.82669837  0.43806425  1  1.483885  -0.000491  0.226572  0.61845  -0.002774  4.088268  -0.001
C  C63  1  0.25381115  0.43811176  0.61134372  1  1.500316  -0.000347  0.226086  0.618512  -0.002588  4.091058  -0.001
C  C64  1  0.64238095  0.38866818  0.82670777  1  1.491002  -0.000326  0.226326  0.617259  -0.002624  4.092703  -0.001
C  C65  1  0.81569928  0.17331294  0.56193815  1  1.492773  -0.000514  0.226618  0.618708  -0.00277  4.088215  -0.001
C  C66  1  0.43636156  0.56767719  0.46708164  1  0.558655  0.010435  0.077983  0.296057  0.006526  4.105132  0.006
C  C67  1  0.96935082  0.53298871  0.10063353  1  0.560365  0.010624  0.078151  0.297023  0.006627  4.106149  0.006
C  C68  1  0.86871460  0.89943629  0.43230627  1  0.561225  0.010768  0.078298  0.296671  0.006703  4.105584  0.006
C  C69  1  0.56362786  0.43232334  0.53292367  1  0.558488  0.010447  0.078023  0.296275  0.006531  4.105094  0.006
C  C70  1  0.03063317  0.46702800  0.89939610  1  0.560276  0.010638  0.078182  0.297019  0.006632  4.105465  0.006
C  C71  1  0.13126944  0.10057425  0.56768817  1  0.56131  0.010766  0.078304  0.296601  0.006702  4.10529  0.006
C  C72  1  0.67560919  0.46626593  0.47934508  1  0.030793  0.019082  -0.093991  -0.19802  0.010075  3.948541  0.012
C  C73  1  0.19619939  0.52056452  0.98693418  1  0.017871  0.019372  -0.093754  -0.198759  0.010185  3.94904  0.012
C  C74  1  0.20929463  0.01302734  0.53367553  1  0.038121  0.018849  -0.093287  -0.197724  0.009953  3.947984  0.012
C  C75  1  0.32436685  0.53373460  0.52064613  1  0.030702  0.0191  -0.093962  -0.197826  0.010083  3.948317  0.012
C  C76  1  0.80377718  0.47945527  0.01309837  1  0.0187  0.019369  -0.094041  -0.199071  0.010185  3.949066  0.012
C  C77  1  0.79067212  0.98697550  0.46631547  1  0.038104  0.018839  -0.093385  -0.197937  0.009947  3.948306  0.012
C  C78  1  0.61746741  0.53265261  0.44617052  1  -0.048846  0.019451  -0.027316  -0.146083  0.009949  3.97034  0.014
C  C79  1  0.17130007  0.55377954  0.08652680  1  -0.039739  0.019578  -0.02741  -0.144826  0.010038  3.969842  0.014
C  C80  1  0.08475709  0.91349683  0.46725477  1  -0.052644  0.01973  -0.027792  -0.145617  0.010089  3.969055  0.014
C  C81  1  0.38252983  0.46734253  0.55381697  1  -0.048798  0.019449  -0.027323  -0.146237  0.009948  3.970038  0.014
C  C82  1  0.82868035  0.44624795  0.91350762  1  -0.040308  0.019575  -0.027059  -0.144324  0.010034  3.969268  0.014
C  C83  1  0.91521522  0.08650216  0.53272821  1  -0.062337  0.019767  -0.027797  -0.145666  0.010091  3.969032  0.014
C  C84  1  0.21298705  0.41111199  0.20700511  1  -0.143318  -0.002821  -0.206642  -0.3952  -0.005089  3.923522  -0.002
C  C85  1  0.00554351  0.79298055  0.20418466  1  -0.236788  -0.002476  -0.207108  -0.395531  -0.005076  3.925991  -0.002
C  C86  1  0.80127895  0.79575634  0.58864554  1  -0.129974  -0.003141  -0.206859  -0.396534  -0.005301  3.926577  -0.002
C  C87  1  0.78701507  0.58881230  0.79295758  1  -0.143639  -0.002859  -0.206932  -0.395519  -0.005129  3.923259  -0.002
C  C88  1  0.99451281  0.20708157  0.79577804  1  -0.241475  -0.002524  -0.207149  -0.39596  -0.005133  3.926356  -0.002
C  C89  1  0.19874079  0.20426037  0.41140497  1  -0.12881  -0.003174  -0.206782  -0.396328  -0.005322  3.926323  -0.002
C  C90  1  0.13058071  0.36524499  0.25515781  1  -0.119875  0.042264  -0.078248  0.026555  0.022175  3.964474  0.026
C  C91  1  0.87482269  0.74482838  0.11015841  1  -0.062284  0.041999  -0.07856  0.026164  0.0222  3.965943  0.026
C  C92  1  0.76491291  0.88984129  0.63466163  1  -0.147242  0.042797  -0.077974  0.027784  0.0224  3.963969  0.026
C  C93  1  0.86942634  0.63468315  0.74480041  1  -0.119124  0.042377  -0.078135  0.026701  0.022234  3.964097  0.026
C  C94  1  0.12521527  0.25520910  0.88981002  1  -0.062401  0.042148  -0.078424  0.026373  0.022278  3.96584  0.026
C  C95  1  0.23509144  0.11016849  0.36538066  1  -0.147077  0.042868  -0.078163  0.027439  0.022436  3.963814  0.026
C  C96  1  0.91484869  0.30189621  0.22366469  1  -0.000319  0.000317  -0.160947  -0.107307  -0.000557  3.998289  -0.001
C  C97  1  0.69058650  0.77636669  0.07820766  1  0.000823  0.000314  -0.160966  -0.108429  -0.000557  3.998068  -0.001
C  C98  1  0.61264358  0.92178521  0.69812241  1  0.003488  0.000318  -0.161964  -0.109602  -0.00056  3.998652  -0.001
C  C99  1  0.08514818  0.69805041  0.77630080  1  -2.9e-05  0.000317  -0.16107  -0.107484  -0.000558  3.998193  -0.001
C  C100  1  0.30941139  0.22364153  0.92176488  1  0.000434  0.000314  -0.161037  -0.108527  -0.000558  3.998028  -0.001
C  C101  1  0.38735996  0.07821995  0.30191568  1  -0.015809  0.000335  -0.162093  -0.109578  -0.000561  3.998217  -0.001
C  C102  1  0.77555703  0.28917370  0.12756241  1  -0.088599  0.000258  -0.246403  -0.350759  6.3e-05  3.952105  0.0
C  C103  1  0.64748311  0.87257445  0.16149441  1  -0.025686  0.00026  -0.246498  -0.349922  6.5e-05  3.951681  0.0
C  C104  1  0.48610155  0.83845712  0.71083841  1  -0.046061  0.00026  -0.246548  -0.350045  6.4e-05  3.95149  0.0
C  C105  1  0.22448274  0.71076906  0.87239495  1  -0.085566  0.000258  -0.246665  -0.351137  6.3e-05  3.952204  0.0
C  C106  1  0.35251302  0.12743608  0.83846193  1  -0.024494  0.00026  -0.246586  -0.350364  6.5e-05  3.951579  0.0
C  C107  1  0.51392153  0.16156036  0.28921863  1  -0.046965  0.000261  -0.246469  -0.350394  6.5e-05  3.951412  0.0
O  O108  1  0.67735691  0.61236082  0.34707870  1  -1.159922  0.11327  -0.315714  -0.592373  0.05866  2.659079  0.105
O  O109  1  0.33023249  0.65299671  0.26536732  1  -1.151447  0.112944  -0.315332  -0.591831  0.058484  2.658903  0.105
O  O110  1  0.06492275  0.73467772  0.38788259  1  -1.158911  0.113017  -0.31526  -0.592067  0.058699  2.65629  0.105
O  O111  1  0.32263534  0.38765434  0.65293362  1  -1.159846  0.11324  -0.315643  -0.592314  0.058646  2.658762  0.105
O  O112  1  0.66974080  0.34700460  0.73466034  1  -1.151508  0.11291  -0.3155  -0.591914  0.058469  2.659516  0.104
O  O113  1  0.93505259  0.26532744  0.61211535  1  -1.159072  0.112973  -0.315234  -0.592058  0.058679  2.65616  0.105
O  O114  1  0.36693623  0.63155769  0.43890135  1  -1.142175  0.159848  -0.348398  -0.582094  0.086789  2.623347  0.14
O  O115  1  0.92811267  0.56121676  0.19268640  1  -1.141186  0.160627  -0.348734  -0.582757  0.087157  2.623943  0.14
O  O116  1  0.73546718  0.80744298  0.36838467  1  -1.147719  0.160037  -0.34896  -0.583367  0.086925  2.622848  0.14
O  O117  1  0.63304765  0.36844669  0.56110604  1  -1.142226  0.159812  -0.348335  -0.582106  0.086772  2.623389  0.14
O  O118  1  0.07187317  0.43879764  0.80733767  1  -1.140715  0.160634  -0.348914  -0.583062  0.087163  2.623483  0.14
O  O119  1  0.26451169  0.19257218  0.63161092  1  -1.147825  0.16006  -0.349053  -0.583368  0.086938  2.622786  0.14
O  O120  1  0.91424410  0.53539535  0.37945573  1  -1.139882  0.070781  -0.291347  -0.517899  0.036947  2.34905  0.061
O  O121  1  0.53481717  0.62054341  0.15605633  1  -1.140203  0.070903  -0.292066  -0.518779  0.037001  2.349366  0.061
O  O122  1  0.37878354  0.84395047  0.46438533  1  -1.116856  0.07097  -0.291754  -0.518502  0.036934  2.350862  0.061
O  O123  1  0.08573187  0.46460210  0.62053866  1  -1.13932  0.070784  -0.291329  -0.517855  0.036948  2.349037  0.061
O  O124  1  0.46514824  0.37947484  0.84395958  1  -1.14023  0.070895  -0.291933  -0.518419  0.036999  2.349582  0.061
O  O125  1  0.62119064  0.15605854  0.53563873  1  -1.116216  0.070985  -0.29177  -0.518636  0.036939  2.351293  0.061
