# generated using pymatgen
data_TbH10C18N3(Cl3O4)2
_symmetry_space_group_name_H-M   'P 1'
_cell_length_a   9.77585837
_cell_length_b   11.75218509
_cell_length_c   12.99572838
_cell_angle_alpha   116.86293495
_cell_angle_beta   111.49490217
_cell_angle_gamma   90.00694940
_symmetry_Int_Tables_number   1
_chemical_formula_structural   TbH10C18N3(Cl3O4)2
_chemical_formula_sum   'Tb2 H20 C36 N6 Cl12 O16'
_cell_volume   1214.35672629
_cell_formula_units_Z   2
loop_
 _symmetry_equiv_pos_site_id
 _symmetry_equiv_pos_as_xyz
  1  'x, y, z'
loop_
 _atom_site_type_symbol
 _atom_site_label
 _atom_site_symmetry_multiplicity
 _atom_site_fract_x
 _atom_site_fract_y
 _atom_site_fract_z
 _atom_site_occupancy
 _atom_site_hle17_bader_spin_density
 _atom_site_hle17_ddec_charge
 _atom_site_hle17_ddec_spin_density
 _atom_site_hle17_ddec_sum_bond_order
 _atom_site_hle17_magmom
 _atom_site_hse06_10hf_bader_spin_density
 _atom_site_hse06_10hf_ddec_charge
 _atom_site_hse06_10hf_ddec_spin_density
 _atom_site_hse06_10hf_ddec_sum_bond_order
 _atom_site_hse06_10hf_magmom
 _atom_site_hse06_bader_spin_density
 _atom_site_hse06_ddec_charge
 _atom_site_hse06_ddec_spin_density
 _atom_site_hse06_ddec_sum_bond_order
 _atom_site_hse06_magmom
 _atom_site_pbe_bader_spin_density
 _atom_site_pbe_cm5_charge
 _atom_site_pbe_ddec_charge
 _atom_site_pbe_ddec_spin_density
 _atom_site_pbe_ddec_sum_bond_order
 _atom_site_pbe_magmom
Tb  Tb0  1  0.25002457  0.97004752  0.00000894  1  0  2.315998  0  1.622813  0  0  2.240455  0  1.964532  0  0  2.287262  0  1.919636  0  0  1.509255  2.137045  0  2.125139  0
Tb  Tb1  1  0.74997012  0.02995216  0.99998999  1  0  2.316054  0  1.622809  0  0  2.240534  0  1.96452  0  0  2.287344  0  1.919623  0  0  1.509296  2.13718  0  2.125057  0
H  H2  1  0.12784878  0.70568841  0.95827783  1  0  0.415928  0  0.881345  0  0  0.38191  0  0.952858  0  0  0.39159  0  0.938635  0  0  0.295446  0.374645  0  0.963282  0
H  H3  1  0.37208034  0.74748374  0.04179474  1  0  0.416236  0  0.881977  0  0  0.382642  0  0.951764  0  0  0.392297  0  0.937582  0  0  0.2957  0.375403  0  0.962153  0
H  H4  1  0.87215009  0.29431030  0.04172107  1  0  0.415924  0  0.881284  0  0  0.381897  0  0.952867  0  0  0.391578  0  0.938643  0  0  0.295398  0.374636  0  0.963286  0
H  H5  1  0.62792075  0.25251985  0.95820524  1  0  0.416191  0  0.881992  0  0  0.382601  0  0.951812  0  0  0.392256  0  0.937632  0  0  0.295661  0.375362  0  0.9622  0
H  H6  1  0.98586151  0.77441749  0.93167256  1  0  0.450452  0  0.838349  0  0  0.420445  0  0.899847  0  0  0.431137  0  0.88422  0  0  0.304157  0.41238  0  0.911434  0
H  H7  1  0.51415463  0.84272979  0.06839550  1  0  0.451411  0  0.836966  0  0  0.421277  0  0.898751  0  0  0.431988  0  0.883076  0  0  0.304518  0.413215  0  0.910333  0
H  H8  1  0.01413604  0.22558024  0.06832712  1  0  0.450476  0  0.838326  0  0  0.420472  0  0.899819  0  0  0.431164  0  0.884193  0  0  0.304166  0.412407  0  0.911407  0
H  H9  1  0.48584403  0.15727283  0.93160265  1  0  0.451437  0  0.836921  0  0  0.421297  0  0.898713  0  0  0.432007  0  0.88304  0  0  0.304517  0.413235  0  0.910294  0
H  H10  1  0.07369979  0.84875268  0.66400192  1  0  0.143305  0  0.95847  0  0  0.148219  0  1.025124  0  0  0.152803  0  1.02212  0  0  0.112863  0.144884  0  1.02737  0
H  H11  1  0.42639587  0.18488118  0.33606798  1  0  0.143175  0  0.957725  0  0  0.148007  0  1.02457  0  0  0.152611  0  1.021512  0  0  0.112786  0.144655  0  1.026882  0
H  H12  1  0.92630128  0.15124600  0.33600219  1  0  0.14334  0  0.958433  0  0  0.148214  0  1.025121  0  0  0.152791  0  1.022136  0  0  0.112863  0.144883  0  1.027365  0
H  H13  1  0.57359575  0.81511947  0.66393050  1  0  0.143227  0  0.957717  0  0  0.148067  0  1.024544  0  0  0.15267  0  1.021486  0  0  0.112824  0.144716  0  1.026858  0
H  H14  1  0.67362823  0.01276865  0.62115470  1  0  0.120732  0  0.986229  0  0  0.122365  0  1.063161  0  0  0.126661  0  1.060216  0  0  0.095498  0.119034  0  1.065993  0
H  H15  1  0.82646852  0.39177886  0.37890367  1  0  0.120187  0  0.987663  0  0  0.122249  0  1.064069  0  0  0.126604  0  1.061022  0  0  0.09544  0.118954  0  1.066809  0
H  H16  1  0.32637461  0.98723298  0.37884650  1  0  0.120688  0  0.986219  0  0  0.122324  0  1.06315  0  0  0.126636  0  1.060185  0  0  0.095443  0.118993  0  1.065984  0
H  H17  1  0.17352331  0.60821790  0.62109249  1  0  0.120196  0  0.987597  0  0  0.122228  0  1.064052  0  0  0.126583  0  1.061007  0  0  0.095417  0.11893  0  1.066796  0
H  H18  1  0.28399950  0.27231686  0.82663536  1  0  0.145511  0  0.949706  0  0  0.144687  0  1.025254  0  0  0.150221  0  1.020699  0  0  0.11039  0.140518  0  1.029123  0
H  H19  1  0.21628372  0.44581397  0.17378708  1  0  0.145272  0  0.949689  0  0  0.144402  0  1.025547  0  0  0.149928  0  1.020992  0  0  0.110401  0.140276  0  1.029309  0
H  H20  1  0.71600333  0.72768479  0.17336277  1  0  0.145554  0  0.949743  0  0  0.144706  0  1.025299  0  0  0.150241  0  1.020745  0  0  0.110375  0.140537  0  1.029171  0
H  H21  1  0.78371889  0.55418670  0.82621211  1  0  0.145284  0  0.949728  0  0  0.144418  0  1.025568  0  0  0.149946  0  1.021014  0  0  0.110431  0.140292  0  1.029329  0
C  C22  1  0.89317398  0.95929574  0.78718921  1  0  0.726839  0  3.841871  0  0  0.682994  0  4.128547  0  0  0.718412  0  4.115602  0  0  0.241994  0.658256  0  4.132524  0
C  C23  1  0.60682121  0.17232870  0.21287388  1  0  0.72642  0  3.842821  0  0  0.682452  0  4.129207  0  0  0.717829  0  4.116312  0  0  0.241652  0.657761  0  4.133106  0
C  C24  1  0.10683081  0.04070005  0.21281088  1  0  0.72708  0  3.841475  0  0  0.683196  0  4.128168  0  0  0.71864  0  4.115184  0  0  0.242122  0.658459  0  4.13214  0
C  C25  1  0.39317346  0.82766612  0.78712073  1  0  0.726176  0  3.843413  0  0  0.682292  0  4.129626  0  0  0.717649  0  4.116765  0  0  0.24156  0.657604  0  4.133519  0
C  C26  1  0.87570224  0.93409984  0.65811529  1  0  0.018895  0  3.698811  0  0  0.039119  0  3.931235  0  0  0.036687  0  3.95013  0  0  0.003  0.040003  0  3.920707  0
C  C27  1  0.62435203  0.27618315  0.34190758  1  0  0.01772  0  3.701289  0  0  0.038451  0  3.933395  0  0  0.03604  0  3.952271  0  0  0.003158  0.039341  0  3.922871  0
C  C28  1  0.12430718  0.06589691  0.34188877  1  0  0.018853  0  3.69877  0  0  0.039153  0  3.931109  0  0  0.036713  0  3.949995  0  0  0.003022  0.040034  0  3.92058  0
C  C29  1  0.37564531  0.72381847  0.65809288  1  0  0.017779  0  3.701614  0  0  0.038528  0  3.933635  0  0  0.036123  0  3.952508  0  0  0.003232  0.039419  0  3.923112  0
C  C30  1  0.97683932  0.87308069  0.60846757  1  0  -0.174654  0  3.662687  0  0  -0.212037  0  3.916344  0  0  -0.216034  0  3.933451  0  0  -0.08536  -0.209634  0  3.906127  0
C  C31  1  0.52324358  0.26475224  0.39157444  1  0  -0.173767  0  3.662341  0  0  -0.211051  0  3.915923  0  0  -0.215123  0  3.933183  0  0  -0.085355  -0.208644  0  3.905578  0
C  C32  1  0.02316550  0.12691997  0.39153454  1  0  -0.174741  0  3.662527  0  0  -0.212106  0  3.916175  0  0  -0.216103  0  3.933272  0  0  -0.085379  -0.209723  0  3.905994  0
C  C33  1  0.47675289  0.73525033  0.60843002  1  0  -0.173813  0  3.662529  0  0  -0.211157  0  3.916125  0  0  -0.215247  0  3.933426  0  0  -0.085445  -0.208748  0  3.905781  0
C  C34  1  0.94499228  0.84201719  0.48408534  1  0  0.31018  0  3.797976  0  0  0.306596  0  4.081259  0  0  0.31676  0  4.096786  0  0  0.140668  0.299374  0  4.070966  0
C  C35  1  0.55502023  0.35802153  0.51593670  1  0  0.309195  0  3.797061  0  0  0.305268  0  4.081105  0  0  0.315433  0  4.096597  0  0  0.140397  0.298107  0  4.070774  0
C  C36  1  0.05501584  0.15798345  0.51592074  1  0  0.310204  0  3.798244  0  0  0.306613  0  4.081506  0  0  0.31678  0  4.097028  0  0  0.140609  0.29939  0  4.071205  0
C  C37  1  0.44497800  0.64197909  0.48406743  1  0  0.309068  0  3.797146  0  0  0.305193  0  4.081137  0  0  0.315355  0  4.096634  0  0  0.140329  0.298031  0  4.070811  0
C  C38  1  0.73864891  0.93278314  0.46338392  1  0  0.288893  0  3.855352  0  0  0.283846  0  4.141371  0  0  0.294172  0  4.156381  0  0  0.134182  0.276604  0  4.131227  0
C  C39  1  0.76131766  0.46948639  0.53658839  1  0  0.288309  0  3.855481  0  0  0.283651  0  4.141065  0  0  0.29399  0  4.156014  0  0  0.134178  0.276357  0  4.130988  0
C  C40  1  0.26136075  0.06721946  0.53661955  1  0  0.288758  0  3.855326  0  0  0.283722  0  4.141351  0  0  0.294045  0  4.156353  0  0  0.134125  0.276492  0  4.131188  0
C  C41  1  0.23868603  0.53050941  0.46340987  1  0  0.288334  0  3.855339  0  0  0.283714  0  4.14085  0  0  0.294057  0  4.155794  0  0  0.134237  0.276422  0  4.130769  0
C  C42  1  0.75429501  0.96623792  0.58514180  1  0  -0.194184  0  3.729553  0  0  -0.23053  0  3.987011  0  0  -0.235448  0  4.00572  0  0  -0.097372  -0.227548  0  3.975683  0
C  C43  1  0.74575365  0.38124983  0.41486242  1  0  -0.192626  0  3.731641  0  0  -0.22949  0  3.988352  0  0  -0.234554  0  4.007257  0  0  -0.097181  -0.226466  0  3.976889  0
C  C44  1  0.24571223  0.03376371  0.41486137  1  0  -0.194085  0  3.7297  0  0  -0.230428  0  3.987045  0  0  -0.235391  0  4.005814  0  0  -0.097315  -0.227451  0  3.975719  0
C  C45  1  0.25424545  0.61874984  0.58513925  1  0  -0.192633  0  3.731401  0  0  -0.229494  0  3.988088  0  0  -0.234559  0  4.006991  0  0  -0.097178  -0.226469  0  3.976626  0
C  C46  1  0.25010013  0.21583154  0.00006649  1  0  0.649919  0  3.896437  0  0  0.603653  0  4.185316  0  0  0.636443  0  4.177885  0  0  0.209429  0.582163  0  4.183443  0
C  C47  1  0.74989698  0.78416913  0.99993044  1  0  0.650016  0  3.89632  0  0  0.603723  0  4.185235  0  0  0.636514  0  4.177802  0  0  0.209458  0.582234  0  4.183368  0
C  C48  1  0.25016673  0.34384722  0.00018910  1  0  0.040779  0  3.69805  0  0  0.059782  0  3.935197  0  0  0.059293  0  3.953406  0  0  0.009082  0.059519  0  3.924046  0
C  C49  1  0.74983390  0.65615442  0.99980996  1  0  0.040688  0  3.698125  0  0  0.059709  0  3.935231  0  0  0.059222  0  3.953443  0  0  0.009067  0.059446  0  3.924082  0
C  C50  1  0.27190353  0.35550286  0.90455846  1  0  -0.179323  0  3.664022  0  0  -0.215952  0  3.923179  0  0  -0.221338  0  3.94034  0  0  -0.084902  -0.212591  0  3.912548  0
C  C51  1  0.22835257  0.45105243  0.09581672  1  0  -0.178845  0  3.662078  0  0  -0.215345  0  3.921207  0  0  -0.220703  0  3.938323  0  0  -0.085098  -0.211955  0  3.910512  0
C  C52  1  0.72809710  0.64449878  0.09544060  1  0  -0.179385  0  3.66415  0  0  -0.215991  0  3.923302  0  0  -0.22137  0  3.940436  0  0  -0.084867  -0.212626  0  3.91267  0
C  C53  1  0.77164697  0.54894921  0.90418127  1  0  -0.178832  0  3.662121  0  0  -0.215315  0  3.921185  0  0  -0.220678  0  3.938305  0  0  -0.085124  -0.211925  0  3.910489  0
C  C54  1  0.27230794  0.47692417  0.91060779  1  0  0.30918  0  3.804157  0  0  0.300647  0  4.086587  0  0  0.311437  0  4.102428  0  0  0.144214  0.293202  0  4.076012  0
C  C55  1  0.22775764  0.56636347  0.08961810  1  0  0.307903  0  3.803795  0  0  0.298899  0  4.087159  0  0  0.309684  0  4.103007  0  0  0.14323  0.291419  0  4.076568  0
C  C56  1  0.72769754  0.52307942  0.08939417  1  0  0.309303  0  3.804109  0  0  0.300762  0  4.086529  0  0  0.311556  0  4.102369  0  0  0.144213  0.29331  0  4.075972  0
C  C57  1  0.77224652  0.43363914  0.91038309  1  0  0.307954  0  3.803871  0  0  0.298952  0  4.087215  0  0  0.309738  0  4.103063  0  0  0.143254  0.291472  0  4.076621  0
N  N58  1  0.82945482  0.87026418  0.41197767  1  0  -0.388755  0  3.104821  0  0  -0.362907  0  3.36941  0  0  -0.375061  0  3.382633  0  0  -0.320718  -0.354265  0  3.360358  0
N  N59  1  0.67051986  0.45838326  0.58801762  1  0  -0.388029  0  3.105189  0  0  -0.362086  0  3.36963  0  0  -0.374218  0  3.382818  0  0  -0.320354  -0.353471  0  3.360507  0
N  N60  1  0.17055374  0.12973843  0.58802473  1  0  -0.388689  0  3.104845  0  0  -0.362847  0  3.369445  0  0  -0.374998  0  3.382665  0  0  -0.320621  -0.354208  0  3.360385  0
N  N61  1  0.32948296  0.54161351  0.41198080  1  0  -0.387972  0  3.105273  0  0  -0.362035  0  3.369645  0  0  -0.374165  0  3.382831  0  0  -0.32032  -0.35342  0  3.360523  0
N  N62  1  0.25000456  0.58095792  0.00009218  1  0  -0.430918  0  3.160343  0  0  -0.375411  0  3.392752  0  0  -0.389874  0  3.405245  0  0  -0.309669  -0.365515  0  3.384773  0
N  N63  1  0.74999763  0.41904567  0.99990811  1  0  -0.431027  0  3.160465  0  0  -0.375532  0  3.392903  0  0  -0.389997  0  3.405392  0  0  -0.309701  -0.365633  0  3.384926  0
Cl  Cl64  1  0.05869988  0.75839013  0.41230506  1  0  -0.102243  0  1.404068  0  0  -0.088894  0  1.650498  0  0  -0.0944  0  1.64818  0  0  0.003537  -0.084827  0  1.652204  0
Cl  Cl65  1  0.44130885  0.34612554  0.58774415  1  0  -0.10208  0  1.403512  0  0  -0.088644  0  1.650104  0  0  -0.094153  0  1.647797  0  0  0.003558  -0.084587  0  1.651736  0
Cl  Cl66  1  0.94131221  0.24161344  0.58770178  1  0  -0.102271  0  1.404197  0  0  -0.088919  0  1.650626  0  0  -0.094428  0  1.64831  0  0  0.003504  -0.084856  0  1.652332  0
Cl  Cl67  1  0.55869312  0.65387706  0.41225798  1  0  -0.102044  0  1.403411  0  0  -0.088626  0  1.649989  0  0  -0.094137  0  1.647683  0  0  0.003563  -0.084566  0  1.651624  0
Cl  Cl68  1  0.59027872  0.96798630  0.36650578  1  0  -0.063039  0  1.3751  0  0  -0.047915  0  1.617913  0  0  -0.050809  0  1.609847  0  0  0.032898  -0.045892  0  1.623613  0
Cl  Cl69  1  0.90970541  0.60155175  0.63351708  1  0  -0.062908  0  1.375108  0  0  -0.047954  0  1.617827  0  0  -0.05085  0  1.609781  0  0  0.032993  -0.045923  0  1.623511  0
Cl  Cl70  1  0.40973006  0.03201730  0.63349478  1  0  -0.062944  0  1.375209  0  0  -0.047824  0  1.618003  0  0  -0.050711  0  1.609937  0  0  0.032947  -0.045809  0  1.623714  0
Cl  Cl71  1  0.09029498  0.39844404  0.36648103  1  0  -0.062931  0  1.375048  0  0  -0.047998  0  1.617743  0  0  -0.0509  0  1.609709  0  0  0.032965  -0.045968  0  1.623428  0
Cl  Cl72  1  0.30502824  0.50078072  0.79952204  1  0  -0.061536  0  1.371441  0  0  -0.047224  0  1.606707  0  0  -0.051575  0  1.601794  0  0  0.033681  -0.044105  0  1.610241  0
Cl  Cl73  1  0.19491404  0.70123496  0.20056168  1  0  -0.061258  0  1.371819  0  0  -0.046732  0  1.607216  0  0  -0.051094  0  1.602297  0  0  0.033907  -0.043567  0  1.610815  0
Cl  Cl74  1  0.69497504  0.49922286  0.20047932  1  0  -0.061577  0  1.371427  0  0  -0.047262  0  1.606691  0  0  -0.051616  0  1.601776  0  0  0.033664  -0.044138  0  1.610232  0
Cl  Cl75  1  0.80508902  0.29876765  0.79943922  1  0  -0.061238  0  1.371843  0  0  -0.046715  0  1.60725  0  0  -0.051081  0  1.602328  0  0  0.033918  -0.043553  0  1.610847  0
O  O76  1  0.01858165  0.95531281  0.86078338  1  0  -0.747863  0  2.105054  0  0  -0.709123  0  2.372458  0  0  -0.733949  0  2.358359  0  0  -0.40897  -0.67963  0  2.381657  0
O  O77  1  0.48137461  0.09479322  0.13935595  1  0  -0.747112  0  2.104147  0  0  -0.708421  0  2.371662  0  0  -0.733243  0  2.35764  0  0  -0.408612  -0.678902  0  2.380785  0
O  O78  1  0.98139699  0.04468391  0.13921377  1  0  -0.748049  0  2.104397  0  0  -0.709327  0  2.371866  0  0  -0.734165  0  2.357755  0  0  -0.40911  -0.679838  0  2.381067  0
O  O79  1  0.51860887  0.90520548  0.86064026  1  0  -0.746948  0  2.104375  0  0  -0.708306  0  2.371836  0  0  -0.733117  0  2.357822  0  0  -0.408545  -0.678795  0  2.380956  0
O  O80  1  0.09094565  0.77497040  0.93994922  1  0  -0.914043  0  1.916193  0  0  -0.874178  0  2.11185  0  0  -0.892365  0  2.080092  0  0  -0.642648  -0.851812  0  2.138822  0
O  O81  1  0.40907085  0.83507512  0.06014834  1  0  -0.915326  0  1.915871  0  0  -0.875637  0  2.110708  0  0  -0.893807  0  2.078943  0  0  -0.643387  -0.853272  0  2.13766  0
O  O82  1  0.90905388  0.22502635  0.06005060  1  0  -0.91406  0  1.916092  0  0  -0.874194  0  2.111802  0  0  -0.89238  0  2.080042  0  0  -0.642601  -0.851825  0  2.138753  0
O  O83  1  0.59093001  0.16492748  0.93985272  1  0  -0.915322  0  1.915882  0  0  -0.875622  0  2.110718  0  0  -0.89379  0  2.078955  0  0  -0.643345  -0.853279  0  2.137696  0
O  O84  1  0.77968392  0.98096477  0.81338774  1  0  -0.716206  0  2.027434  0  0  -0.677757  0  2.279638  0  0  -0.701799  0  2.265793  0  0  -0.383855  -0.651011  0  2.290337  0
O  O85  1  0.72027798  0.16763636  0.18661741  1  0  -0.716164  0  2.027469  0  0  -0.677986  0  2.280017  0  0  -0.702002  0  2.266185  0  0  -0.383796  -0.651231  0  2.290599  0
O  O86  1  0.22030505  0.01903393  0.18660998  1  0  -0.716195  0  2.027784  0  0  -0.677744  0  2.280029  0  0  -0.701788  0  2.26617  0  0  -0.38387  -0.650992  0  2.29073  0
O  O87  1  0.27971692  0.83235944  0.81337690  1  0  -0.716135  0  2.027658  0  0  -0.677972  0  2.280131  0  0  -0.701981  0  2.266307  0  0  -0.383785  -0.65121  0  2.290717  0
O  O88  1  0.30725528  0.13039578  0.93437715  1  0  -0.676137  0  2.005002  0  0  -0.628639  0  2.232751  0  0  -0.653695  0  2.223865  0  0  -0.33747  -0.604409  0  2.238227  0
O  O89  1  0.19287438  0.19590218  0.06564672  1  0  -0.67546  0  2.005799  0  0  -0.628158  0  2.233512  0  0  -0.65322  0  2.224675  0  0  -0.337473  -0.603919  0  2.238962  0
O  O90  1  0.69273589  0.86960294  0.06561734  1  0  -0.676145  0  2.004913  0  0  -0.628664  0  2.232699  0  0  -0.653721  0  2.223812  0  0  -0.337492  -0.604442  0  2.238176  0
O  O91  1  0.80712054  0.80409848  0.93434960  1  0  -0.675512  0  2.005831  0  0  -0.628188  0  2.233537  0  0  -0.653251  0  2.224702  0  0  -0.337472  -0.603953  0  2.238989  0
