# generated using pymatgen
data_CuPH13C16S(NO3)2
_symmetry_space_group_name_H-M   'P 1'
_cell_length_a   9.48271198
_cell_length_b   9.48276730
_cell_length_c   10.43423572
_cell_angle_alpha   75.30624399
_cell_angle_beta   75.30624354
_cell_angle_gamma   71.31662999
_symmetry_Int_Tables_number   1
_chemical_formula_structural   CuPH13C16S(NO3)2
_chemical_formula_sum   'Cu2 P2 H26 C32 S2 N4 O12'
_cell_volume   844.40489732
_cell_formula_units_Z   2
loop_
 _symmetry_equiv_pos_site_id
 _symmetry_equiv_pos_as_xyz
  1  'x, y, z'
loop_
 _atom_site_type_symbol
 _atom_site_label
 _atom_site_symmetry_multiplicity
 _atom_site_fract_x
 _atom_site_fract_y
 _atom_site_fract_z
 _atom_site_occupancy
 _atom_site_hle17_ddec_charge
 _atom_site_hle17_ddec_spin_density
 _atom_site_hle17_ddec_sum_bond_order
 _atom_site_hle17_magmom
 _atom_site_hse06_10hf_ddec_charge
 _atom_site_hse06_10hf_ddec_spin_density
 _atom_site_hse06_10hf_ddec_sum_bond_order
 _atom_site_hse06_10hf_magmom
 _atom_site_hse06_ddec_charge
 _atom_site_hse06_ddec_spin_density
 _atom_site_hse06_ddec_sum_bond_order
 _atom_site_hse06_magmom
 _atom_site_pbe_cm5_charge
 _atom_site_pbe_ddec_charge
 _atom_site_pbe_ddec_spin_density
 _atom_site_pbe_ddec_sum_bond_order
 _atom_site_pbe_magmom
Cu  Cu0  1  0.23826484  0.76173786  0.49999856  1  0.996635  0.749702  1.654887  0.545  0.988284  0.829447  2.011517  0.665  1.055843  0.899232  1.97667  0.745  0.789755  0.927714  0.774302  2.069988  0.608
Cu  Cu1  1  0.29129856  0.70870049  0.00000189  1  1.000529  -0.756641  1.739097  -0.552  0.980067  -0.830408  2.122476  -0.667  1.053788  -0.898158  2.072207  -0.745  0.785177  0.928943  -0.777365  2.16775  -0.612
P  P2  1  0.11913782  0.61631144  0.31298146  1  1.458477  0.001183  4.767178  0.0  1.314535  0.001295  5.276327  0.0  1.370666  0.000696  5.232739  -0.001  0.369475  1.275611  0.001677  5.302753  0.0
P  P3  1  0.38368309  0.88086143  0.68701836  1  1.458317  0.001174  4.767159  0.0  1.314367  0.001291  5.276308  0.0  1.370501  0.000694  5.232726  -0.001  0.369433  1.275434  0.001676  5.302728  0.0
H  H4  1  0.21763458  0.39263975  0.26082435  1  0.436697  0.00017  0.785144  0.0  0.424422  0.000216  0.829074  0.0  0.432332  0.000161  0.82088  0.0  0.351263  0.418463  0.000342  0.83568  0.001
H  H5  1  0.60735373  0.78236660  0.73918026  1  0.436699  0.000169  0.78513  0.0  0.424405  0.000215  0.829091  0.0  0.432314  0.000161  0.820902  0.0  0.35126  0.418449  0.000342  0.835692  0.001
H  H6  1  0.61661123  0.99184290  0.32065709  1  0.10389  3.3e-05  0.929157  0.0  0.116639  2e-06  0.983842  0.0  0.12031  0.0  0.981635  0.0  0.106125  0.113629  1.5e-05  0.986286  0.0
H  H7  1  0.00815956  0.38339746  0.67933208  1  0.103884  2.9e-05  0.929163  0.0  0.116633  2e-06  0.983849  0.0  0.120304  0.0  0.981642  0.0  0.10612  0.113621  1.5e-05  0.986298  0.0
H  H8  1  0.86776923  0.87090857  0.39034822  1  0.083176  -0.000136  0.994009  0.0  0.092929  -4.6e-05  1.058179  0.0  0.095176  -4.9e-05  1.058558  0.0  0.096188  0.091474  -4.8e-05  1.057825  0.0
H  H9  1  0.12908956  0.13223909  0.60963939  1  0.083133  -0.000136  0.994045  0.0  0.092896  -4.6e-05  1.058209  0.0  0.095127  -5e-05  1.058606  0.0  0.096151  0.091438  -4.8e-05  1.057847  0.0
H  H10  1  0.96361812  0.53556334  0.14472691  1  0.09791  -5.5e-05  0.980522  0.0  0.105934  2.2e-05  1.046333  0.0  0.109458  8e-06  1.043451  0.0  0.100845  0.103122  1.2e-05  1.049055  0.0
H  H11  1  0.46443143  0.03637961  0.85527379  1  0.097834  -5.8e-05  0.98045  0.0  0.105841  2.2e-05  1.046298  0.0  0.109366  8e-06  1.043411  0.0  0.100803  0.103025  1.2e-05  1.049017  0.0
H  H12  1  0.71585836  0.65594459  0.07568145  1  0.113582  8.4e-05  0.968301  0.0  0.121375  4.5e-05  1.031144  0.0  0.124789  2.7e-05  1.029484  0.0  0.10224  0.118869  6.7e-05  1.032475  0.0
H  H13  1  0.34405000  0.28414009  0.92431697  1  0.113651  7.8e-05  0.968279  0.0  0.121448  4.4e-05  1.031107  0.0  0.124866  2.7e-05  1.029434  0.0  0.102257  0.118942  6.7e-05  1.032452  0.0
H  H14  1  0.92797397  0.82344303  0.65083043  1  0.112172  0.001213  0.939834  0.002  0.119725  0.00092  0.997201  0.002  0.122191  0.000643  0.994302  0.001  0.128295  0.117631  0.0011  0.999573  0.002
H  H15  1  0.17655179  0.07203268  0.34916032  1  0.112184  0.001214  0.939762  0.002  0.119745  0.00092  0.997146  0.002  0.122214  0.000643  0.994244  0.001  0.128293  0.117652  0.001101  0.999522  0.002
H  H16  1  0.69345755  0.04413858  0.65579591  1  0.115368  0.000586  0.962184  0.0  0.122977  0.000473  1.027533  0.0  0.125854  0.000329  1.026887  0.0  0.110338  0.120648  0.000503  1.028643  0.001
H  H17  1  0.95584864  0.30654651  0.34419275  1  0.11537  0.000589  0.962118  0.001  0.122959  0.000473  1.027498  0.0  0.125837  0.000329  1.02685  0.0  0.110304  0.12063  0.000503  1.028611  0.001
H  H18  1  0.50706852  0.20423763  0.52101108  1  0.117351  0.000566  0.946944  0.0  0.129036  0.00042  1.001884  0.0  0.131341  0.000287  1.002608  0.0  0.112839  0.127162  0.000541  1.002063  0.001
H  H19  1  0.79577633  0.49291658  0.47898514  1  0.117355  0.000565  0.947052  0.0  0.129062  0.00042  1.001949  0.0  0.13137  0.000288  1.002665  0.0  0.112897  0.127192  0.000541  1.00213  0.001
H  H20  1  0.28871714  0.43520963  0.52118894  1  0.093371  0.000976  0.979919  0.002  0.098567  0.000779  1.046095  0.001  0.100254  0.000547  1.044847  0.001  0.121136  0.097307  0.000852  1.046674  0.001
H  H21  1  0.56481320  0.71127882  0.47881681  1  0.093307  0.000976  0.979891  0.002  0.098509  0.000779  1.046056  0.001  0.10019  0.000546  1.044816  0.001  0.121123  0.097256  0.000852  1.046636  0.001
H  H22  1  0.18814986  0.97930035  0.12141121  1  0.093063  -0.001255  0.974333  -0.002  0.095681  -0.000914  1.044252  -0.002  0.097417  -0.000623  1.041941  -0.001  0.120362  0.094286  -0.001118  1.045982  -0.002
H  H23  1  0.02069499  0.81184868  0.87859798  1  0.093066  -0.001258  0.974393  -0.002  0.09568  -0.000914  1.044343  -0.002  0.097425  -0.000624  1.042012  -0.001  0.12033  0.09428  -0.001118  1.046068  -0.002
H  H24  1  0.97298057  0.21560951  0.11565637  1  0.10938  -0.000664  0.94519  -0.001  0.120393  -0.000533  1.003619  0.0  0.122805  -0.000366  1.003751  0.0  0.11049  0.118662  -0.000614  1.003817  -0.001
H  H25  1  0.78439277  0.02702427  0.88434211  1  0.109334  -0.000664  0.945147  -0.001  0.120321  -0.000532  1.003608  0.0  0.122732  -0.000366  1.003741  0.0  0.110456  0.118586  -0.000614  1.003805  -0.001
H  H26  1  0.69919508  0.28633646  0.79664231  1  0.098298  -0.000603  0.95792  0.0  0.108398  -0.000496  1.019781  0.0  0.110355  -0.000351  1.021243  0.0  0.105563  0.106512  -0.000546  1.020202  -0.001
H  H27  1  0.71366434  0.30080776  0.20336538  1  0.098384  -0.000608  0.957832  0.0  0.108488  -0.000496  1.01971  0.0  0.11045  -0.000351  1.021162  0.0  0.105619  0.106594  -0.000546  1.020156  -0.001
H  H28  1  0.47183998  0.51148228  0.80635339  1  0.09794  -0.001007  0.946099  -0.002  0.104444  -0.000746  1.008817  -0.001  0.106096  -0.000521  1.007706  -0.001  0.121174  0.102983  -0.000885  1.010109  -0.002
H  H29  1  0.48851377  0.52815734  0.19365543  1  0.097787  -0.001007  0.946221  -0.002  0.104408  -0.000745  1.008832  -0.001  0.106059  -0.000521  1.00772  -0.001  0.121176  0.102938  -0.000885  1.010119  -0.002
C  C30  1  0.65105812  0.82950105  0.19561878  1  -0.098672  0.003193  3.725855  0.003  -0.074729  0.000935  3.968438  0.001  -0.080441  0.000645  3.990386  0.001  -0.015375  -0.071024  0.001254  3.953313  0.001
C  C31  1  0.17049735  0.34894383  0.80437972  1  -0.098517  0.003175  3.72568  0.003  -0.074578  0.000923  3.96826  0.001  -0.080289  0.000657  3.99021  0.001  -0.015331  -0.070879  0.001254  3.953138  0.001
C  C32  1  0.69361156  0.89141373  0.28343291  1  -0.068206  -0.000972  3.73111  -0.001  -0.091257  -0.000283  3.984128  0.0  -0.091633  -0.000311  4.002355  0.0  -0.085825  -0.090279  -0.000164  3.971344  0.0
C  C33  1  0.10858595  0.30639504  0.71656037  1  -0.068236  -0.000946  3.73102  -0.001  -0.091292  -0.000286  3.984042  0.0  -0.091667  -0.000309  4.002264  0.0  -0.085854  -0.090316  -0.000164  3.971254  0.0
C  C34  1  0.83378787  0.82365246  0.32216076  1  -0.036312  0.001019  3.749997  0.001  -0.057721  0.000301  3.995182  0.0  -0.056915  0.000275  4.014903  0.0  -0.084507  -0.058176  0.000855  3.981377  0.001
C  C35  1  0.17634127  0.16621648  0.67783551  1  -0.036346  0.000991  3.750046  0.001  -0.057754  0.0003  3.995221  0.0  -0.056935  0.000277  4.014951  0.0  -0.084542  -0.058205  0.000855  3.981392  0.001
C  C36  1  0.93192139  0.69396433  0.27389222  1  -0.261274  0.005139  3.796653  0.005  -0.222186  0.002445  4.038576  0.002  -0.231593  0.001615  4.059203  0.002  -0.031669  -0.215608  0.003621  4.024311  0.004
C  C37  1  0.30603063  0.06808179  0.72610513  1  -0.261161  0.005162  3.796643  0.005  -0.22205  0.002447  4.03851  0.002  -0.231459  0.001619  4.05914  0.002  -0.031582  -0.215469  0.003622  4.02422  0.004
C  C38  1  0.88692132  0.63241791  0.18725386  1  -0.04138  0.002007  3.757721  0.002  -0.067975  0.001189  4.013205  0.001  -0.068225  0.00091  4.034201  0.001  -0.085321  -0.06781  0.001403  3.99896  0.001
C  C39  1  0.36757276  0.11307657  0.81275147  1  -0.041262  0.001989  3.757692  0.002  -0.06786  0.001188  4.013208  0.001  -0.068112  0.000908  4.034208  0.001  -0.085303  -0.067693  0.001404  3.99895  0.001
C  C40  1  0.74711992  0.70047511  0.14755438  1  -0.077172  -5.4e-05  3.730341  0.0  -0.100803  8.2e-05  3.980783  0.0  -0.102359  -9.1e-05  4.002047  0.0  -0.090246  -0.099355  8.9e-05  3.965923  0.0
C  C41  1  0.29952437  0.25288153  0.85244317  1  -0.077434  -2.1e-05  3.730643  0.0  -0.101075  8.1e-05  3.981102  0.0  -0.102626  -8.9e-05  4.002362  0.0  -0.090327  -0.099632  8.9e-05  3.966249  0.0
C  C42  1  0.92623478  0.93316977  0.58455515  1  0.134892  -0.005837  3.65755  -0.006  0.107274  -0.000527  3.913234  -0.001  0.11654  -0.001646  3.929198  -0.003  0.055464  0.100802  0.00034  3.902046  0.0
C  C43  1  0.06682304  0.07377107  0.41544193  1  0.13473  -0.00584  3.657426  -0.006  0.107052  -0.000525  3.913197  -0.001  0.116314  -0.001645  3.929164  -0.003  0.055272  0.10058  0.000341  3.902017  0.0
C  C44  1  0.79814096  0.05654334  0.58690124  1  -0.15727  0.008704  3.688916  0.009  -0.175808  0.003475  3.937607  0.004  -0.183743  0.003067  3.958051  0.004  -0.078346  -0.17021  0.003774  3.92441  0.005
C  C45  1  0.94344159  0.20186019  0.41308772  1  -0.15723  0.008698  3.688575  0.009  -0.175736  0.003474  3.937293  0.004  -0.183669  0.003069  3.95774  0.004  -0.078234  -0.170136  0.003774  3.924098  0.005
C  C46  1  0.80529523  0.19469452  0.49999808  1  0.091677  -0.006503  3.772523  -0.006  0.102656  -0.002122  4.003248  -0.002  0.106793  -0.002364  4.024483  -0.002  0.013148  0.099355  -0.00208  3.989659  -0.002
C  C47  1  0.67181053  0.32818835  0.49999780  1  0.087882  -0.005868  3.779483  -0.006  0.100821  -0.002013  4.008767  -0.002  0.105725  -0.002201  4.029201  -0.002  0.010401  0.096822  -0.001997  3.996912  -0.002
C  C48  1  0.52609889  0.31385751  0.51235852  1  -0.155153  0.007994  3.689038  0.009  -0.17152  0.003312  3.929216  0.004  -0.180286  0.002902  3.951278  0.003  -0.077434  -0.165914  0.003482  3.916011  0.004
C  C49  1  0.68615473  0.47388884  0.48764702  1  -0.155164  0.007991  3.689259  0.009  -0.171561  0.003311  3.929417  0.004  -0.180321  0.002903  3.951472  0.003  -0.077505  -0.165951  0.003482  3.916207  0.004
C  C50  1  0.40308985  0.44203963  0.51209506  1  0.138004  -0.00535  3.676288  -0.006  0.110153  -0.00053  3.929866  -0.001  0.119659  -0.001516  3.947506  -0.002  0.052186  0.103825  0.000108  3.916894  0.0
C  C51  1  0.55797612  0.59690637  0.48792193  1  0.138023  -0.005348  3.676585  -0.006  0.110201  -0.000528  3.93013  -0.001  0.119712  -0.001514  3.947768  -0.002  0.05221  0.103865  0.000109  3.917177  0.0
C  C52  1  0.09796104  0.99770976  0.06688507  1  0.140255  0.006457  3.670474  0.007  0.113666  0.000575  3.926226  0.001  0.122433  0.001793  3.945978  0.003  0.05213  0.10734  -0.000333  3.913537  0.0
C  C53  1  0.00229464  0.90203931  0.93311770  1  0.140213  0.006461  3.670645  0.007  0.113584  0.000576  3.926406  0.001  0.122352  0.001793  3.946163  0.003  0.052067  0.107262  -0.000332  3.9137  0.0
C  C54  1  0.97553316  0.12609796  0.06661564  1  -0.146697  -0.009874  3.68887  -0.011  -0.166232  -0.003836  3.936788  -0.005  -0.174796  -0.0034  3.959438  -0.004  -0.076158  -0.160372  -0.004221  3.922133  -0.005
C  C55  1  0.87390438  0.02446940  0.93338533  1  -0.146679  -0.009871  3.688919  -0.011  -0.166164  -0.003838  3.93684  -0.005  -0.174728  -0.003399  3.959491  -0.004  -0.076115  -0.160302  -0.004221  3.922175  -0.005
C  C56  1  0.85912264  0.14087563  0.00000338  1  0.103486  0.007449  3.752753  0.007  0.112247  0.002392  3.985723  0.002  0.11665  0.002662  4.006564  0.003  0.019837  0.108907  0.002296  3.971883  0.002
C  C57  1  0.72615499  0.27384228  0.00000353  1  0.123596  0.005881  3.73301  0.005  0.134443  0.002059  3.961892  0.002  0.140052  0.002275  3.980855  0.002  0.026054  0.130007  0.002047  3.949356  0.002
C  C58  1  0.65574354  0.33482505  0.88768013  1  -0.134978  -0.007765  3.678365  -0.009  -0.15388  -0.003143  3.923103  -0.004  -0.161807  -0.002791  3.943468  -0.003  -0.072329  -0.148624  -0.003495  3.911205  -0.004
C  C59  1  0.66517913  0.34425833  0.11232311  1  -0.135129  -0.007765  3.678326  -0.008  -0.154062  -0.00314  3.923145  -0.004  -0.161989  -0.002792  3.943508  -0.003  -0.072394  -0.148811  -0.003495  3.911241  -0.004
C  C60  1  0.53028804  0.46018639  0.89121430  1  0.135113  0.004884  3.681617  0.005  0.107382  0.000371  3.935462  0.001  0.116602  0.001409  3.953523  0.002  0.050611  0.10045  -0.000345  3.924989  0.0
C  C61  1  0.53981317  0.46971015  0.10879262  1  0.13539  0.004887  3.681561  0.005  0.107573  0.000369  3.9354  0.001  0.116794  0.001411  3.953458  0.002  0.05064  0.100654  -0.000345  3.924912  0.0
S  S62  1  0.47273907  0.91912139  0.14401008  1  1.288558  -0.000326  5.696136  0.0  1.20892  -5.6e-05  6.206546  0.0  1.257729  -4.9e-05  6.179292  0.0  0.491023  1.175098  -6e-06  6.222803  0.0
S  S63  1  0.08087862  0.52726383  0.85598861  1  1.288391  -0.000319  5.696376  0.0  1.208754  -7.2e-05  6.206799  0.0  1.25756  -2.9e-05  6.179554  0.0  0.490986  1.174931  -6e-06  6.223049  0.0
N  N64  1  0.05773432  0.94226434  0.49999267  1  -0.284978  0.079745  3.307013  0.1  -0.239318  0.052227  3.601387  0.07  -0.266769  0.042633  3.621259  0.06  -0.340518  -0.219161  0.058005  3.588439  0.075
N  N65  1  0.41858517  0.58143109  0.49999841  1  -0.294111  0.074697  3.297829  0.093  -0.252349  0.047912  3.59698  0.064  -0.279528  0.039167  3.615124  0.055  -0.338948  -0.231564  0.053291  3.584312  0.069
N  N66  1  0.11135058  0.88864924  0.00000351  1  -0.301344  -0.089137  3.341777  -0.113  -0.256571  -0.056133  3.634761  -0.076  -0.28818  -0.045651  3.659728  -0.065  -0.344845  -0.235107  -0.06295  3.618512  -0.082
N  N67  1  0.47326290  0.52673801  0.00000253  1  -0.286218  -0.075171  3.289622  -0.094  -0.239177  -0.048842  3.578133  -0.065  -0.267944  -0.040352  3.598765  -0.056  -0.34004  -0.220008  -0.054799  3.566357  -0.071
O  O68  1  0.35741571  0.89166240  0.26490840  1  -0.688523  0.001042  1.998156  0.003  -0.655271  -0.000197  2.27174  0.001  -0.67532  -0.000532  2.253235  0.0  -0.351559  -0.638722  -1.7e-05  2.283929  0.001
O  O69  1  0.10833885  0.64258601  0.73508736  1  -0.688496  0.001041  1.998254  0.003  -0.655226  -0.000176  2.271802  0.001  -0.675275  -0.00055  2.253302  0.0  -0.351555  -0.63868  -1.7e-05  2.283993  0.001
O  O70  1  0.47501813  0.84312597  0.03606390  1  -0.702468  0.000418  1.974619  -0.001  -0.668375  0.000699  2.243569  0.0  -0.688022  0.000847  2.2253  0.0  -0.358144  -0.653011  0.000697  2.255697  0.0
O  O71  1  0.15687636  0.52497941  0.96393459  1  -0.702379  0.000423  1.974718  -0.001  -0.66829  0.000708  2.243671  0.0  -0.687942  0.000838  2.225408  0.0  -0.358115  -0.652926  0.000697  2.2558  0.0
O  O72  1  0.46734593  0.07994274  0.09858261  1  -0.670969  0.001484  1.893197  0.002  -0.628018  0.000357  2.125119  0.001  -0.648628  0.000156  2.11361  0.0  -0.364876  -0.613229  0.000368  2.132989  0.0
O  O73  1  0.92005467  0.53265499  0.90142055  1  -0.670937  0.001476  1.893258  0.002  -0.627991  0.000361  2.125187  0.001  -0.648601  0.000147  2.113682  0.0  -0.364853  -0.613204  0.000368  2.133057  0.0
O  O74  1  0.14820971  0.43325196  0.33785924  1  -0.718173  0.000453  1.948019  0.0  -0.656482  0.000226  2.160917  0.0  -0.675599  0.000183  2.139946  0.0  -0.38491  -0.643196  0.000225  2.175951  0.0
O  O75  1  0.56674570  0.85178695  0.66214155  1  -0.718124  0.000459  1.94796  0.0  -0.65643  0.000232  2.160899  0.0  -0.675547  0.000181  2.13993  0.0  -0.384884  -0.643145  0.000225  2.175932  0.0
O  O76  1  0.24085455  0.65805013  0.19723768  1  -0.832035  -0.057742  2.1487  -0.076  -0.791096  -0.039632  2.470162  -0.055  -0.827084  -0.031326  2.447907  -0.045  -0.374119  -0.764187  -0.045384  2.483594  -0.061
O  O77  1  0.34194216  0.75914677  0.80276510  1  -0.832033  -0.057736  2.1487  -0.076  -0.791076  -0.039628  2.470145  -0.055  -0.827058  -0.031328  2.447876  -0.045  -0.374143  -0.764171  -0.045381  2.483577  -0.061
O  O78  1  0.11551292  0.65596444  0.44607847  1  -0.796705  0.051946  2.033957  0.068  -0.756547  0.035535  2.332961  0.05  -0.79369  0.028443  2.314991  0.041  -0.366846  -0.726996  0.040468  2.344885  0.054
O  O79  1  0.34403233  0.88449533  0.55391776  1  -0.79659  0.051962  2.034075  0.068  -0.756434  0.035539  2.333099  0.05  -0.793569  0.028451  2.315108  0.041  -0.366765  -0.72688  0.040477  2.345013  0.055
