# generated using pymatgen
data_CuH12C14(NO3)2
_symmetry_space_group_name_H-M   'P 1'
_cell_length_a   8.57780497
_cell_length_b   8.57778872
_cell_length_c   43.49706255
_cell_angle_alpha   90.00002591
_cell_angle_beta   90.00015275
_cell_angle_gamma   89.99999481
_symmetry_Int_Tables_number   1
_chemical_formula_structural   CuH12C14(NO3)2
_chemical_formula_sum   'Cu8 H96 C112 N16 O48'
_cell_volume   3200.45290925
_cell_formula_units_Z   8
loop_
 _symmetry_equiv_pos_site_id
 _symmetry_equiv_pos_as_xyz
  1  'x, y, z'
loop_
 _atom_site_type_symbol
 _atom_site_label
 _atom_site_symmetry_multiplicity
 _atom_site_fract_x
 _atom_site_fract_y
 _atom_site_fract_z
 _atom_site_occupancy
 _atom_site_pbe_bader_charge
 _atom_site_pbe_bader_spin_density
 _atom_site_pbe_cm5_charge
 _atom_site_pbe_ddec_charge
 _atom_site_pbe_ddec_spin_density
 _atom_site_pbe_ddec_sum_bond_order
 _atom_site_pbe_magmom
Cu  Cu0  1  0.97939293  0.33209006  0.89221776  1  1.106333  0.568961  0.758783  0.79833  0.728707  2.233348  0.568
Cu  Cu1  1  0.16791103  0.47939410  0.14221749  1  1.106317  0.568964  0.758751  0.798345  0.728712  2.233362  0.568
Cu  Cu2  1  0.83208782  0.52060457  0.64221740  1  1.10633  0.568965  0.75872  0.798246  0.728714  2.233513  0.568
Cu  Cu3  1  0.47939183  0.16791137  0.85778289  1  1.106343  0.568964  0.758749  0.798255  0.728714  2.233472  0.568
Cu  Cu4  1  0.52060759  0.83209013  0.35778227  1  1.106321  0.568962  0.758769  0.798358  0.728709  2.233343  0.568
Cu  Cu5  1  0.02060696  0.66791151  0.39221710  1  1.106318  0.568964  0.758746  0.798288  0.728714  2.23346  0.568
Cu  Cu6  1  0.33208797  0.97939355  0.10778281  1  1.106325  0.568965  0.75872  0.798285  0.728715  2.23343  0.568
Cu  Cu7  1  0.66791157  0.02060621  0.60778237  1  1.106357  0.568965  0.758734  0.798301  0.728713  2.233451  0.568
H  H8  1  0.14467886  0.74145892  0.81741619  1  0.613525  0.000119  0.296368  0.334156  5.6e-05  0.961144  0.0
H  H9  1  0.75854064  0.64467901  0.06741605  1  0.613521  0.000119  0.296356  0.33413  5.6e-05  0.961174  0.0
H  H10  1  0.24146069  0.35532298  0.56741587  1  0.613504  0.000119  0.296341  0.334093  5.6e-05  0.961191  0.0
H  H11  1  0.64467702  0.75853919  0.93258410  1  0.613495  0.000119  0.296343  0.334099  5.6e-05  0.96118  0.0
H  H12  1  0.35532109  0.24145898  0.43258380  1  0.613517  0.000119  0.296358  0.334144  5.6e-05  0.96116  0.0
H  H13  1  0.85532235  0.25854015  0.31741592  1  0.613623  0.000119  0.296346  0.334102  5.6e-05  0.961193  0.0
H  H14  1  0.74146248  0.14467849  0.18258403  1  0.613612  0.000119  0.296335  0.334079  5.6e-05  0.961208  0.0
H  H15  1  0.25854391  0.85531911  0.68258367  1  0.613544  0.000119  0.29636  0.33417  5.6e-05  0.961182  0.0
H  H16  1  0.13583093  0.64002494  0.88783082  1  0.623439  -2.5e-05  0.293727  0.338099  6.9e-05  1.002657  0.0
H  H17  1  0.85997616  0.63583415  0.13783071  1  0.623467  -2.5e-05  0.293732  0.338124  6.9e-05  1.002601  0.0
H  H18  1  0.14002380  0.36416451  0.63783071  1  0.623471  -2.5e-05  0.293739  0.338126  6.9e-05  1.002611  0.0
H  H19  1  0.63583162  0.85997668  0.86216969  1  0.623436  -2.5e-05  0.293716  0.338094  6.9e-05  1.002661  0.0
H  H20  1  0.36416787  0.14002367  0.36216962  1  0.623436  -2.5e-05  0.293717  0.338104  6.9e-05  1.002644  0.0
H  H21  1  0.86416657  0.35997546  0.38783034  1  0.623448  -2.5e-05  0.293729  0.338104  6.9e-05  1.002652  0.0
H  H22  1  0.64002463  0.13583348  0.11216936  1  0.623466  -2.5e-05  0.293741  0.338119  6.9e-05  1.00263  0.0
H  H23  1  0.35997498  0.86416396  0.61216929  1  0.623479  -2.5e-05  0.293748  0.33813  6.9e-05  1.002613  0.0
H  H24  1  0.87213977  0.15394865  0.94799368  1  0.126434  0.002063  0.124706  0.10072  0.000887  0.990598  0.001
H  H25  1  0.34605139  0.37213924  0.19799371  1  0.126433  0.002063  0.124708  0.100744  0.000887  0.990574  0.001
H  H26  1  0.65394704  0.62785839  0.69799331  1  0.126433  0.002063  0.12469  0.100738  0.000886  0.990543  0.001
H  H27  1  0.37213907  0.34605279  0.80200622  1  0.126421  0.002064  0.124701  0.100736  0.000887  0.990571  0.001
H  H28  1  0.62786194  0.65394741  0.30200634  1  0.126418  0.002064  0.124699  0.10075  0.000887  0.990594  0.001
H  H29  1  0.12786087  0.84605306  0.44799423  1  0.126429  0.002063  0.124699  0.10074  0.000887  0.990554  0.001
H  H30  1  0.15394646  0.87213974  0.05200612  1  0.126431  0.002064  0.124703  0.100737  0.000887  0.990533  0.001
H  H31  1  0.84605350  0.12785989  0.55200624  1  0.126432  0.002064  0.124701  0.10073  0.000887  0.990527  0.001
H  H32  1  0.90585065  0.18120634  0.00425663  1  0.073046  0.001245  0.110041  0.115035  0.00066  1.00592  0.001
H  H33  1  0.31879421  0.40585080  0.25425681  1  0.073038  0.001245  0.110043  0.115003  0.00066  1.005938  0.001
H  H34  1  0.68120498  0.59414930  0.75425643  1  0.073053  0.001245  0.110054  0.115044  0.00066  1.005899  0.001
H  H35  1  0.40585011  0.31879628  0.74574312  1  0.073015  0.001245  0.110067  0.115062  0.00066  1.005824  0.001
H  H36  1  0.59414897  0.68120612  0.24574322  1  0.073031  0.001245  0.11004  0.115023  0.00066  1.005961  0.001
H  H37  1  0.09414867  0.81879551  0.50425687  1  0.07303  0.001245  0.110059  0.115034  0.00066  1.005853  0.001
H  H38  1  0.18120456  0.90585231  0.99574342  1  0.073046  0.001245  0.110045  0.115042  0.00066  1.005879  0.001
H  H39  1  0.81879673  0.09414834  0.49574312  1  0.073033  0.001245  0.110049  0.115032  0.00066  1.005825  0.001
H  H40  1  0.25078175  0.53810717  0.98554204  1  0.092394  0.001188  0.111378  0.117517  0.000632  0.999665  0.001
H  H41  1  0.96189566  0.75078113  0.23554194  1  0.092425  0.001188  0.111404  0.11754  0.000632  0.999634  0.001
H  H42  1  0.03810678  0.24921775  0.73554233  1  0.092371  0.001189  0.111379  0.117504  0.000632  0.99967  0.001
H  H43  1  0.75078111  0.96189560  0.76445830  1  0.092441  0.001188  0.111415  0.117558  0.000632  0.999615  0.001
H  H44  1  0.24922055  0.03810685  0.26445793  1  0.092426  0.001189  0.1114  0.11754  0.000632  0.999637  0.001
H  H45  1  0.74921941  0.46189579  0.48554151  1  0.092442  0.001188  0.111416  0.117549  0.000632  0.999614  0.001
H  H46  1  0.53810512  0.25078257  0.01445860  1  0.092427  0.001188  0.111408  0.11755  0.000632  0.999619  0.001
H  H47  1  0.46189200  0.74921697  0.51445788  1  0.09237  0.001189  0.111392  0.117508  0.000632  0.999633  0.001
H  H48  1  0.19831574  0.49876014  0.93027301  1  0.148451  0.002039  0.122513  0.099302  0.000927  1.025822  0.002
H  H49  1  0.00124043  0.69831538  0.18027312  1  0.148484  0.002039  0.122458  0.099192  0.000927  1.025828  0.002
H  H50  1  0.99876010  0.30168221  0.68027288  1  0.148464  0.002039  0.122517  0.09932  0.000927  1.025761  0.002
H  H51  1  0.69831472  0.00124365  0.81972680  1  0.14853  0.002038  0.122459  0.09922  0.000927  1.025826  0.002
H  H52  1  0.30168652  0.99875892  0.31972677  1  0.148492  0.002039  0.122499  0.099254  0.000927  1.025854  0.002
H  H53  1  0.80168584  0.50124386  0.43027297  1  0.148504  0.002039  0.122466  0.099201  0.000927  1.025832  0.002
H  H54  1  0.49875743  0.19831457  0.06972715  1  0.148484  0.002038  0.122487  0.099295  0.000927  1.025829  0.002
H  H55  1  0.50124044  0.80168510  0.56972715  1  0.148465  0.002038  0.122477  0.099241  0.000927  1.025887  0.002
H  H56  1  0.31324969  0.60303779  0.08588890  1  0.151389  0.002176  0.119094  0.096402  0.000848  1.032486  0.002
H  H57  1  0.89696364  0.81324957  0.33588870  1  0.151399  0.002177  0.119116  0.096434  0.000848  1.032515  0.002
H  H58  1  0.10303433  0.18675188  0.83588935  1  0.151386  0.002176  0.119118  0.096431  0.000848  1.032495  0.002
H  H59  1  0.81324863  0.89696266  0.66411085  1  0.151384  0.002177  0.119111  0.096462  0.000848  1.032467  0.002
H  H60  1  0.18674818  0.10303606  0.16411091  1  0.151388  0.002177  0.11911  0.096443  0.000849  1.032469  0.002
H  H61  1  0.68675073  0.39696192  0.58588896  1  0.151387  0.002177  0.119104  0.096423  0.000848  1.0325  0.002
H  H62  1  0.60303689  0.31324958  0.91411110  1  0.151396  0.002177  0.119098  0.096432  0.000848  1.032514  0.002
H  H63  1  0.39696563  0.68674971  0.41411086  1  0.151397  0.002177  0.119124  0.096456  0.000848  1.032481  0.002
H  H64  1  0.28321133  0.57014113  0.03030215  1  0.058296  0.001263  0.107937  0.111292  0.000668  1.013058  0.001
H  H65  1  0.92986212  0.78321146  0.28030197  1  0.058318  0.001263  0.107912  0.111281  0.000668  1.01306  0.001
H  H66  1  0.07013859  0.21678986  0.78030238  1  0.058359  0.001263  0.107934  0.11131  0.000668  1.013004  0.001
H  H67  1  0.78320985  0.92986165  0.71969781  1  0.058341  0.001263  0.107931  0.111313  0.000668  1.013031  0.001
H  H68  1  0.21679004  0.07013953  0.21969788  1  0.058319  0.001263  0.107928  0.111292  0.000668  1.013021  0.001
H  H69  1  0.71678834  0.42986078  0.53030176  1  0.058314  0.001263  0.107943  0.111318  0.000668  1.013054  0.001
H  H70  1  0.57013958  0.28321277  0.96969806  1  0.058306  0.001263  0.107935  0.111285  0.000668  1.013054  0.001
H  H71  1  0.42986020  0.71678898  0.46969784  1  0.058337  0.001263  0.107938  0.111348  0.000668  1.012971  0.001
H  H72  1  0.93572456  0.21462759  0.04949417  1  0.064036  0.001257  0.108407  0.109902  0.000653  1.01325  0.001
H  H73  1  0.28537454  0.43572218  0.29949434  1  0.064022  0.001258  0.108388  0.109875  0.000653  1.013221  0.001
H  H74  1  0.71462526  0.56427685  0.79949443  1  0.064138  0.001257  0.108376  0.109881  0.000653  1.013318  0.001
H  H75  1  0.43572225  0.28537503  0.70050536  1  0.064139  0.001257  0.108422  0.10992  0.000653  1.013198  0.001
H  H76  1  0.56427855  0.71462494  0.20050567  1  0.064024  0.001258  0.108407  0.10989  0.000653  1.013203  0.001
H  H77  1  0.06427770  0.78537437  0.54949463  1  0.064155  0.001257  0.108383  0.109846  0.000653  1.013298  0.001
H  H78  1  0.21462655  0.93572242  0.95050566  1  0.064041  0.001258  0.108391  0.109868  0.000653  1.01323  0.001
H  H79  1  0.78537529  0.06427346  0.45050557  1  0.064281  0.001257  0.10838  0.109876  0.000653  1.013269  0.001
H  H80  1  0.98052427  0.26188225  0.10403971  1  0.168166  0.002491  0.123511  0.102934  0.001234  1.019491  0.002
H  H81  1  0.23811923  0.48052634  0.35404031  1  0.168193  0.002491  0.123504  0.10287  0.001233  1.019523  0.002
H  H82  1  0.76187781  0.51947399  0.85404019  1  0.168177  0.002492  0.123493  0.102901  0.001234  1.019469  0.002
H  H83  1  0.48052589  0.23811803  0.64595985  1  0.168184  0.00249  0.123504  0.102921  0.001233  1.019486  0.002
H  H84  1  0.51947418  0.76188298  0.14596014  1  0.168151  0.00249  0.12351  0.102895  0.001233  1.0195  0.002
H  H85  1  0.01947406  0.73811866  0.60404037  1  0.168143  0.00249  0.123504  0.102883  0.001233  1.019517  0.002
H  H86  1  0.26188070  0.98052645  0.89595992  1  0.168147  0.002491  0.123515  0.102899  0.001233  1.019496  0.002
H  H87  1  0.73812041  0.01947514  0.39596004  1  0.168135  0.002491  0.123509  0.102916  0.001233  1.01948  0.002
H  H88  1  0.44174676  0.66213078  0.82501977  1  0.0538  0.000142  0.10411  0.067554  5.5e-05  0.962356  0.0
H  H89  1  0.83786750  0.94174626  0.07501958  1  0.053792  0.000142  0.104143  0.067586  5.5e-05  0.96236  0.0
H  H90  1  0.16213277  0.05825459  0.57501887  1  0.053783  0.000142  0.104145  0.067622  5.5e-05  0.962398  0.0
H  H91  1  0.94174364  0.83786614  0.92498091  1  0.053811  0.000142  0.104163  0.067636  5.5e-05  0.962376  0.0
H  H92  1  0.05825436  0.16213318  0.42498021  1  0.053794  0.000142  0.104139  0.067573  5.5e-05  0.962377  0.0
H  H93  1  0.55825689  0.33786598  0.32501889  1  0.053809  0.000142  0.104164  0.067619  5.5e-05  0.962371  0.0
H  H94  1  0.66213443  0.44174572  0.17498098  1  0.053787  0.000142  0.104145  0.067615  5.5e-05  0.962385  0.0
H  H95  1  0.33786603  0.55825302  0.67498041  1  0.053949  0.000142  0.10414  0.067591  5.5e-05  0.9624  0.0
H  H96  1  0.46473203  0.67352422  0.87976968  1  0.100202  3.8e-05  0.11557  0.085886  2.9e-05  0.977401  0.0
H  H97  1  0.82647334  0.96473476  0.12976925  1  0.100174  3.8e-05  0.115553  0.085871  2.9e-05  0.977404  0.0
H  H98  1  0.17352767  0.03526388  0.62976855  1  0.100127  3.8e-05  0.115546  0.085865  2.9e-05  0.977424  0.0
H  H99  1  0.96473284  0.82647270  0.87023101  1  0.100158  3.8e-05  0.115537  0.085833  2.9e-05  0.977523  0.0
H  H100  1  0.03526793  0.17352416  0.37023054  1  0.100209  3.8e-05  0.115556  0.085883  2.9e-05  0.977456  0.0
H  H101  1  0.53526536  0.32647266  0.37976879  1  0.100151  3.8e-05  0.115555  0.08587  2.9e-05  0.977435  0.0
H  H102  1  0.67352741  0.46473527  0.12023108  1  0.100133  3.8e-05  0.115546  0.085858  2.9e-05  0.977442  0.0
H  H103  1  0.32647114  0.53526335  0.62023073  1  0.100147  3.8e-05  0.115552  0.085881  2.9e-05  0.977365  0.0
C  C104  1  0.95326548  0.23923054  0.95752331  1  0.428444  -0.000523  0.052728  0.0954  -0.001135  3.946541  0.0
C  C105  1  0.26077089  0.45326623  0.20752353  1  0.428434  -0.000523  0.052736  0.095418  -0.001135  3.94659  0.0
C  C106  1  0.73922884  0.54673259  0.70752363  1  0.428315  -0.000522  0.05272  0.095357  -0.001134  3.946575  0.0
C  C107  1  0.45326699  0.26077206  0.79247663  1  0.428442  -0.000523  0.052748  0.095408  -0.001135  3.946623  0.0
C  C108  1  0.54673505  0.73923046  0.29247671  1  0.428442  -0.000522  0.052713  0.09536  -0.001134  3.946606  0.0
C  C109  1  0.04673296  0.76077235  0.45752359  1  0.428424  -0.000523  0.052732  0.095375  -0.001134  3.9466  0.0
C  C110  1  0.23922811  0.95327020  0.04247677  1  0.428443  -0.000523  0.052754  0.09543  -0.001135  3.94663  0.0
C  C111  1  0.76077055  0.04673174  0.54247637  1  0.428441  -0.000522  0.052742  0.095409  -0.001134  3.946632  0.0
C  C112  1  0.97379775  0.25556579  0.98903004  1  0.041527  0.004208  -0.082758  -0.177228  0.002932  3.944441  0.003
C  C113  1  0.24443592  0.47379953  0.23903002  1  0.041511  0.004208  -0.082748  -0.177125  0.002932  3.944517  0.003
C  C114  1  0.75556423  0.52620053  0.73902967  1  0.041506  0.004207  -0.082735  -0.177133  0.002931  3.944494  0.003
C  C115  1  0.47380000  0.24443914  0.76097014  1  0.0415  0.004208  -0.082837  -0.177253  0.002932  3.94443  0.003
C  C116  1  0.52620395  0.75556447  0.26096998  1  0.041519  0.004208  -0.082739  -0.177189  0.002932  3.944385  0.003
C  C117  1  0.02619995  0.74443717  0.48903007  1  0.041504  0.004208  -0.082796  -0.177142  0.002932  3.944465  0.003
C  C118  1  0.25556075  0.97380109  0.01097051  1  0.041541  0.004208  -0.08277  -0.177204  0.002932  3.944457  0.003
C  C119  1  0.74443982  0.02619961  0.51097056  1  0.041527  0.004208  -0.082718  -0.177075  0.002931  3.944381  0.003
C  C120  1  0.08018717  0.36577259  0.00064583  1  -0.025708  -0.00241  0.014797  0.107974  -0.002789  3.975535  -0.001
C  C121  1  0.13422948  0.58018827  0.25064595  1  -0.026071  -0.00241  0.014819  0.108002  -0.002789  3.975563  -0.001
C  C122  1  0.86577083  0.41981298  0.75064588  1  -0.025692  -0.00241  0.014815  0.107973  -0.002789  3.975438  -0.001
C  C123  1  0.58018728  0.13423240  0.74935398  1  -0.025761  -0.00241  0.014827  0.107978  -0.002789  3.975614  -0.001
C  C124  1  0.41981417  0.86577235  0.24935400  1  -0.025428  -0.00241  0.014785  0.107956  -0.002788  3.975532  -0.001
C  C125  1  0.91981210  0.63423042  0.50064603  1  -0.02579  -0.00241  0.014817  0.107939  -0.002789  3.975626  -0.001
C  C126  1  0.36576815  0.08018846  0.99935448  1  -0.026073  -0.002411  0.014804  0.107954  -0.002789  3.975606  -0.001
C  C127  1  0.63423086  0.91981336  0.49935416  1  -0.025709  -0.00241  0.014778  0.107831  -0.002789  3.975514  -0.001
C  C128  1  0.16364286  0.45246271  0.97877213  1  -0.044243  0.004792  -0.079894  -0.16984  0.003229  3.93323  0.004
C  C129  1  0.04753932  0.66364216  0.22877204  1  -0.044259  0.004792  -0.079898  -0.169834  0.003229  3.933369  0.004
C  C130  1  0.95246419  0.33635788  0.72877178  1  -0.04423  0.004792  -0.079902  -0.169805  0.003229  3.933151  0.004
C  C131  1  0.66364235  0.04754224  0.77122789  1  -0.044524  0.004792  -0.079879  -0.169786  0.003229  3.933353  0.004
C  C132  1  0.33635940  0.95246022  0.27122764  1  -0.04453  0.004792  -0.079885  -0.169806  0.003229  3.933374  0.004
C  C133  1  0.83635820  0.54754139  0.47877211  1  -0.044531  0.004792  -0.079876  -0.169772  0.003229  3.933331  0.004
C  C134  1  0.45245855  0.16364358  0.02122823  1  -0.044253  0.004791  -0.079889  -0.16979  0.003229  3.933398  0.004
C  C135  1  0.54753633  0.83635831  0.52122825  1  -0.044221  0.004792  -0.079867  -0.169687  0.003229  3.93322  0.004
C  C136  1  0.13635362  0.43105623  0.94762129  1  0.453708  -0.000555  0.051475  0.108487  -0.001046  3.913433  0.0
C  C137  1  0.06894552  0.63635420  0.19762167  1  0.453833  -0.000554  0.051541  0.108632  -0.001046  3.913448  0.0
C  C138  1  0.93105408  0.36364576  0.69762139  1  0.453688  -0.000554  0.051467  0.108452  -0.001046  3.913411  0.0
C  C139  1  0.63635470  0.06894756  0.80237826  1  0.453839  -0.000554  0.05155  0.10856  -0.001046  3.913458  0.0
C  C140  1  0.36364631  0.93105497  0.30237849  1  0.453842  -0.000554  0.051527  0.108558  -0.001046  3.913484  0.0
C  C141  1  0.86364702  0.56894664  0.44762151  1  0.453839  -0.000554  0.051533  0.108596  -0.001046  3.913448  0.0
C  C142  1  0.43105468  0.13635570  0.05237837  1  0.453661  -0.000554  0.051481  0.108438  -0.001046  3.913512  0.0
C  C143  1  0.56894528  0.86364627  0.55237841  1  0.453424  -0.000552  0.051512  0.108489  -0.001046  3.913539  0.0
C  C144  1  0.10390208  0.38926120  0.03400901  1  -0.042669  -0.003494  0.008541  0.092281  -0.00401  3.98304  -0.002
C  C145  1  0.11073885  0.60390072  0.28400889  1  -0.042697  -0.003494  0.00854  0.092302  -0.00401  3.983119  -0.002
C  C146  1  0.88926075  0.39609945  0.78400883  1  -0.042672  -0.003494  0.00853  0.092329  -0.00401  3.983095  -0.002
C  C147  1  0.60389942  0.11073912  0.71599104  1  -0.042709  -0.003494  0.008534  0.092305  -0.00401  3.98315  -0.002
C  C148  1  0.39610042  0.88925739  0.21599082  1  -0.042837  -0.003494  0.008532  0.092319  -0.004011  3.983081  -0.002
C  C149  1  0.89609996  0.61073956  0.53400897  1  -0.042847  -0.003494  0.008553  0.092342  -0.004011  3.983104  -0.002
C  C150  1  0.38926112  0.10390083  0.96599132  1  -0.042933  -0.003495  0.008554  0.092296  -0.004011  3.983065  -0.002
C  C151  1  0.61073977  0.89609742  0.46599121  1  -0.042733  -0.003494  0.008506  0.09234  -0.004011  3.98309  -0.002
C  C152  1  0.22935637  0.51915719  0.07684343  1  0.505161  -0.000895  0.0535  0.110171  -0.001251  3.899012  -0.001
C  C153  1  0.98084401  0.72935380  0.32684374  1  0.505178  -0.000895  0.053469  0.110136  -0.001251  3.899257  -0.001
C  C154  1  0.01915500  0.27064412  0.82684390  1  0.505181  -0.000895  0.053494  0.110209  -0.001251  3.899099  -0.001
C  C155  1  0.72935193  0.98084444  0.67315627  1  0.505181  -0.000895  0.053477  0.110127  -0.001251  3.899265  -0.001
C  C156  1  0.27064383  0.01915431  0.17315659  1  0.505171  -0.000895  0.053489  0.11009  -0.001251  3.899176  -0.001
C  C157  1  0.77064625  0.48084367  0.57684354  1  0.505143  -0.000895  0.053522  0.110194  -0.001251  3.899192  -0.001
C  C158  1  0.51915536  0.22935502  0.92315651  1  0.505135  -0.000895  0.053488  0.110092  -0.001251  3.899156  -0.001
C  C159  1  0.48084728  0.77064313  0.42315632  1  0.505145  -0.000895  0.053448  0.110134  -0.001251  3.899256  -0.001
C  C160  1  0.21135855  0.49884422  0.04539763  1  0.005749  0.006135  -0.081022  -0.168406  0.004118  3.931126  0.005
C  C161  1  0.00115844  0.71135850  0.29539791  1  0.005774  0.006135  -0.081058  -0.168517  0.004119  3.931175  0.005
C  C162  1  0.99884131  0.28864285  0.79539789  1  0.005782  0.006135  -0.081052  -0.168536  0.004119  3.931084  0.005
C  C163  1  0.71135691  0.00115842  0.70460179  1  0.00578  0.006135  -0.081063  -0.168528  0.004119  3.931178  0.005
C  C164  1  0.28863928  0.99884040  0.20460221  1  0.005777  0.006136  -0.080988  -0.168397  0.004119  3.931097  0.005
C  C165  1  0.78864248  0.50115656  0.54539821  1  0.005783  0.006135  -0.081091  -0.168588  0.004119  3.931184  0.005
C  C166  1  0.49884268  0.21135857  0.95460184  1  0.005863  0.006135  -0.081025  -0.16839  0.004119  3.931181  0.005
C  C167  1  0.50116038  0.78863848  0.45460167  1  0.005865  0.006135  -0.081027  -0.168575  0.004118  3.931123  0.005
C  C168  1  0.02062802  0.30308633  0.05591345  1  -0.0161  0.005748  -0.076929  -0.155248  0.003851  3.909728  0.005
C  C169  1  0.19691372  0.52062869  0.30591361  1  -0.016086  0.005747  -0.076962  -0.155328  0.003851  3.909795  0.005
C  C170  1  0.80308384  0.47937152  0.80591373  1  -0.016195  0.005749  -0.076993  -0.155389  0.003852  3.90989  0.005
C  C171  1  0.52062738  0.19691399  0.69408656  1  -0.016223  0.005748  -0.076959  -0.155297  0.003851  3.90979  0.005
C  C172  1  0.47937100  0.80308713  0.19408591  1  -0.015926  0.005747  -0.076981  -0.155335  0.003851  3.909859  0.005
C  C173  1  0.97937083  0.69691330  0.55591392  1  -0.016046  0.005747  -0.076952  -0.155278  0.003851  3.9099  0.005
C  C174  1  0.30308741  0.02062993  0.94408613  1  -0.01592  0.005747  -0.076958  -0.155301  0.003851  3.90982  0.005
C  C175  1  0.69691668  0.97936827  0.44408608  1  -0.016329  0.005748  -0.076933  -0.155281  0.003851  3.909844  0.005
C  C176  1  0.04480224  0.32881911  0.08705901  1  0.53926  -0.001476  0.061117  0.128299  -0.001989  3.884832  -0.001
C  C177  1  0.17118241  0.54479929  0.33705915  1  0.539074  -0.001475  0.061197  0.128512  -0.00199  3.884766  -0.001
C  C178  1  0.82881557  0.45519632  0.83705952  1  0.539192  -0.001476  0.061235  0.128483  -0.00199  3.88486  -0.001
C  C179  1  0.54480119  0.17118588  0.66294078  1  0.539175  -0.001476  0.061126  0.128347  -0.001989  3.884767  -0.001
C  C180  1  0.45519677  0.82881517  0.16294058  1  0.539222  -0.001476  0.061149  0.128423  -0.00199  3.884844  -0.001
C  C181  1  0.95520052  0.67118177  0.58705923  1  0.539121  -0.001475  0.061197  0.128458  -0.001989  3.884797  -0.001
C  C182  1  0.32881756  0.04479929  0.91294105  1  0.539107  -0.001475  0.061178  0.128467  -0.001989  3.884763  -0.001
C  C183  1  0.67118495  0.95519767  0.41294075  1  0.539218  -0.001476  0.061149  0.128397  -0.00199  3.884938  -0.001
C  C184  1  0.33411908  0.87822495  0.83875998  1  1.539126  0.001054  0.201473  0.547514  0.000729  4.205287  0.0
C  C185  1  0.62177385  0.83411948  0.08875999  1  1.539125  0.001054  0.201502  0.5476  0.000729  4.205323  0.0
C  C186  1  0.37822661  0.16588257  0.58875940  1  1.539145  0.001054  0.201552  0.547694  0.000729  4.205274  0.0
C  C187  1  0.83411696  0.62177314  0.91124017  1  1.539126  0.001054  0.201517  0.547632  0.000729  4.205305  0.0
C  C188  1  0.16588203  0.37822731  0.41124024  1  1.539162  0.001054  0.201533  0.547632  0.000729  4.205283  0.0
C  C189  1  0.66588359  0.12177300  0.33875984  1  1.53913  0.001054  0.201554  0.547653  0.000729  4.205254  0.0
C  C190  1  0.87822692  0.33412006  0.16124010  1  1.539132  0.001054  0.201514  0.54761  0.000729  4.205338  0.0
C  C191  1  0.12177335  0.66588099  0.66124012  1  1.539175  0.001054  0.20156  0.547655  0.000729  4.205201  0.0
C  C192  1  0.33647516  0.69942479  0.83774612  1  0.512073  0.009075  -0.013535  0.040207  0.006485  3.916078  0.007
C  C193  1  0.80057366  0.83647672  0.08774594  1  0.512066  0.009075  -0.013557  0.040198  0.006485  3.916055  0.007
C  C194  1  0.19942561  0.16352416  0.58774550  1  0.51206  0.009076  -0.013564  0.040026  0.006486  3.916197  0.007
C  C195  1  0.83647420  0.80057330  0.91225450  1  0.512051  0.009076  -0.013616  0.040098  0.006485  3.916061  0.007
C  C196  1  0.16352363  0.19942482  0.41225433  1  0.51205  0.009076  -0.013612  0.040153  0.006486  3.916037  0.007
C  C197  1  0.66352633  0.30057316  0.33774529  1  0.512056  0.009076  -0.013598  0.040144  0.006485  3.916062  0.007
C  C198  1  0.69942710  0.33647615  0.16225460  1  0.51204  0.009076  -0.013603  0.040075  0.006486  3.916103  0.007
C  C199  1  0.30057435  0.66352140  0.66225402  1  0.51185  0.009077  -0.013601  0.040134  0.006486  3.916029  0.007
C  C200  1  0.35101057  0.63573942  0.87086605  1  0.524326  0.010624  -0.009162  0.053008  0.007769  3.888162  0.008
C  C201  1  0.86426034  0.85101313  0.12086590  1  0.524313  0.010624  -0.009109  0.053048  0.007768  3.888314  0.008
C  C202  1  0.13574055  0.14898549  0.62086542  1  0.524362  0.010624  -0.009132  0.05308  0.007768  3.88828  0.008
C  C203  1  0.85101149  0.86425867  0.87913480  1  0.524371  0.010624  -0.009165  0.052956  0.007769  3.888395  0.008
C  C204  1  0.14898939  0.13573937  0.37913438  1  0.524316  0.010624  -0.009151  0.052972  0.007768  3.888256  0.008
C  C205  1  0.64898787  0.36425978  0.37086500  1  0.524381  0.010624  -0.009147  0.05294  0.007769  3.888358  0.008
C  C206  1  0.63574159  0.35101366  0.12913488  1  0.52436  0.010624  -0.009129  0.053034  0.007768  3.888371  0.008
C  C207  1  0.36425941  0.64898498  0.62913410  1  0.524319  0.010624  -0.009124  0.052984  0.007769  3.888234  0.008
C  C208  1  0.35139179  0.45735079  0.86979172  1  1.527903  0.000382  0.202811  0.566551  -0.000601  4.164811  -0.002
C  C209  1  0.04264688  0.85139555  0.11979159  1  1.527894  0.000382  0.202759  0.566456  -0.000601  4.164961  -0.002
C  C210  1  0.95735400  0.14860307  0.61979108  1  1.527889  0.000381  0.202709  0.566458  -0.000601  4.165138  -0.002
C  C211  1  0.85139509  0.04264716  0.88020909  1  1.527917  0.000382  0.20272  0.566506  -0.000601  4.164912  -0.002
C  C212  1  0.14860698  0.95735206  0.38020851  1  1.5279  0.000382  0.202832  0.566644  -0.000601  4.164812  -0.002
C  C213  1  0.64860314  0.54264724  0.36979091  1  1.527905  0.000382  0.202713  0.566505  -0.000601  4.164946  -0.002
C  C214  1  0.45735447  0.35139605  0.13020916  1  1.527895  0.000382  0.202697  0.566464  -0.0006  4.16519  -0.002
C  C215  1  0.54264655  0.64860259  0.63020871  1  1.527892  0.000382  0.202728  0.566526  -0.000601  4.165051  -0.002
N  N216  1  0.03159365  0.32718563  0.93710905  1  -1.180165  0.083171  -0.342401  -0.216975  0.055454  3.602416  0.072
N  N217  1  0.17281352  0.53159292  0.18710926  1  -1.180271  0.083171  -0.342504  -0.217238  0.055454  3.602523  0.072
N  N218  1  0.82718477  0.46840469  0.68710871  1  -1.18002  0.083169  -0.342446  -0.217081  0.055453  3.602486  0.072
N  N219  1  0.53159253  0.17281584  0.81289090  1  -1.180321  0.083168  -0.342466  -0.217101  0.055453  3.602551  0.072
N  N220  1  0.46840629  0.82718555  0.31289071  1  -1.180317  0.083171  -0.342441  -0.217053  0.055454  3.602438  0.072
N  N221  1  0.96840685  0.67281488  0.43710934  1  -1.180279  0.08317  -0.342481  -0.217166  0.055454  3.602485  0.072
N  N222  1  0.32718436  0.03159212  0.06289100  1  -1.18015  0.083168  -0.342452  -0.217091  0.055453  3.602465  0.072
N  N223  1  0.67281691  0.96840754  0.56289133  1  -1.179879  0.083166  -0.342451  -0.217083  0.055452  3.602466  0.072
N  N224  1  0.14645302  0.43569748  0.09731284  1  -1.207542  0.092743  -0.337576  -0.201792  0.061823  3.592269  0.08
N  N225  1  0.06430082  0.64645255  0.34731269  1  -1.207425  0.092745  -0.337538  -0.201759  0.061826  3.592504  0.08
N  N226  1  0.93569497  0.35354892  0.84731288  1  -1.207559  0.092744  -0.33758  -0.201844  0.061825  3.592574  0.08
N  N227  1  0.64645184  0.06430167  0.65268724  1  -1.207523  0.092745  -0.337557  -0.201812  0.061825  3.592567  0.08
N  N228  1  0.35354249  0.93569935  0.15268723  1  -1.207531  0.092746  -0.337604  -0.201794  0.061825  3.592255  0.08
N  N229  1  0.85354638  0.56429993  0.59731300  1  -1.207411  0.092744  -0.337588  -0.201773  0.061825  3.592461  0.08
N  N230  1  0.43569914  0.14645251  0.90268728  1  -1.20738  0.092746  -0.337596  -0.201808  0.061826  3.592287  0.08
N  N231  1  0.56430556  0.85354559  0.40268715  1  -1.207507  0.092744  -0.33755  -0.201833  0.061825  3.592687  0.08
O  O232  1  0.23673548  0.38146877  0.87919784  1  -1.192693  0.003053  -0.31973  -0.583168  0.000963  2.367989  0.004
O  O233  1  0.11852883  0.73673664  0.12919752  1  -1.192628  0.003054  -0.31976  -0.583165  0.000964  2.368048  0.004
O  O234  1  0.88147100  0.26326433  0.62919698  1  -1.192619  0.003054  -0.31976  -0.58321  0.000964  2.367958  0.004
O  O235  1  0.73673515  0.11853151  0.87080337  1  -1.192648  0.003054  -0.319725  -0.583165  0.000964  2.367867  0.004
O  O236  1  0.26326445  0.88147001  0.37080239  1  -1.192675  0.003053  -0.319796  -0.583282  0.000963  2.367945  0.004
O  O237  1  0.76326540  0.61853161  0.37919664  1  -1.192636  0.003055  -0.319728  -0.583178  0.000964  2.367823  0.004
O  O238  1  0.38147019  0.23673596  0.12080321  1  -1.192614  0.003054  -0.319743  -0.583192  0.000964  2.367984  0.004
O  O239  1  0.61852836  0.76326383  0.62080258  1  -1.192593  0.003055  -0.31975  -0.583217  0.000964  2.36795  0.004
O  O240  1  0.44987373  0.93942023  0.85343572  1  -1.148309  0.081711  -0.321339  -0.562309  0.052358  2.49781  0.075
O  O241  1  0.56057880  0.94987427  0.10343545  1  -1.148329  0.08171  -0.32137  -0.562381  0.052357  2.497815  0.075
O  O242  1  0.43942069  0.05012664  0.60343512  1  -1.14829  0.081716  -0.321389  -0.562398  0.052361  2.497687  0.075
O  O243  1  0.94987258  0.56058019  0.89656473  1  -1.14826  0.081714  -0.321351  -0.562334  0.05236  2.497822  0.075
O  O244  1  0.05012504  0.43942139  0.39656474  1  -1.148308  0.081714  -0.32136  -0.562357  0.052359  2.497819  0.075
O  O245  1  0.55012681  0.06058010  0.35343528  1  -1.148254  0.081715  -0.321384  -0.56239  0.05236  2.497761  0.075
O  O246  1  0.93942079  0.44987364  0.14656488  1  -1.148292  0.081712  -0.321352  -0.562339  0.052358  2.497837  0.075
O  O247  1  0.06057812  0.55012620  0.64656462  1  -1.14832  0.081713  -0.321358  -0.562347  0.052359  2.497792  0.075
O  O248  1  0.22376325  0.94862654  0.82624210  1  -1.176697  0.001453  -0.32077  -0.542408  0.000182  2.12932  0.001
O  O249  1  0.55137231  0.72376468  0.07624188  1  -1.176704  0.001454  -0.320759  -0.542426  0.000182  2.129331  0.001
O  O250  1  0.44862798  0.27623617  0.57624180  1  -1.176752  0.001453  -0.320753  -0.542415  0.000182  2.12944  0.001
O  O251  1  0.72376480  0.55136923  0.92375800  1  -1.176744  0.001453  -0.320764  -0.542451  0.000182  2.129399  0.001
O  O252  1  0.27623552  0.44862775  0.42375790  1  -1.17673  0.001453  -0.320771  -0.542442  0.000182  2.129382  0.001
O  O253  1  0.77623575  0.05137022  0.32624201  1  -1.176748  0.001453  -0.320772  -0.542442  0.000182  2.129413  0.001
O  O254  1  0.94863080  0.22376412  0.17375820  1  -1.176726  0.001454  -0.320764  -0.542439  0.000182  2.129367  0.001
O  O255  1  0.05137314  0.77623696  0.67375819  1  -1.176715  0.001454  -0.320793  -0.542469  0.000182  2.12932  0.001
O  O256  1  0.23552661  0.69667706  0.89069840  1  -1.147823  0.009084  -0.409834  -0.501156  0.005608  2.289862  0.007
O  O257  1  0.80332182  0.73552885  0.14069802  1  -1.147798  0.009084  -0.409819  -0.501145  0.005608  2.289837  0.007
O  O258  1  0.19667818  0.26447098  0.64069781  1  -1.147778  0.009084  -0.409833  -0.501174  0.005608  2.289789  0.007
O  O259  1  0.73552727  0.80332337  0.85930193  1  -1.147799  0.009085  -0.409794  -0.501099  0.005608  2.289867  0.007
O  O260  1  0.26447334  0.19667813  0.35930227  1  -1.147792  0.009084  -0.409776  -0.501091  0.005608  2.289819  0.007
O  O261  1  0.76447093  0.30332334  0.39069786  1  -1.147773  0.009084  -0.409809  -0.501095  0.005608  2.289887  0.007
O  O262  1  0.69667779  0.23552933  0.10930229  1  -1.147766  0.009084  -0.409822  -0.501144  0.005608  2.289865  0.007
O  O263  1  0.30332177  0.76447043  0.60930172  1  -1.147806  0.009084  -0.409854  -0.501148  0.005608  2.289866  0.007
O  O264  1  0.47699261  0.39768387  0.85836707  1  -1.133823  0.108755  -0.328962  -0.55215  0.069258  2.351272  0.099
O  O265  1  0.10231591  0.97699551  0.10836716  1  -1.133882  0.108756  -0.328913  -0.55212  0.069259  2.351257  0.099
O  O266  1  0.89768365  0.02300425  0.60836684  1  -1.133893  0.10875  -0.328869  -0.552077  0.069255  2.351457  0.099
O  O267  1  0.97699256  0.10231522  0.89163380  1  -1.133869  0.108749  -0.328889  -0.552093  0.069254  2.35132  0.099
O  O268  1  0.02300733  0.89768402  0.39163316  1  -1.13384  0.10875  -0.32893  -0.55213  0.069254  2.351333  0.099
O  O269  1  0.52300682  0.60231529  0.35836597  1  -1.133883  0.108748  -0.32889  -0.552101  0.069253  2.351373  0.099
O  O270  1  0.39768543  0.47699371  0.14163383  1  -1.133877  0.108752  -0.328878  -0.552098  0.069255  2.351401  0.099
O  O271  1  0.60231574  0.52300380  0.64163293  1  -1.133895  0.10875  -0.328861  -0.552068  0.069255  2.35147  0.099
O  O272  1  0.20032834  0.64436863  0.82271242  1  -1.14086  0.004403  -0.418618  -0.496248  0.002631  2.227041  0.003
O  O273  1  0.85563078  0.70032856  0.07271229  1  -1.14084  0.004402  -0.418635  -0.496262  0.002631  2.226985  0.003
O  O274  1  0.14436946  0.29967345  0.57271206  1  -1.14086  0.004403  -0.418609  -0.496169  0.002631  2.227033  0.003
O  O275  1  0.70032642  0.85562947  0.92728790  1  -1.140863  0.004403  -0.418591  -0.496189  0.002631  2.227005  0.003
O  O276  1  0.29966929  0.14436869  0.42728825  1  -1.140852  0.004403  -0.418623  -0.496263  0.002631  2.227038  0.003
O  O277  1  0.79967411  0.35563045  0.32271190  1  -1.141008  0.004403  -0.418624  -0.496228  0.002631  2.227026  0.003
O  O278  1  0.64437117  0.20032686  0.17728801  1  -1.140956  0.004403  -0.418585  -0.496156  0.002631  2.227044  0.003
O  O279  1  0.35563282  0.79966956  0.67728770  1  -1.140847  0.004403  -0.418622  -0.496269  0.002631  2.227002  0.003
