# generated using pymatgen
data_CuH9C9SCl
_symmetry_space_group_name_H-M   'P 1'
_cell_length_a   5.92421653
_cell_length_b   8.66391496
_cell_length_c   18.17490876
_cell_angle_alpha   91.13428628
_cell_angle_beta   89.95250365
_cell_angle_gamma   99.98981520
_symmetry_Int_Tables_number   1
_chemical_formula_structural   CuH9C9SCl
_chemical_formula_sum   'Cu4 H36 C36 S4 Cl4'
_cell_volume   918.53514446
_cell_formula_units_Z   4
loop_
 _symmetry_equiv_pos_site_id
 _symmetry_equiv_pos_as_xyz
  1  'x, y, z'
loop_
 _atom_site_type_symbol
 _atom_site_label
 _atom_site_symmetry_multiplicity
 _atom_site_fract_x
 _atom_site_fract_y
 _atom_site_fract_z
 _atom_site_occupancy
 _atom_site_pbe_bader_spin_density
 _atom_site_pbe_cm5_charge
 _atom_site_pbe_ddec_charge
 _atom_site_pbe_ddec_spin_density
 _atom_site_pbe_ddec_sum_bond_order
 _atom_site_pbe_magmom
Cu  Cu0  1  0.67647198  0.35915089  0.49325448  1  0  0.393878  0.458868  0  2.608582  0
Cu  Cu1  1  0.32354493  0.64084410  0.50674734  1  0  0.393787  0.458783  0  2.608584  0
Cu  Cu2  1  0.89989046  0.69954990  0.38286712  1  0  0.314936  0.207049  0  2.796375  0
Cu  Cu3  1  0.10012136  0.30045103  0.61713091  1  0  0.314912  0.206998  0  2.796384  0
H  H4  1  0.44235596  0.21302597  0.99149514  1  0  0.093163  0.084777  0  1.039186  0
H  H5  1  0.55768003  0.78697720  0.00850463  1  0  0.09316  0.084735  0  1.039235  0
H  H6  1  0.42704104  0.44810513  0.34421434  1  0  0.098707  0.129022  0  1.004135  0
H  H7  1  0.57296841  0.55188955  0.65580947  1  0  0.098743  0.12917  0  1.003936  0
H  H8  1  0.49299611  0.29940578  0.28084791  1  0  0.104897  0.125222  0  0.970944  0
H  H9  1  0.50697799  0.70059396  0.71915990  1  0  0.104945  0.125267  0  0.970953  0
H  H10  1  0.50736700  0.64737567  0.24969765  1  0  0.096911  0.12207  0  1.006478  0
H  H11  1  0.49260714  0.35261117  0.75030891  1  0  0.096952  0.122056  0  1.006572  0
H  H12  1  0.77916391  0.71539994  0.20868073  1  0  0.09716  0.116718  0  1.030633  0
H  H13  1  0.22080434  0.28460333  0.79132766  1  0  0.097197  0.116732  0  1.030424  0
H  H14  1  0.23924273  0.43199996  0.18977183  1  0  0.093619  0.091414  0  1.034599  0
H  H15  1  0.76072489  0.56798701  0.81022756  1  0  0.093665  0.091436  0  1.034712  0
H  H16  1  0.14616826  0.24523317  0.08505712  1  0  0.091597  0.08576  0  1.057485  0
H  H17  1  0.85383613  0.75475844  0.91493857  1  0  0.091599  0.085748  0  1.057496  0
H  H18  1  0.83754828  0.36889852  0.00466821  1  0  0.096555  0.090104  0  1.030768  0
H  H19  1  0.16247367  0.63111038  0.99534370  1  0  0.096615  0.090132  0  1.030705  0
H  H20  1  0.93324743  0.55060267  0.11147505  1  0  0.094232  0.094048  0  1.037115  0
H  H21  1  0.06673449  0.44940167  0.88853724  1  0  0.094108  0.093893  0  1.036927  0
H  H22  1  0.65833557  0.95739027  0.47252257  1  0  0.104902  0.134953  0  0.992093  0
H  H23  1  0.34171477  0.04259051  0.52747972  1  0  0.104901  0.135017  0  0.991973  0
H  H24  1  0.94034676  0.06927379  0.46644332  1  0  0.103732  0.129388  0  1.003834  0
H  H25  1  0.05967194  0.93070833  0.53355560  1  0  0.103676  0.129393  0  1.003621  0
H  H26  1  0.03722365  0.17522340  0.32163035  1  0  0.099875  0.127254  0  0.981214  0
H  H27  1  0.96281440  0.82476805  0.67836764  1  0  0.099805  0.127086  0  0.981311  0
H  H28  1  0.21564554  0.03370876  0.34325263  1  0  0.094388  0.122355  0  1.000325  0
H  H29  1  0.78435419  0.96626420  0.65673567  1  0  0.094339  0.122287  0  1.000218  0
H  H30  1  0.76642815  0.10599991  0.20683249  1  0  0.100848  0.107652  0  1.003092  0
H  H31  1  0.23355319  0.89400107  0.79316930  1  0  0.100806  0.107638  0  1.003086  0
H  H32  1  0.74893939  0.01062212  0.07745089  1  0  0.09694  0.090255  0  1.025422  0
H  H33  1  0.25104381  0.98940475  0.92254517  1  0  0.096969  0.090303  0  1.025574  0
H  H34  1  0.03579962  0.85291873  0.03059950  1  0  0.09628  0.089892  0  1.041956  0
H  H35  1  0.96418818  0.14711876  0.96939174  1  0  0.096279  0.089957  0  1.041706  0
H  H36  1  0.34195652  0.79396985  0.11465030  1  0  0.098401  0.096635  0  1.020427  0
H  H37  1  0.65803071  0.20605137  0.88533029  1  0  0.098368  0.09663  0  1.020565  0
H  H38  1  0.35739007  0.89024330  0.24485733  1  0  0.093157  0.098057  0  1.04887  0
H  H39  1  0.64260083  0.10975326  0.75512408  1  0  0.093083  0.097987  0  1.048608  0
C  C40  1  0.48538569  0.29402336  0.03805297  1  0  -0.097626  -0.089881  0  4.012303  0
C  C41  1  0.51464767  0.70598920  0.96194745  1  0  -0.09759  -0.089777  0  4.012073  0
C  C42  1  0.68761428  0.18250289  0.42306050  1  0  -0.115384  -0.099617  0  4.143949  0
C  C43  1  0.31239476  0.81748850  0.57694786  1  0  -0.11533  -0.099689  0  4.144342  0
C  C44  1  0.62963359  0.29164319  0.38760603  1  0  -0.112507  -0.093091  0  4.116621  0
C  C45  1  0.37038756  0.70834236  0.61239789  1  0  -0.1125  -0.09293  0  4.11677  0
C  C46  1  0.55842715  0.37922205  0.32692798  1  0  -0.137859  -0.143794  0  3.958141  0
C  C47  1  0.44157764  0.62077877  0.67307883  1  0  -0.138029  -0.144168  0  3.958313  0
C  C48  1  0.65634100  0.61045999  0.22305529  1  0  -0.150435  -0.23891  0  3.900695  0
C  C49  1  0.34363789  0.38954451  0.77694654  1  0  -0.150522  -0.238943  0  3.900844  0
C  C50  1  0.59362065  0.50337409  0.15788487  1  0  -0.020917  0.116125  0  4.002263  0
C  C51  1  0.40635341  0.49663157  0.84211916  1  0  -0.020801  0.116198  0  4.002191  0
C  C52  1  0.37147667  0.41741587  0.14950759  1  0  -0.097588  -0.146818  0  3.971347  0
C  C53  1  0.62852788  0.58258381  0.85049701  1  0  -0.097642  -0.146819  0  3.971464  0
C  C54  1  0.31844521  0.31287575  0.09006811  1  0  -0.097275  -0.077401  0  4.022885  0
C  C55  1  0.68155351  0.68712049  0.90993203  1  0  -0.097335  -0.077456  0  4.023405  0
C  C56  1  0.70660455  0.38056878  0.04559228  1  0  -0.094935  -0.080776  0  4.02718  0
C  C57  1  0.29340582  0.61944724  0.95441692  1  0  -0.095028  -0.080836  0  4.026928  0
C  C58  1  0.76032271  0.48364772  0.10528526  1  0  -0.097117  -0.142199  0  3.975367  0
C  C59  1  0.23969226  0.51637298  0.89472402  1  0  -0.097073  -0.142132  0  3.97547  0
C  C60  1  0.77406593  0.03937764  0.43833181  1  0  -0.139939  -0.154045  0  3.969816  0
C  C61  1  0.22595842  0.96061377  0.56167219  1  0  -0.139834  -0.153958  0  3.969774  0
C  C62  1  0.06120631  0.05289002  0.31397004  1  0  -0.148437  -0.234956  0  3.876018  0
C  C63  1  0.93880066  0.94709811  0.68602177  1  0  -0.148336  -0.234584  0  3.875601  0
C  C64  1  0.06471004  0.00547224  0.23413573  1  0  -0.018124  0.113403  0  3.995284  0
C  C65  1  0.93527546  0.99451823  0.76586100  1  0  -0.018041  0.113568  0  3.995216  0
C  C66  1  0.89363782  0.03847266  0.18639784  1  0  -0.091432  -0.137968  0  3.966797  0
C  C67  1  0.10634120  0.96153191  0.81359959  1  0  -0.091444  -0.138076  0  3.966701  0
C  C68  1  0.88336265  0.98386584  0.11360322  1  0  -0.094577  -0.086578  0  4.035589  0
C  C69  1  0.11662833  0.01615167  0.88638944  1  0  -0.094684  -0.086671  0  4.035913  0
C  C70  1  0.04487187  0.89607394  0.08744878  1  0  -0.098466  -0.102326  0  4.021735  0
C  C71  1  0.95511986  0.10394597  0.91253951  1  0  -0.098406  -0.102323  0  4.021571  0
C  C72  1  0.21656346  0.86360186  0.13439215  1  0  -0.096456  -0.083531  0  4.010641  0
C  C73  1  0.78341604  0.13640989  0.86559546  1  0  -0.09647  -0.083629  0  4.010351  0
C  C74  1  0.22600173  0.91755652  0.20754559  1  0  -0.091865  -0.135787  0  3.950198  0
C  C75  1  0.77398786  0.08243531  0.79243851  1  0  -0.09175  -0.135699  0  3.949676  0
S  S76  1  0.80773817  0.92989661  0.35309982  1  0  -0.032603  0.072252  0  3.20925  0
S  S77  1  0.19226615  0.07010193  0.64690256  1  0  -0.032613  0.072135  0  3.209396  0
S  S78  1  0.80585584  0.51787609  0.29382502  1  0  -0.03616  0.051775  0  3.107075  0
S  S79  1  0.19413695  0.48212365  0.70617844  1  0  -0.036097  0.051887  0  3.107107  0
Cl  Cl80  1  0.30185097  0.72412075  0.39016713  1  0  -0.30545  -0.461908  0  1.757659  0
Cl  Cl81  1  0.69815479  0.27585779  0.60983831  1  0  -0.30546  -0.461958  0  1.757583  0
Cl  Cl82  1  0.77831287  0.62854506  0.50059895  1  0  -0.288968  -0.445442  0  1.898323  0
Cl  Cl83  1  0.22169912  0.37145001  0.49939846  1  0  -0.288985  -0.445407  0  1.898324  0
