# generated using pymatgen
data_ZnH10C12(NCl)2
_symmetry_space_group_name_H-M   'P 1'
_cell_length_a   5.28467062
_cell_length_b   7.89512512
_cell_length_c   15.11198566
_cell_angle_alpha   78.00244411
_cell_angle_beta   89.25383622
_cell_angle_gamma   89.07254360
_symmetry_Int_Tables_number   1
_chemical_formula_structural   ZnH10C12(NCl)2
_chemical_formula_sum   'Zn2 H20 C24 N4 Cl4'
_cell_volume   616.63579142
_cell_formula_units_Z   2
loop_
 _symmetry_equiv_pos_site_id
 _symmetry_equiv_pos_as_xyz
  1  'x, y, z'
loop_
 _atom_site_type_symbol
 _atom_site_label
 _atom_site_symmetry_multiplicity
 _atom_site_fract_x
 _atom_site_fract_y
 _atom_site_fract_z
 _atom_site_occupancy
 _atom_site_hle17_bader_spin_density
 _atom_site_hle17_ddec_charge
 _atom_site_hle17_ddec_spin_density
 _atom_site_hle17_ddec_sum_bond_order
 _atom_site_hle17_magmom
 _atom_site_hse06_10hf_bader_spin_density
 _atom_site_hse06_10hf_ddec_charge
 _atom_site_hse06_10hf_ddec_spin_density
 _atom_site_hse06_10hf_ddec_sum_bond_order
 _atom_site_hse06_10hf_magmom
 _atom_site_hse06_bader_spin_density
 _atom_site_hse06_ddec_charge
 _atom_site_hse06_ddec_spin_density
 _atom_site_hse06_ddec_sum_bond_order
 _atom_site_hse06_magmom
 _atom_site_pbe_bader_spin_density
 _atom_site_pbe_cm5_charge
 _atom_site_pbe_ddec_charge
 _atom_site_pbe_ddec_spin_density
 _atom_site_pbe_ddec_sum_bond_order
 _atom_site_pbe_magmom
Zn  Zn0  1  0.11988628  0.51002971  0.25521558  1  0  0.843898  0  2.110095  0  0  0.662993  0  2.604474  0  0  0.703226  0  2.559421  0  0  0.558952  0.63539  0  2.635075  0
Zn  Zn1  1  0.88011480  0.48996878  0.74478411  1  0  0.843886  0  2.110077  0  0  0.662972  0  2.604446  0  0  0.703214  0  2.559398  0  0  0.558939  0.635364  0  2.63504  0
H  H2  1  0.47002057  0.50015003  0.10155784  1  0  0.074667  0  0.954551  0  0  0.082741  0  1.020133  0  0  0.085113  0  1.017982  0  0  0.106623  0.080924  0  1.021788  0
H  H3  1  0.52998621  0.49984718  0.89844129  1  0  0.074641  0  0.954557  0  0  0.082719  0  1.020146  0  0  0.085092  0  1.017993  0  0  0.10661  0.080901  0  1.021801  0
H  H4  1  0.80030751  0.68187314  0.01259601  1  0  0.111261  0  0.966599  0  0  0.119383  0  1.03049  0  0  0.122959  0  1.028927  0  0  0.10009  0.116822  0  1.031751  0
H  H5  1  0.19969731  0.31812795  0.98740469  1  0  0.111244  0  0.966634  0  0  0.119361  0  1.030522  0  0  0.122938  0  1.028957  0  0  0.10009  0.116798  0  1.031791  0
H  H6  1  0.91249191  0.14696029  0.04713016  1  0  0.098292  0  0.979118  0  0  0.109974  0  1.040242  0  0  0.112686  0  1.039125  0  0  0.093121  0.108043  0  1.041036  0
H  H7  1  0.08751109  0.85303820  0.95287150  1  0  0.098296  0  0.979142  0  0  0.109961  0  1.040273  0  0  0.112677  0  1.039158  0  0  0.093117  0.10803  0  1.041065  0
H  H8  1  0.58606366  0.08571582  0.15421071  1  0  0.105334  0  0.968433  0  0  0.115508  0  1.030792  0  0  0.118496  0  1.029892  0  0  0.101928  0.113326  0  1.031638  0
H  H9  1  0.41392794  0.91428396  0.84579022  1  0  0.105341  0  0.96843  0  0  0.115516  0  1.030775  0  0  0.118482  0  1.029905  0  0  0.101944  0.11334  0  1.031616  0
H  H10  1  0.26227864  0.88309165  0.23948261  1  0  0.075544  0  0.941629  0  0  0.08297  0  1.008376  0  0  0.085849  0  1.005353  0  0  0.108882  0.080839  0  1.010597  0
H  H11  1  0.73771685  0.11690295  0.76051754  1  0  0.075543  0  0.941614  0  0  0.08297  0  1.008366  0  0  0.08585  0  1.005342  0  0  0.108866  0.080838  0  1.010586  0
H  H12  1  0.23554001  0.44075524  0.45928665  1  0  0.076791  0  0.956874  0  0  0.082008  0  1.028622  0  0  0.084557  0  1.026287  0  0  0.10734  0.080112  0  1.030377  0
H  H13  1  0.76444977  0.55924065  0.54071273  1  0  0.076841  0  0.956713  0  0  0.082013  0  1.028535  0  0  0.084563  0  1.026197  0  0  0.107329  0.080115  0  1.030292  0
H  H14  1  0.55905516  0.27000637  0.56002616  1  0  0.112098  0  0.950723  0  0  0.12041  0  1.014366  0  0  0.12368  0  1.013468  0  0  0.102688  0.118089  0  1.015106  0
H  H15  1  0.44093839  0.72999082  0.43997438  1  0  0.11211  0  0.950725  0  0  0.120422  0  1.014363  0  0  0.123689  0  1.013469  0  0  0.102657  0.118099  0  1.015114  0
H  H16  1  0.92612008  0.08694224  0.57957349  1  0  0.092495  0  0.965939  0  0  0.10295  0  1.030772  0  0  0.105935  0  1.028984  0  0  0.096691  0.1008  0  1.03207  0
H  H17  1  0.07388090  0.91306143  0.42042696  1  0  0.092489  0  0.965923  0  0  0.102938  0  1.03078  0  0  0.10593  0  1.028975  0  0  0.096698  0.1008  0  1.032068  0
H  H18  1  0.81445000  0.05908135  0.33069988  1  0  0.11136  0  0.955183  0  0  0.120024  0  1.017484  0  0  0.123375  0  1.016342  0  0  0.104021  0.117597  0  1.018527  0
H  H19  1  0.18556036  0.94092493  0.66929890  1  0  0.111414  0  0.95512  0  0  0.120021  0  1.017484  0  0  0.123372  0  1.016339  0  0  0.104048  0.117594  0  1.018522  0
H  H20  1  0.48156974  0.23854030  0.24119879  1  0  0.066421  0  0.982732  0  0  0.073505  0  1.053021  0  0  0.075893  0  1.050346  0  0  0.102914  0.071723  0  1.054992  0
H  H21  1  0.51844063  0.76146597  0.75879999  1  0  0.066453  0  0.982739  0  0  0.073531  0  1.053039  0  0  0.07592  0  1.050365  0  0  0.102936  0.07175  0  1.055004  0
C  C22  1  0.50331483  0.63078104  0.11139010  1  0  0.129825  0  3.717816  0  0  0.098882  0  3.964852  0  0  0.106112  0  3.983553  0  0  0.041516  0.094284  0  3.952162  0
C  C23  1  0.49668809  0.36922005  0.88860995  1  0  0.129859  0  3.717803  0  0  0.098895  0  3.964849  0  0  0.106125  0  3.983551  0  0  0.041509  0.094296  0  3.952157  0
C  C24  1  0.68718308  0.73363895  0.06191850  1  0  -0.153701  0  3.678424  0  0  -0.168588  0  3.920122  0  0  -0.177087  0  3.94114  0  0  -0.080486  -0.163197  0  3.906131  0
C  C25  1  0.31281983  0.26636343  0.93808274  1  0  -0.153708  0  3.678437  0  0  -0.168565  0  3.920192  0  0  -0.177063  0  3.941209  0  0  -0.080492  -0.163177  0  3.906203  0
C  C26  1  0.91375922  0.01937851  0.02988708  1  0  -0.091501  0  3.692599  0  0  -0.111863  0  3.940734  0  0  -0.115568  0  3.961854  0  0  -0.079204  -0.10932  0  3.926207  0
C  C27  1  0.08624186  0.98062128  0.97011445  1  0  -0.091461  0  3.692597  0  0  -0.111773  0  3.940754  0  0  -0.115483  0  3.961877  0  0  -0.079129  -0.109224  0  3.926223  0
C  C28  1  0.72417632  0.90151405  0.07688591  1  0  0.143001  0  3.784605  0  0  0.156769  0  4.015416  0  0  0.163229  0  4.037042  0  0  0.010749  0.152722  0  4.000536  0
C  C29  1  0.27582471  0.09848833  0.92311600  1  0  0.143031  0  3.784563  0  0  0.156693  0  4.015494  0  0  0.163154  0  4.037117  0  0  0.010732  0.152644  0  4.000613  0
C  C30  1  0.56554201  0.95609445  0.14129229  1  0  -0.152643  0  3.683084  0  0  -0.170777  0  3.929783  0  0  -0.179504  0  3.951267  0  0  -0.079862  -0.165194  0  3.915357  0
C  C31  1  0.43445338  0.04390533  0.85870861  1  0  -0.152613  0  3.68295  0  0  -0.170702  0  3.929665  0  0  -0.179417  0  3.951169  0  0  -0.079853  -0.165128  0  3.915232  0
C  C32  1  0.38706088  0.84500301  0.18867730  1  0  0.13886  0  3.717908  0  0  0.105402  0  3.970845  0  0  0.113481  0  3.988529  0  0  0.044468  0.100253  0  3.958687  0
C  C33  1  0.61293643  0.15499548  0.81132373  1  0  0.138881  0  3.717817  0  0  0.105413  0  3.970743  0  0  0.11349  0  3.988421  0  0  0.044516  0.100263  0  3.958582  0
C  C34  1  0.36963846  0.35556437  0.43377089  1  0  0.13697  0  3.710021  0  0  0.103356  0  3.962012  0  0  0.111397  0  3.980206  0  0  0.045365  0.098241  0  3.949558  0
C  C35  1  0.63035694  0.64443411  0.56622817  1  0  0.137031  0  3.709858  0  0  0.103425  0  3.961876  0  0  0.111465  0  3.980069  0  0  0.045364  0.098307  0  3.949422  0
C  C36  1  0.55120629  0.26020815  0.48925556  1  0  -0.155105  0  3.675796  0  0  -0.171924  0  3.922658  0  0  -0.180729  0  3.944  0  0  -0.079747  -0.166322  0  3.908315  0
C  C37  1  0.44879101  0.73979034  0.51074415  1  0  -0.155183  0  3.675818  0  0  -0.171981  0  3.922674  0  0  -0.180784  0  3.944022  0  0  -0.079716  -0.166383  0  3.908337  0
C  C38  1  0.72165781  0.15141217  0.45430875  1  0  0.140788  0  3.784258  0  0  0.155221  0  4.013814  0  0  0.161394  0  4.035662  0  0  0.010185  0.151363  0  3.998769  0
C  C39  1  0.27834322  0.84858891  0.54569198  1  0  0.140737  0  3.784235  0  0  0.155158  0  4.013811  0  0  0.161328  0  4.03566  0  0  0.010168  0.151298  0  3.998769  0
C  C40  1  0.91676335  0.05712615  0.51225737  1  0  -0.087752  0  3.691462  0  0  -0.108382  0  3.940656  0  0  -0.111568  0  3.961085  0  0  -0.077574  -0.106193  0  3.92662  0
C  C41  1  0.08323765  0.94287623  0.48774256  1  0  -0.08765  0  3.691406  0  0  -0.108294  0  3.940611  0  0  -0.111476  0  3.961043  0  0  -0.077564  -0.106111  0  3.926566  0
C  C42  1  0.69244425  0.14105391  0.36313577  1  0  -0.150341  0  3.68399  0  0  -0.165189  0  3.925742  0  0  -0.173499  0  3.947198  0  0  -0.080037  -0.15989  0  3.911409  0
C  C43  1  0.30755876  0.85894329  0.63686470  1  0  -0.150328  0  3.684016  0  0  -0.165122  0  3.925788  0  0  -0.173427  0  3.94724  0  0  -0.080024  -0.159822  0  3.911449  0
C  C44  1  0.50721859  0.24070514  0.31227521  1  0  0.122931  0  3.732663  0  0  0.091148  0  3.979925  0  0  0.098027  0  3.999231  0  0  0.037887  0.086779  0  3.966792  0
C  C45  1  0.49278621  0.75929595  0.68772351  1  0  0.122858  0  3.732804  0  0  0.091078  0  3.980044  0  0  0.097955  0  3.999349  0  0  0.037842  0.086708  0  3.966906  0
N  N46  1  0.35633654  0.68370924  0.17450813  1  0  -0.328398  0  3.330876  0  0  -0.241575  0  3.602108  0  0  -0.261368  0  3.619258  0  0  -0.3372  -0.228239  0  3.590224  0
N  N47  1  0.64366268  0.31628796  0.82549171  1  0  -0.328433  0  3.330798  0  0  -0.241599  0  3.602036  0  0  -0.261386  0  3.619181  0  0  -0.337223  -0.228259  0  3.590145  0
N  N48  1  0.34960559  0.34823610  0.34594436  1  0  -0.325835  0  3.332159  0  0  -0.237353  0  3.600243  0  0  -0.257292  0  3.61772  0  0  -0.337136  -0.223968  0  3.588221  0
N  N49  1  0.65039168  0.65176239  0.65405403  1  0  -0.325842  0  3.3321  0  0  -0.237342  0  3.600178  0  0  -0.257278  0  3.617655  0  0  -0.337098  -0.223949  0  3.588142  0
Cl  Cl50  1  0.00719137  0.33546514  0.16160988  1  0  -0.576293  0  0.938537  0  0  -0.515093  0  1.217279  0  0  -0.530769  0  1.195209  0  0  -0.30768  -0.503586  0  1.232251  0
Cl  Cl51  1  0.99280586  0.66453594  0.83838954  1  0  -0.576284  0  0.938537  0  0  -0.515076  0  1.217274  0  0  -0.530757  0  1.195207  0  0  -0.307668  -0.503573  0  1.232247  0
Cl  Cl52  1  0.87606764  0.65785687  0.33473250  1  0  -0.559051  0  0.924264  0  0  -0.492562  0  1.200615  0  0  -0.508091  0  1.180476  0  0  -0.314536  -0.481454  0  1.214397  0
Cl  Cl53  1  0.12393907  0.34214422  0.66526753  1  0  -0.559069  0  0.924259  0  0  -0.492571  0  1.200597  0  0  -0.508103  0  1.180468  0  0  -0.314555  -0.481467  0  1.214375  0
