# generated using pymatgen
data_Zr6H29C50ClO52
_symmetry_space_group_name_H-M   'P 1'
_cell_length_a   14.85615099
_cell_length_b   14.84498961
_cell_length_c   14.85912006
_cell_angle_alpha   59.87470285
_cell_angle_beta   59.93867260
_cell_angle_gamma   60.03552034
_symmetry_Int_Tables_number   1
_chemical_formula_structural   Zr6H29C50ClO52
_chemical_formula_sum   'Zr6 H29 C50 Cl1 O52'
_cell_volume   2314.54786962
_cell_formula_units_Z   1
loop_
 _symmetry_equiv_pos_site_id
 _symmetry_equiv_pos_as_xyz
  1  'x, y, z'
loop_
 _atom_site_type_symbol
 _atom_site_label
 _atom_site_symmetry_multiplicity
 _atom_site_fract_x
 _atom_site_fract_y
 _atom_site_fract_z
 _atom_site_occupancy
 _atom_site_pbe_bader_charge
 _atom_site_pbe_bader_spin_density
 _atom_site_pbe_cm5_charge
 _atom_site_pbe_ddec_charge
 _atom_site_pbe_ddec_spin_density
 _atom_site_pbe_ddec_sum_bond_order
 _atom_site_pbe_magmom
Zr  Zr0  1  0.88085472  0.88197504  0.61812948  1  2.632535  0  1.638274  2.366792  0  2.762256  0
Zr  Zr1  1  0.11865934  0.11956602  0.38061975  1  2.632986  0  1.639924  2.372666  0  2.764823  0
Zr  Zr2  1  0.11802090  0.88127080  0.61873517  1  2.629326  0  1.637729  2.369433  0  2.756844  0
Zr  Zr3  1  0.88175800  0.12058299  0.37942546  1  2.636455  0  1.634955  2.366677  0  2.749925  0
Zr  Zr4  1  0.11797438  0.88244194  0.38118293  1  2.630418  0  1.636303  2.366911  0  2.76782  0
Zr  Zr5  1  0.88158169  0.11888654  0.61766586  1  2.628094  0  1.636509  2.365871  0  2.769423  0
H  H6  1  0.09281978  0.71959666  0.59359045  1  0.62802  0  0.336556  0.431306  0  0.84598  0
H  H7  1  0.09393546  0.09482652  0.21831188  1  0.595559  0  0.336638  0.43214  0  0.843004  0
H  H8  1  0.09354730  0.09397153  0.59319162  1  0.613482  0  0.335388  0.431224  0  0.845821  0
H  H9  1  0.71880328  0.09448941  0.59279976  1  0.611174  0  0.335182  0.430794  0  0.846399  0
H  H10  1  0.13924954  0.59238537  0.91439901  1  0.131773  0  0.113071  0.13399  0  0.994227  0
H  H11  1  0.74108049  0.62204969  0.96523762  1  0.077462  0  0.104214  0.124909  0  0.986781  0
H  H12  1  0.82844762  0.53722583  0.88019794  1  0.071482  0  0.103432  0.121931  0  0.984809  0
H  H13  1  0.83468328  0.36857496  0.04899580  1  0.074919  0  0.101952  0.11989  0  0.990544  0
H  H14  1  0.74773567  0.45366822  0.13383975  1  0.07387  0  0.103044  0.122685  0  0.993457  0
H  H15  1  0.14675782  0.35357966  0.34099602  1  0.630224  0  0.307331  0.341347  0  0.985286  0
H  H16  1  0.84825834  0.65314208  0.65295818  1  0.636695  0  0.310343  0.343718  0  0.982631  0
H  H17  1  0.14983826  0.65657943  0.34328215  1  0.629923  0  0.31013  0.343325  0  0.978573  0
H  H18  1  0.84534127  0.34856702  0.65274818  1  0.640689  0  0.309373  0.342622  0  0.978941  0
H  H19  1  0.34704690  0.15348048  0.15228066  1  0.62431  0  0.307364  0.340636  0  0.985632  0
H  H20  1  0.66013799  0.84157516  0.85268417  1  0.61469  0  0.310566  0.347288  0  0.976868  0
H  H21  1  0.65509787  0.15166702  0.84881396  1  0.624116  0  0.309813  0.343002  0  0.978994  0
H  H22  1  0.35164326  0.84263406  0.15668007  1  0.627871  0  0.309565  0.343091  0  0.97862  0
H  H23  1  0.84628748  0.15318581  0.84736875  1  0.635437  0  0.309537  0.343171  0  0.978038  0
H  H24  1  0.14848691  0.84286595  0.15641422  1  0.640921  0  0.309574  0.342608  0  0.979073  0
H  H25  1  0.84869927  0.15326739  0.15201389  1  0.621878  0  0.310061  0.343043  0  0.983432  0
H  H26  1  0.14559750  0.84144870  0.85280557  1  0.619548  0  0.310373  0.34574  0  0.9774  0
H  H27  1  0.35204017  0.65760600  0.34162082  1  0.618345  0  0.309555  0.342951  0  0.978065  0
H  H28  1  0.65324287  0.34893866  0.65174576  1  0.633501  0  0.309612  0.342142  0  0.979031  0
H  H29  1  0.66032099  0.35384278  0.34071052  1  0.622219  0  0.310186  0.343369  0  0.983174  0
H  H30  1  0.34592094  0.65298877  0.65253160  1  0.636881  0  0.310204  0.344748  0  0.978037  0
H  H31  1  0.34974870  0.84462411  0.65021733  1  0.620927  0  0.309487  0.343365  0  0.979446  0
H  H32  1  0.65547638  0.15168982  0.34285573  1  0.642213  0  0.309277  0.343182  0  0.979805  0
H  H33  1  0.65548767  0.84519812  0.64935415  1  0.621541  0  0.309266  0.343195  0  0.980379  0
H  H34  1  0.34980626  0.15124150  0.34345288  1  0.635586  0  0.309768  0.344361  0  0.97701  0
C  C35  1  0.99754780  0.69692644  0.49666316  1  1.437973  0  0.233763  0.666386  0  4.047423  0
C  C36  1  0.30925554  0.99701578  0.19617865  1  1.437608  0  0.233676  0.665324  0  4.04656  0
C  C37  1  0.99662356  0.30935481  0.49788432  1  1.460721  0  0.233933  0.667267  0  4.044728  0
C  C38  1  0.69692037  0.99780011  0.80889701  1  1.426717  0  0.234076  0.666161  0  4.049549  0
C  C39  1  0.99448878  0.70182518  0.80501882  1  1.520395  0  0.243936  0.662037  0  4.065192  0
C  C40  1  0.69653034  0.99844135  0.49592916  1  1.446589  0  0.233364  0.66658  0  4.043701  0
C  C41  1  0.99850310  0.30626857  0.19987909  1  1.509914  0  0.239531  0.668126  0  4.071973  0
C  C42  1  0.30903711  0.99758700  0.49664707  1  1.42689  0  0.233543  0.666085  0  4.043957  0
C  C43  1  0.30875030  0.69677362  0.49646131  1  1.424443  0  0.233814  0.666641  0  4.045853  0
C  C44  1  0.99623019  0.99773104  0.80897762  1  1.44189  0  0.233726  0.665695  0  4.047984  0
C  C45  1  0.69709556  0.31045627  0.49634614  1  1.411424  0  0.233476  0.665229  0  4.048898  0
C  C46  1  0.99781601  0.99757830  0.19553255  1  1.423158  0  0.233992  0.665788  0  4.045771  0
C  C47  1  0.99704628  0.40734018  0.49811562  1  0.07039  0  -0.049458  -0.303665  0  4.01621  0
C  C48  1  0.99827490  0.59765355  0.49799512  1  0.032489  0  -0.049974  -0.30582  0  4.025843  0
C  C49  1  0.07973471  0.45617885  0.41386182  1  0.572863  0  0.075609  0.204908  0  4.05188  0
C  C50  1  0.91664222  0.54772261  0.58328422  1  0.614744  0  0.073351  0.198216  0  4.058826  0
C  C51  1  0.08044048  0.55040801  0.41395803  1  0.570641  0  0.075157  0.201424  0  4.054266  0
C  C52  1  0.91563213  0.45389868  0.58300325  1  0.52789  0  0.07268  0.195549  0  4.062733  0
C  C53  1  0.40787877  0.99688505  0.09814619  1  0.022973  0  -0.050033  -0.304839  0  4.01598  0
C  C54  1  0.59944876  0.99678420  0.90795808  1  0.03428  0  -0.049431  -0.305537  0  4.025011  0
C  C55  1  0.45479492  0.08148981  0.04890352  1  0.578168  0  0.07607  0.205924  0  4.050322  0
C  C56  1  0.55276439  0.91188439  0.95750375  1  0.588669  0  0.072863  0.197833  0  4.058906  0
C  C57  1  0.54980787  0.08137840  0.95463243  1  0.627606  0  0.075476  0.201226  0  4.053272  0
C  C58  1  0.45751297  0.91235674  0.05119947  1  0.534948  0  0.073816  0.197379  0  4.061015  0
C  C59  1  0.99655208  0.99771135  0.90707817  1  0.032797  0  -0.049179  -0.305563  0  4.022429  0
C  C60  1  0.99793702  0.99804993  0.09697699  1  0.024536  0  -0.049616  -0.304588  0  4.020625  0
C  C61  1  0.91581274  0.08310840  0.95310734  1  0.600421  0  0.073341  0.197993  0  4.061305  0
C  C62  1  0.07924051  0.91325780  0.05043212  1  0.576903  0  0.074772  0.198459  0  4.05715  0
C  C63  1  0.91671634  0.08340684  0.04691313  1  0.558842  0  0.07297  0.197094  0  4.058129  0
C  C64  1  0.07835396  0.91286336  0.95651821  1  0.618061  0  0.076065  0.2027  0  4.056632  0
C  C65  1  0.40713345  0.59859386  0.49651249  1  0.014485  0  -0.049165  -0.305203  0  4.020962  0
C  C66  1  0.59885784  0.40873598  0.49613136  1  0.049638  0  -0.049539  -0.304092  0  4.020559  0
C  C67  1  0.45729776  0.55198035  0.41163952  1  0.593552  0  0.073808  0.197542  0  4.061188  0
C  C68  1  0.54831135  0.45473883  0.58143281  1  0.584557  0  0.075086  0.199022  0  4.056453  0
C  C69  1  0.55251472  0.45836195  0.41117410  1  0.523564  0  0.072893  0.197257  0  4.057566  0
C  C70  1  0.45321708  0.54877119  0.58168583  1  0.64591  0  0.075039  0.201457  0  4.057934  0
C  C71  1  0.99390356  0.60202563  0.90520525  1  0.000987  0  -0.011476  -0.072207  0  3.984368  0
C  C72  1  0.00078015  0.40614552  0.09978712  1  -0.019613  0  -0.015842  -0.153631  0  3.922186  0
C  C73  1  0.91611635  0.54929411  0.95648453  1  -0.007237  0  -0.001183  0.060768  0  3.875011  0
C  C74  1  0.08105053  0.45973569  0.04569422  1  0.077542  0  0.026689  0.135667  0  4.002027  0
C  C75  1  0.92026374  0.45485729  0.05055232  1  0.023441  0  0.003313  0.079894  0  3.865407  0
C  C76  1  0.07627504  0.55465178  0.95213033  1  0.021697  0  -0.085187  -0.164365  0  3.948577  0
C  C77  1  0.81540689  0.55016752  0.95306483  1  -0.019338  0  -0.146073  -0.195406  0  3.835351  0
C  C78  1  0.81957367  0.44372859  0.05946053  1  -0.007262  0  -0.146378  -0.19303  0  3.830117  0
C  C79  1  0.40722708  0.99783884  0.49653737  1  0.059498  0  -0.049251  -0.30551  0  4.019066  0
C  C80  1  0.59827370  0.99824662  0.49613903  1  0.048994  0  -0.049607  -0.306251  0  4.020384  0
C  C81  1  0.45521698  0.91482102  0.58010789  1  0.570913  0  0.074572  0.199716  0  4.056227  0
C  C82  1  0.54982249  0.08172996  0.41304069  1  0.57711  0  0.074632  0.19999  0  4.054741  0
C  C83  1  0.54977423  0.91497742  0.57990951  1  0.570866  0  0.074567  0.199758  0  4.056211  0
C  C84  1  0.45524713  0.08157696  0.41324223  1  0.570842  0  0.074083  0.198796  0  4.055551  0
Cl  Cl85  1  0.19067081  0.41421515  0.08718475  1  -0.148909  0  0.031475  -0.016384  0  1.553471  0
O  O86  1  0.92122029  0.74010104  0.57228626  1  -1.192225  0  -0.354282  -0.629605  0  2.322118  0
O  O87  1  0.26608831  0.07340379  0.23849632  1  -1.183349  0  -0.352551  -0.625527  0  2.318729  0
O  O88  1  0.07282508  0.26641592  0.42224042  1  -1.197114  0  -0.351763  -0.623642  0  2.321821  0
O  O89  1  0.73878848  0.92266409  0.76534093  1  -1.188003  0  -0.353547  -0.629578  0  2.325301  0
O  O90  1  0.07126733  0.74201737  0.76406598  1  -1.184447  0  -0.362254  -0.626624  0  2.273089  0
O  O91  1  0.73907193  0.07517568  0.42002532  1  -1.198086  0  -0.355123  -0.632446  0  2.310902  0
O  O92  1  0.92178039  0.26674664  0.23761607  1  -1.1733  0  -0.356128  -0.620657  0  2.249053  0
O  O93  1  0.26575025  0.92158728  0.57329420  1  -1.187979  0  -0.355548  -0.633978  0  2.310208  0
O  O94  1  0.26581108  0.73936508  0.42051377  1  -1.187977  0  -0.355719  -0.633148  0  2.313125  0
O  O95  1  0.92059888  0.07439234  0.76569473  1  -1.193543  0  -0.356395  -0.633511  0  2.315414  0
O  O96  1  0.73904146  0.26690310  0.57326594  1  -1.188629  0  -0.355141  -0.631275  0  2.317015  0
O  O97  1  0.07391847  0.92147056  0.23830478  1  -1.187752  0  -0.355576  -0.631278  0  2.314837  0
O  O98  1  0.07234376  0.92190456  0.76601897  1  -1.199868  0  -0.353209  -0.628353  0  2.318395  0
O  O99  1  0.73986999  0.26766680  0.42035477  1  -1.185608  0  -0.353278  -0.628603  0  2.323134  0
O  O100  1  0.92211517  0.07390385  0.23801179  1  -1.184427  0  -0.353776  -0.629154  0  2.320096  0
O  O101  1  0.26535032  0.73904133  0.57303969  1  -1.185793  0  -0.353877  -0.630081  0  2.315694  0
O  O102  1  0.91885562  0.74121764  0.76410029  1  -1.17622  0  -0.356823  -0.619176  0  2.25828  0
O  O103  1  0.26594852  0.07415582  0.42073996  1  -1.196852  0  -0.356176  -0.632429  0  2.311724  0
O  O104  1  0.07256534  0.26330038  0.24354232  1  -1.179952  0  -0.369469  -0.640237  0  2.381271  0
O  O105  1  0.73896663  0.92248343  0.57249904  1  -1.188463  0  -0.356521  -0.633448  0  2.316334  0
O  O106  1  0.73914457  0.07476330  0.76525591  1  -1.190107  0  -0.357496  -0.63397  0  2.318783  0
O  O107  1  0.07386864  0.73975634  0.42040764  1  -1.191883  0  -0.357074  -0.633599  0  2.318345  0
O  O108  1  0.26583971  0.92122096  0.23856653  1  -1.188116  0  -0.357289  -0.633354  0  2.316227  0
O  O109  1  0.92049126  0.26618777  0.57436551  1  -1.194483  0  -0.358401  -0.635938  0  2.315646  0
O  O110  1  0.79877870  0.06805285  0.56605524  1  -1.236028  0  -0.695787  -1.067394  0  2.351753  0
O  O111  1  0.06676989  0.06729064  0.56668031  1  -1.238683  0  -0.697198  -1.068677  0  2.356066  0
O  O112  1  0.06717884  0.06713642  0.29838874  1  -1.218021  0  -0.697741  -1.068215  0  2.364316  0
O  O113  1  0.06657698  0.79968078  0.56610006  1  -1.252515  0  -0.697816  -1.070064  0  2.366896  0
O  O114  1  0.14782672  0.95100845  0.45027104  1  -1.190744  0  -0.794383  -1.144109  0  2.137481  0
O  O115  1  0.95043919  0.95178790  0.44976087  1  -1.195246  0  -0.793472  -1.141165  0  2.132528  0
O  O116  1  0.95062600  0.14829084  0.45022893  1  -1.186889  0  -0.795207  -1.141917  0  2.150343  0
O  O117  1  0.95024009  0.95127532  0.64732476  1  -1.187693  0  -0.79523  -1.143091  0  2.148368  0
O  O118  1  0.15976565  0.41772247  0.33092487  1  -1.115971  0  -0.342695  -0.400329  0  2.323687  0
O  O119  1  0.83791602  0.58559509  0.66743001  1  -1.129539  0  -0.343184  -0.401384  0  2.300702  0
O  O120  1  0.16135993  0.59123771  0.33138555  1  -1.115241  0  -0.340675  -0.387591  0  2.292199  0
O  O121  1  0.83523551  0.41239879  0.66611576  1  -1.128283  0  -0.343059  -0.390679  0  2.29184  0
O  O122  1  0.41300510  0.16481665  0.08699513  1  -1.107229  0  -0.342634  -0.400248  0  2.320294  0
O  O123  1  0.59553231  0.82818348  0.91918658  1  -1.10297  0  -0.342394  -0.403082  0  2.299325  0
O  O124  1  0.58850614  0.16443799  0.91323157  1  -1.106879  0  -0.340614  -0.387458  0  2.291988  0
O  O125  1  0.41805923  0.82989461  0.09209358  1  -1.114675  0  -0.34352  -0.391856  0  2.291521  0
O  O126  1  0.83625134  0.16673757  0.91104104  1  -1.123425  0  -0.343136  -0.391567  0  2.290659  0
O  O127  1  0.15952285  0.83037271  0.09166237  1  -1.123079  0  -0.340139  -0.38771  0  2.292106  0
O  O128  1  0.83829952  0.16773926  0.08456671  1  -1.113622  0  -0.342593  -0.400215  0  2.301717  0
O  O129  1  0.15739417  0.82916082  0.91856140  1  -1.106318  0  -0.342199  -0.392908  0  2.283511  0
O  O130  1  0.41846863  0.59311000  0.32884900  1  -1.107771  0  -0.342921  -0.390805  0  2.291665  0
O  O131  1  0.58626068  0.41288658  0.66495696  1  -1.115256  0  -0.339933  -0.387001  0  2.291797  0
O  O132  1  0.59568352  0.42014791  0.32732532  1  -1.110342  0  -0.3419  -0.400148  0  2.305599  0
O  O133  1  0.41027322  0.58635909  0.66570635  1  -1.121002  0  -0.341526  -0.391937  0  2.285086  0
O  O134  1  0.41482019  0.83335001  0.66230694  1  -1.103453  0  -0.341229  -0.390121  0  2.289595  0
O  O135  1  0.58963310  0.16382586  0.33146460  1  -1.12842  0  -0.341435  -0.390479  0  2.290036  0
O  O136  1  0.58955555  0.83359726  0.66187136  1  -1.10803  0  -0.341823  -0.390618  0  2.2889  0
O  O137  1  0.41491251  0.16357321  0.33189904  1  -1.11975  0  -0.34046  -0.387545  0  2.289632  0
