# generated using pymatgen
data_CdH18C28(NO)4
_symmetry_space_group_name_H-M   'P 1'
_cell_length_a   9.61939326
_cell_length_b   12.08432848
_cell_length_c   12.54141383
_cell_angle_alpha   65.42668170
_cell_angle_beta   79.32031119
_cell_angle_gamma   82.22099484
_symmetry_Int_Tables_number   1
_chemical_formula_structural   CdH18C28(NO)4
_chemical_formula_sum   'Cd2 H36 C56 N8 O8'
_cell_volume   1300.08492520
_cell_formula_units_Z   2
loop_
 _symmetry_equiv_pos_site_id
 _symmetry_equiv_pos_as_xyz
  1  'x, y, z'
loop_
 _atom_site_type_symbol
 _atom_site_label
 _atom_site_symmetry_multiplicity
 _atom_site_fract_x
 _atom_site_fract_y
 _atom_site_fract_z
 _atom_site_occupancy
 _atom_site_hle17_bader_spin_density
 _atom_site_hle17_ddec_charge
 _atom_site_hle17_ddec_spin_density
 _atom_site_hle17_ddec_sum_bond_order
 _atom_site_hle17_magmom
 _atom_site_hse06_10hf_bader_spin_density
 _atom_site_hse06_10hf_ddec_charge
 _atom_site_hse06_10hf_ddec_spin_density
 _atom_site_hse06_10hf_ddec_sum_bond_order
 _atom_site_hse06_10hf_magmom
 _atom_site_hse06_bader_spin_density
 _atom_site_hse06_ddec_charge
 _atom_site_hse06_ddec_spin_density
 _atom_site_hse06_ddec_sum_bond_order
 _atom_site_hse06_magmom
 _atom_site_pbe_bader_spin_density
 _atom_site_pbe_cm5_charge
 _atom_site_pbe_ddec_charge
 _atom_site_pbe_ddec_spin_density
 _atom_site_pbe_ddec_sum_bond_order
 _atom_site_pbe_magmom
Cd  Cd0  1  0.07645169  0.12181007  0.32070406  1  0  1.139139  0  1.653951  0  0  0.94974  0  2.103899  0  0  1.00805  0  2.051716  0  0  0.770063  0.908704  0  2.139281  0
Cd  Cd1  1  0.92356478  0.87818779  0.67930141  1  0  1.139242  0  1.653914  0  0  0.949872  0  2.10389  0  0  1.00818  0  2.051693  0  0  0.770102  0.908837  0  2.139273  0
H  H2  1  0.29025765  0.35564326  0.00943817  1  0  0.118741  0  0.956714  0  0  0.126464  0  1.021269  0  0  0.129978  0  1.019494  0  0  0.105922  0.123963  0  1.022669  0
H  H3  1  0.70974764  0.64435935  0.99055929  1  0  0.118728  0  0.95671  0  0  0.12648  0  1.021233  0  0  0.129998  0  1.01945  0  0  0.10593  0.123977  0  1.022631  0
H  H4  1  0.38690244  0.47657923  0.09492919  1  0  0.08402  0  0.987713  0  0  0.095426  0  1.049174  0  0  0.097288  0  1.049848  0  0  0.096102  0.093756  0  1.049574  0
H  H5  1  0.61309065  0.52342969  0.90506700  1  0  0.084027  0  0.987747  0  0  0.095455  0  1.049196  0  0  0.097309  0  1.04988  0  0  0.096069  0.093784  0  1.049596  0
H  H6  1  0.99751704  0.16690779  0.57669831  1  0  0.122646  0  0.928755  0  0  0.132682  0  0.988768  0  0  0.135692  0  0.98436  0  0  0.145125  0.130371  0  0.992152  0
H  H7  1  0.00248382  0.83307612  0.42331964  1  0  0.122791  0  0.928515  0  0  0.132792  0  0.988534  0  0  0.135809  0  0.98413  0  0  0.145125  0.130483  0  0.991916  0
H  H8  1  0.15162804  0.45547413  0.62795988  1  0  0.118167  0  0.940796  0  0  0.129352  0  0.999909  0  0  0.132949  0  0.997585  0  0  0.11236  0.126628  0  1.001963  0
H  H9  1  0.84838129  0.54451765  0.37203863  1  0  0.118161  0  0.940783  0  0  0.129292  0  0.999981  0  0  0.132885  0  0.997654  0  0  0.112347  0.126562  0  1.002036  0
H  H10  1  0.64117452  0.00001592  0.31279315  1  0  0.093019  0  0.954112  0  0  0.102135  0  1.018907  0  0  0.10552  0  1.016874  0  0  0.099688  0.099476  0  1.020725  0
H  H11  1  0.35883758  0.99997508  0.68722915  1  0  0.09306  0  0.95398  0  0  0.102189  0  1.018764  0  0  0.105587  0  1.01672  0  0  0.099744  0.099531  0  1.020577  0
H  H12  1  0.95257040  0.57813750  0.70740855  1  0  0.093068  0  0.940627  0  0  0.101699  0  1.00392  0  0  0.103986  0  1.001248  0  0  0.135826  0.100035  0  1.005933  0
H  H13  1  0.04742915  0.42185616  0.29258679  1  0  0.093102  0  0.940494  0  0  0.101726  0  1.003813  0  0  0.104015  0  1.001141  0  0  0.135844  0.100063  0  1.005824  0
H  H14  1  0.61148026  0.05637279  0.63267330  1  0  0.09996  0  0.953165  0  0  0.109876  0  1.012772  0  0  0.113072  0  1.010944  0  0  0.102235  0.1072  0  1.014729  0
H  H15  1  0.38853163  0.94362874  0.36732992  1  0  0.10004  0  0.953111  0  0  0.109968  0  1.012695  0  0  0.113162  0  1.01087  0  0  0.102282  0.107294  0  1.01465  0
H  H16  1  0.52213015  0.14854883  0.08484770  1  0  0.097009  0  0.959414  0  0  0.105543  0  1.023686  0  0  0.109168  0  1.021404  0  0  0.101186  0.103056  0  1.025195  0
H  H17  1  0.47785338  0.85148637  0.91514330  1  0  0.096964  0  0.959469  0  0  0.105528  0  1.023706  0  0  0.109151  0  1.021424  0  0  0.101141  0.10304  0  1.025215  0
H  H18  1  0.12520207  0.06578484  0.77683802  1  0  0.128758  0  0.943388  0  0  0.137406  0  1.00612  0  0  0.141088  0  1.003439  0  0  0.114282  0.134631  0  1.008297  0
H  H19  1  0.87480389  0.93421206  0.22316866  1  0  0.128816  0  0.943364  0  0  0.137385  0  1.006181  0  0  0.141067  0  1.003502  0  0  0.114285  0.13461  0  1.008359  0
H  H20  1  0.16149756  0.80765902  0.88338188  1  0  0.117538  0  0.937598  0  0  0.131886  0  0.989941  0  0  0.134878  0  0.98822  0  0  0.11103  0.12964  0  0.991463  0
H  H21  1  0.83849394  0.19234273  0.11661327  1  0  0.117353  0  0.937619  0  0  0.131721  0  0.98996  0  0  0.134729  0  0.988217  0  0  0.11096  0.129473  0  0.991485  0
H  H22  1  0.09131416  0.06420338  0.98159456  1  0  0.09941  0  0.96068  0  0  0.109512  0  1.020474  0  0  0.111837  0  1.019984  0  0  0.107155  0.107691  0  1.021186  0
H  H23  1  0.90867858  0.93579817  0.01840686  1  0  0.09934  0  0.960685  0  0  0.10944  0  1.02049  0  0  0.111781  0  1.019984  0  0  0.107139  0.107624  0  1.021183  0
H  H24  1  0.08507519  0.25638471  0.00743317  1  0  0.113427  0  0.960462  0  0  0.122474  0  1.025125  0  0  0.125145  0  1.024168  0  0  0.110215  0.120538  0  1.025922  0
H  H25  1  0.91491814  0.74361121  0.99257506  1  0  0.113492  0  0.960442  0  0  0.122485  0  1.025143  0  0  0.125155  0  1.024183  0  0  0.110192  0.120549  0  1.025938  0
H  H26  1  0.41956915  0.38197397  0.57077475  1  0  0.102299  0  0.962047  0  0  0.112186  0  1.023382  0  0  0.115175  0  1.022387  0  0  0.102098  0.110225  0  1.02389  0
H  H27  1  0.58044855  0.61801961  0.42922417  1  0  0.102409  0  0.962141  0  0  0.112334  0  1.023421  0  0  0.115259  0  1.022497  0  0  0.102133  0.110374  0  1.023933  0
H  H28  1  0.27390539  0.89881489  0.05098618  1  0  0.094863  0  0.952725  0  0  0.104239  0  1.015105  0  0  0.107915  0  1.012658  0  0  0.100969  0.101451  0  1.017204  0
H  H29  1  0.72606596  0.10120114  0.94901153  1  0  0.094793  0  0.952929  0  0  0.104154  0  1.015335  0  0  0.107846  0  1.012884  0  0  0.100902  0.101366  0  1.017435  0
H  H30  1  0.38588921  0.26698334  0.23305753  1  0  0.126479  0  0.957286  0  0  0.137349  0  1.015088  0  0  0.140987  0  1.012568  0  0  0.109311  0.134813  0  1.016711  0
H  H31  1  0.61409218  0.73301369  0.76694337  1  0  0.126579  0  0.957071  0  0  0.137427  0  1.014914  0  0  0.141064  0  1.012402  0  0  0.109337  0.134889  0  1.016539  0
H  H32  1  0.32517561  0.69613263  0.03520674  1  0  0.089216  0  0.958267  0  0  0.10358  0  1.013223  0  0  0.105852  0  1.012903  0  0  0.100509  0.101977  0  1.013368  0
H  H33  1  0.67480812  0.30387360  0.96478874  1  0  0.089307  0  0.958309  0  0  0.103695  0  1.01323  0  0  0.105962  0  1.012909  0  0  0.100553  0.102093  0  1.013375  0
H  H34  1  0.59353576  0.37368181  0.23022158  1  0  0.081099  0  1.000065  0  0  0.088972  0  1.067031  0  0  0.090267  0  1.069247  0  0  0.092115  0.088086  0  1.065428  0
H  H35  1  0.40644332  0.62632653  0.76976426  1  0  0.081256  0  0.999958  0  0  0.089041  0  1.066997  0  0  0.090337  0  1.069213  0  0  0.092139  0.088155  0  1.065393  0
H  H36  1  0.60968292  0.42914987  0.39611409  1  0  0.080449  0  0.957936  0  0  0.092544  0  1.016326  0  0  0.095146  0  1.015195  0  0  0.094085  0.090274  0  1.018085  0
H  H37  1  0.39033311  0.57085963  0.60386633  1  0  0.080426  0  0.958159  0  0  0.09254  0  1.016513  0  0  0.095137  0  1.015394  0  0  0.094057  0.09027  0  1.018274  0
C  C38  1  0.16864034  0.51605825  0.89965024  1  0  0.107955  0  3.754817  0  0  0.094937  0  4.003455  0  0  0.099483  0  4.024541  0  0  0.091274  0.091837  0  3.988924  0
C  C39  1  0.83136172  0.48394358  0.10034323  1  0  0.108029  0  3.754858  0  0  0.095077  0  4.003392  0  0  0.099625  0  4.024474  0  0  0.091328  0.091974  0  3.988863  0
C  C40  1  0.26159545  0.45298197  0.98199847  1  0  -0.149366  0  3.743165  0  0  -0.1697  0  4.000783  0  0  -0.172901  0  4.019598  0  0  -0.096359  -0.167758  0  3.988917  0
C  C41  1  0.73840028  0.54702062  0.01799889  1  0  -0.149376  0  3.743003  0  0  -0.169722  0  4.000578  0  0  -0.172928  0  4.019397  0  0  -0.096383  -0.167773  0  3.988708  0
C  C42  1  0.31491884  0.52144113  0.02967983  1  0  -0.069289  0  3.789584  0  0  -0.083701  0  4.041534  0  0  -0.085133  0  4.064  0  0  -0.096808  -0.083543  0  4.028151  0
C  C43  1  0.68507425  0.47856699  0.97031347  1  0  -0.069197  0  3.789429  0  0  -0.083669  0  4.041425  0  0  -0.085094  0  4.063892  0  0  -0.096766  -0.083511  0  4.028041  0
C  C44  1  0.64071778  0.03175012  0.46951008  1  0  -0.057807  0  3.753536  0  0  -0.034824  0  3.985241  0  0  -0.0421  0  4.008556  0  0  -0.01866  -0.030602  0  3.970031  0
C  C45  1  0.35929490  0.96824310  0.53049933  1  0  -0.057576  0  3.753182  0  0  -0.034625  0  3.984911  0  0  -0.041892  0  4.008215  0  0  -0.018621  -0.030442  0  3.969748  0
C  C46  1  0.79312062  0.05975100  0.43959616  1  0  0.635619  0  3.934009  0  0  0.584053  0  4.224484  0  0  0.619135  0  4.218221  0  0  0.195176  0.561051  0  4.226942  0
C  C47  1  0.20688524  0.94024684  0.56040939  1  0  0.635352  0  3.934137  0  0  0.583827  0  4.224579  0  0  0.61891  0  4.218319  0  0  0.195089  0.560836  0  4.227031  0
C  C48  1  0.09671777  0.20837405  0.53048448  1  0  0.223034  0  3.628712  0  0  0.155879  0  3.903251  0  0  0.174839  0  3.911261  0  0  0.16587  0.143298  0  3.897846  0
C  C49  1  0.90328499  0.79161257  0.46953295  1  0  0.223133  0  3.628581  0  0  0.156032  0  3.903032  0  0  0.174984  0  3.911052  0  0  0.165979  0.14345  0  3.897633  0
C  C50  1  0.28322031  0.27280254  0.39932343  1  0  0.143211  0  3.825209  0  0  0.139246  0  4.07412  0  0  0.142133  0  4.099127  0  0  0.0844  0.137368  0  4.056966  0
C  C51  1  0.71677968  0.72718650  0.60067518  1  0  0.143325  0  3.82495  0  0  0.139485  0  4.073702  0  0  0.142375  0  4.098712  0  0  0.084458  0.137607  0  4.05655  0
C  C52  1  0.11349338  0.36777369  0.81966020  1  0  0.200015  0  3.8023  0  0  0.195891  0  4.046865  0  0  0.201395  0  4.069762  0  0  0.096544  0.192209  0  4.031198  0
C  C53  1  0.88650410  0.63222153  0.18034205  1  0  0.200189  0  3.802192  0  0  0.195988  0  4.046781  0  0  0.201481  0  4.069692  0  0  0.096593  0.192321  0  4.031094  0
C  C54  1  0.14281217  0.26020748  0.69219383  1  0  0.201341  0  3.79819  0  0  0.198124  0  4.042772  0  0  0.203265  0  4.066002  0  0  0.097114  0.19459  0  4.02696  0
C  C55  1  0.85719671  0.73977866  0.30781166  1  0  0.201479  0  3.797945  0  0  0.198082  0  4.042677  0  0  0.203219  0  4.065912  0  0  0.097076  0.19455  0  4.026863  0
C  C56  1  0.26394791  0.05703160  0.15460568  1  0  0.614836  0  3.958704  0  0  0.56855  0  4.249592  0  0  0.602498  0  4.243617  0  0  0.187073  0.545597  0  4.252623  0
C  C57  1  0.73602951  0.94298026  0.84540941  1  0  0.61513  0  3.958713  0  0  0.568798  0  4.24961  0  0  0.602742  0  4.243628  0  0  0.187188  0.545851  0  4.252638  0
C  C58  1  0.13715376  0.36982305  0.70554136  1  0  -0.239512  0  3.727644  0  0  -0.269573  0  3.979218  0  0  -0.274237  0  3.997717  0  0  -0.092437  -0.266289  0  3.966528  0
C  C59  1  0.86285163  0.63016590  0.29446042  1  0  -0.239529  0  3.727675  0  0  -0.269485  0  3.979355  0  0  -0.274137  0  3.99785  0  0  -0.092426  -0.266197  0  3.966649  0
C  C60  1  0.57830089  0.99981061  0.39457662  1  0  -0.065635  0  3.723465  0  0  -0.090995  0  3.976958  0  0  -0.091379  0  3.996713  0  0  -0.085729  -0.090877  0  3.964125  0
C  C61  1  0.42171260  0.00018618  0.60543371  1  0  -0.065817  0  3.723315  0  0  -0.091171  0  3.976813  0  0  -0.091571  0  3.996562  0  0  -0.085817  -0.091043  0  3.963988  0
C  C62  1  0.02056483  0.58189697  0.76570056  1  0  0.211419  0  3.671659  0  0  0.147748  0  3.946579  0  0  0.164969  0  3.956969  0  0  0.158437  0.136422  0  3.939679  0
C  C63  1  0.97943525  0.41810388  0.23429518  1  0  0.211309  0  3.671865  0  0  0.147594  0  3.946769  0  0  0.164815  0  3.957152  0  0  0.158316  0.13627  0  3.93987  0
C  C64  1  0.56143586  0.03208871  0.57503398  1  0  -0.064261  0  3.724496  0  0  -0.086904  0  3.974458  0  0  -0.087699  0  3.994935  0  0  -0.082895  -0.086281  0  3.961307  0
C  C65  1  0.43857617  0.96791102  0.42496909  1  0  -0.064488  0  3.724341  0  0  -0.087135  0  3.974333  0  0  -0.087933  0  3.994806  0  0  -0.082945  -0.086501  0  3.961195  0
C  C66  1  0.12940852  0.64229354  0.86631349  1  0  0.141591  0  3.819727  0  0  0.139399  0  4.071081  0  0  0.142688  0  4.093461  0  0  0.085342  0.137465  0  4.055496  0
C  C67  1  0.87058831  0.35770819  0.13368242  1  0  0.141459  0  3.81985  0  0  0.139148  0  4.071339  0  0  0.142434  0  4.093725  0  0  0.085237  0.137215  0  4.055754  0
C  C68  1  0.51358369  0.08393012  0.04672296  1  0  -0.082434  0  3.744396  0  0  -0.103782  0  3.990226  0  0  -0.104843  0  4.01063  0  0  -0.089828  -0.102869  0  3.976049  0
C  C69  1  0.48641542  0.91609443  0.95326401  1  0  -0.082267  0  3.744468  0  0  -0.103654  0  3.990289  0  0  -0.10471  0  4.010682  0  0  -0.089744  -0.102737  0  3.976112  0
C  C70  1  0.12337391  0.14955772  0.79027533  1  0  -0.126939  0  3.681852  0  0  -0.15109  0  3.929763  0  0  -0.154012  0  3.949092  0  0  -0.077205  -0.149103  0  3.916906  0
C  C71  1  0.87663444  0.85043641  0.20973362  1  0  -0.127135  0  3.681574  0  0  -0.151167  0  3.929526  0  0  -0.154095  0  3.948871  0  0  -0.077269  -0.149183  0  3.91667  0
C  C72  1  0.29366270  0.30452716  0.49410749  1  0  0.100936  0  3.778729  0  0  0.091377  0  4.023923  0  0  0.094957  0  4.046909  0  0  0.089254  0.089024  0  4.008214  0
C  C73  1  0.70634190  0.69545656  0.50588920  1  0  0.100869  0  3.778661  0  0  0.091202  0  4.023907  0  0  0.094783  0  4.046875  0  0  0.089148  0.088848  0  4.008197  0
C  C74  1  0.18701261  0.70982835  0.91308782  1  0  -0.12792  0  3.740823  0  0  -0.148627  0  3.993579  0  0  -0.150267  0  4.012675  0  0  -0.087974  -0.147567  0  3.980342  0
C  C75  1  0.81297763  0.29017691  0.08691020  1  0  -0.12748  0  3.740694  0  0  -0.14817  0  3.993464  0  0  -0.149821  0  4.012559  0  0  -0.087796  -0.147109  0  3.980222  0
C  C76  1  0.10344782  0.14937722  0.90338090  1  0  -0.030969  0  3.750402  0  0  -0.041384  0  3.996944  0  0  -0.043161  0  4.019685  0  0  -0.078147  -0.040219  0  3.981869  0
C  C77  1  0.89655488  0.85061976  0.09662307  1  0  -0.030818  0  3.750153  0  0  -0.041221  0  3.996626  0  0  -0.043008  0  4.019355  0  0  -0.078085  -0.040055  0  3.981556  0
C  C78  1  0.38587641  0.02716027  0.07499067  1  0  -0.048026  0  3.7491  0  0  -0.024169  0  3.976051  0  0  -0.030891  0  3.999352  0  0  -0.01633  -0.019661  0  3.960029  0
C  C79  1  0.61411222  0.97285136  0.92500520  1  0  -0.048192  0  3.749393  0  0  -0.024271  0  3.976273  0  0  -0.030994  0  3.999578  0  0  -0.016398  -0.019766  0  3.960251  0
C  C80  1  0.10041039  0.25742303  0.91897820  1  0  -0.14133  0  3.71931  0  0  -0.16611  0  3.970356  0  0  -0.169736  0  3.992028  0  0  -0.083993  -0.163649  0  3.955834  0
C  C81  1  0.89958491  0.74257390  0.08102695  1  0  -0.141469  0  3.719307  0  0  -0.166182  0  3.970367  0  0  -0.169802  0  3.992044  0  0  -0.083991  -0.163726  0  3.955843  0
C  C82  1  0.41011230  0.36086357  0.49609782  1  0  -0.159303  0  3.787816  0  0  -0.178197  0  4.040551  0  0  -0.182048  0  4.061821  0  0  -0.10192  -0.175594  0  4.025769  0
C  C83  1  0.58989292  0.63912477  0.50389544  1  0  -0.159377  0  3.787912  0  0  -0.178286  0  4.040649  0  0  -0.182082  0  4.06194  0  0  -0.101933  -0.175684  0  4.025867  0
C  C84  1  0.37349992  0.94268645  0.02784776  1  0  -0.081755  0  3.75777  0  0  -0.103483  0  4.005134  0  0  -0.104792  0  4.025972  0  0  -0.087807  -0.102346  0  3.990829  0
C  C85  1  0.62648913  0.05732923  0.97213455  1  0  -0.081629  0  3.758075  0  0  -0.103364  0  4.00537  0  0  -0.104691  0  4.026224  0  0  -0.087751  -0.102224  0  3.991065  0
C  C86  1  0.39164371  0.29665145  0.30302751  1  0  -0.130756  0  3.717153  0  0  -0.148071  0  3.964903  0  0  -0.150603  0  3.984537  0  0  -0.087517  -0.145936  0  3.950698  0
C  C87  1  0.60834827  0.70334237  0.69696257  1  0  -0.131019  0  3.717022  0  0  -0.148328  0  3.964727  0  0  -0.150864  0  3.984368  0  0  -0.087594  -0.146193  0  3.950519  0
C  C88  1  0.27917338  0.64724391  0.99562248  1  0  -0.086116  0  3.788307  0  0  -0.102118  0  4.040361  0  0  -0.105148  0  4.06311  0  0  -0.099817  -0.099235  0  4.024512  0
C  C89  1  0.72081783  0.35276145  0.00437215  1  0  -0.086445  0  3.788402  0  0  -0.102467  0  4.04052  0  0  -0.10549  0  4.063263  0  0  -0.099943  -0.099582  0  4.024671  0
C  C90  1  0.50711141  0.35431420  0.30376191  1  0  -0.074443  0  3.780572  0  0  -0.089687  0  4.032502  0  0  -0.092209  0  4.055615  0  0  -0.099103  -0.087536  0  4.015914  0
C  C91  1  0.49287467  0.64568603  0.69622428  1  0  -0.074486  0  3.780644  0  0  -0.089667  0  4.03257  0  0  -0.092191  0  4.055683  0  0  -0.09912  -0.087514  0  4.015978  0
C  C92  1  0.51614317  0.38589018  0.39836525  1  0  -0.06666  0  3.790722  0  0  -0.081092  0  4.042255  0  0  -0.082611  0  4.064363  0  0  -0.098492  -0.079791  0  4.027347  0
C  C93  1  0.48386298  0.61411187  0.60162191  1  0  -0.066591  0  3.791272  0  0  -0.081049  0  4.042813  0  0  -0.082561  0  4.064898  0  0  -0.098402  -0.079751  0  4.027904  0
N  N94  1  0.09902122  0.48079790  0.83149999  1  0  -0.158125  0  3.542641  0  0  -0.072229  0  3.757549  0  0  -0.089234  0  3.780715  0  0  -0.224635  -0.060816  0  3.741545  0
N  N95  1  0.90098314  0.51920210  0.16849460  1  0  -0.158242  0  3.542893  0  0  -0.072244  0  3.757657  0  0  -0.089248  0  3.780827  0  0  -0.224605  -0.060834  0  3.74165  0
N  N96  1  0.15833634  0.21426559  0.42482364  1  0  -0.440465  0  3.204327  0  0  -0.370881  0  3.488284  0  0  -0.394258  0  3.504486  0  0  -0.34935  -0.354935  0  3.476669  0
N  N97  1  0.84166476  0.78572749  0.57518923  1  0  -0.440628  0  3.204324  0  0  -0.371127  0  3.488259  0  0  -0.394487  0  3.504411  0  0  -0.349419  -0.355179  0  3.476638  0
N  N98  1  0.17288239  0.26152873  0.57636249  1  0  -0.157626  0  3.546738  0  0  -0.075705  0  3.768643  0  0  -0.092396  0  3.791002  0  0  -0.22718  -0.064461  0  3.753126  0
N  N99  1  0.82712676  0.73845462  0.42364560  1  0  -0.157868  0  3.546706  0  0  -0.075801  0  3.768534  0  0  -0.092493  0  3.790895  0  0  -0.227181  -0.064559  0  3.753022  0
N  N100  1  0.03501606  0.67920039  0.78416604  1  0  -0.419587  0  3.156948  0  0  -0.359954  0  3.440996  0  0  -0.380622  0  3.455769  0  0  -0.341442  -0.345798  0  3.430604  0
N  N101  1  0.96497653  0.32080215  0.21583263  1  0  -0.419485  0  3.156974  0  0  -0.359818  0  3.441036  0  0  -0.380487  0  3.455806  0  0  -0.34136  -0.345664  0  3.430642  0
O  O102  1  0.85718330  0.06570948  0.33826245  1  0  -0.639994  0  2.030332  0  0  -0.573311  0  2.288172  0  0  -0.603899  0  2.278298  0  0  -0.326157  -0.551399  0  2.293453  0
O  O103  1  0.14282815  0.93428639  0.66174855  1  0  -0.639861  0  2.030204  0  0  -0.573219  0  2.288078  0  0  -0.603803  0  2.278195  0  0  -0.326138  -0.55131  0  2.293352  0
O  O104  1  0.85437292  0.07338576  0.51475247  1  0  -0.671269  0  1.986218  0  0  -0.608202  0  2.232527  0  0  -0.635479  0  2.220499  0  0  -0.337758  -0.589497  0  2.240713  0
O  O105  1  0.14564342  0.92660036  0.48525426  1  0  -0.671231  0  1.986397  0  0  -0.608191  0  2.23271  0  0  -0.635461  0  2.220665  0  0  -0.337736  -0.589483  0  2.240885  0
O  O106  1  0.15296735  0.99896346  0.18779720  1  0  -0.631497  0  1.896423  0  0  -0.580407  0  2.123132  0  0  -0.605669  0  2.113587  0  0  -0.336008  -0.562519  0  2.129067  0
O  O107  1  0.84701723  0.00103193  0.81219903  1  0  -0.631658  0  1.896482  0  0  -0.580533  0  2.123193  0  0  -0.605819  0  2.113695  0  0  -0.336114  -0.562647  0  2.129127  0
O  O108  1  0.27891715  0.14304365  0.18634459  1  0  -0.658156  0  1.991641  0  0  -0.594026  0  2.244741  0  0  -0.623979  0  2.234963  0  0  -0.337129  -0.573056  0  2.250668  0
O  O109  1  0.72109217  0.85697768  0.81365876  1  0  -0.658325  0  1.991626  0  0  -0.59424  0  2.244857  0  0  -0.624187  0  2.235071  0  0  -0.337233  -0.573272  0  2.250783  0
