# generated using pymatgen
data_SmH24C33(NO3)3
_symmetry_space_group_name_H-M   'P 1'
_cell_length_a   10.32385361
_cell_length_b   11.67913407
_cell_length_c   13.85696072
_cell_angle_alpha   66.77337188
_cell_angle_beta   82.65698122
_cell_angle_gamma   76.94201821
_symmetry_Int_Tables_number   1
_chemical_formula_structural   SmH24C33(NO3)3
_chemical_formula_sum   'Sm2 H48 C66 N6 O18'
_cell_volume   1494.27058848
_cell_formula_units_Z   2
loop_
 _symmetry_equiv_pos_site_id
 _symmetry_equiv_pos_as_xyz
  1  'x, y, z'
loop_
 _atom_site_type_symbol
 _atom_site_label
 _atom_site_symmetry_multiplicity
 _atom_site_fract_x
 _atom_site_fract_y
 _atom_site_fract_z
 _atom_site_occupancy
 _atom_site_pbe_bader_spin_density
 _atom_site_pbe_cm5_charge
 _atom_site_pbe_ddec_charge
 _atom_site_pbe_ddec_spin_density
 _atom_site_pbe_ddec_sum_bond_order
 _atom_site_pbe_magmom
Sm  Sm0  1  0.61628573  0.26048026  0.29091172  1  0  1.508163  2.090775  0  2.295409  0
Sm  Sm1  1  0.38371162  0.73952051  0.70908701  1  0  1.50819  2.090823  0  2.295449  0
H  H2  1  0.29581511  0.30034144  0.94751653  1  0  0.101966  0.104945  0  1.056574  0
H  H3  1  0.70418916  0.69965917  0.05248734  1  0  0.101987  0.104948  0  1.056588  0
H  H4  1  0.23380301  0.17805129  0.85662992  1  0  0.100769  0.108472  0  1.049697  0
H  H5  1  0.76620263  0.82195220  0.14336927  1  0  0.100774  0.10848  0  1.049776  0
H  H6  1  0.01656065  0.10822454  0.89797683  1  0  0.103402  0.104194  0  0.997758  0
H  H7  1  0.98344454  0.89177613  0.10202188  1  0  0.103362  0.104157  0  0.997741  0
H  H8  1  0.85300751  0.17400492  0.02580714  1  0  0.105896  0.107679  0  1.0324  0
H  H9  1  0.14699878  0.82599004  0.97419476  1  0  0.10594  0.107764  0  1.032336  0
H  H10  1  0.84707060  0.44076013  0.21617912  1  0  0.11031  0.13041  0  1.038386  0
H  H11  1  0.15292983  0.55923486  0.78382480  1  0  0.110308  0.130392  0  1.038398  0
H  H12  1  0.07182977  0.49321551  0.17599897  1  0  0.118517  0.08952  0  1.034087  0
H  H13  1  0.92816949  0.50678047  0.82400329  1  0  0.118525  0.089535  0  1.034035  0
H  H14  1  0.26142677  0.49659498  0.09664761  1  0  0.122966  0.125945  0  0.972447  0
H  H15  1  0.73856775  0.50341535  0.90334397  1  0  0.122956  0.125968  0  0.972428  0
H  H16  1  0.30727465  0.44570761  0.99148469  1  0  0.124489  0.129146  0  0.987089  0
H  H17  1  0.69271768  0.55429892  0.00851051  1  0  0.124477  0.129171  0  0.987025  0
H  H18  1  0.37760834  0.00444035  0.14882043  1  0  0.110705  0.131254  0  1.029491  0
H  H19  1  0.62239392  0.99556034  0.85117928  1  0  0.110724  0.131272  0  1.029525  0
H  H20  1  0.32300979  0.99580478  0.98572672  1  0  0.101616  0.098598  0  1.032752  0
H  H21  1  0.67698562  0.00419599  0.01427365  1  0  0.101606  0.098602  0  1.032737  0
H  H22  1  0.37353042  0.79183538  0.95618760  1  0  0.112987  0.117916  0  1.017329  0
H  H23  1  0.62646067  0.20816254  0.04381701  1  0  0.112992  0.117952  0  1.017283  0
H  H24  1  0.48277826  0.59389024  0.09575800  1  0  0.112704  0.114403  0  1.015383  0
H  H25  1  0.51721442  0.40610956  0.90424584  1  0  0.112715  0.114385  0  1.015369  0
H  H26  1  0.61925019  0.49026048  0.44176156  1  0  0.109515  0.135531  0  1.018542  0
H  H27  1  0.38074674  0.50973741  0.55824031  1  0  0.10951  0.135517  0  1.018567  0
H  H28  1  0.56100186  0.69822454  0.46314058  1  0  0.13168  0.115392  0  1.008102  0
H  H29  1  0.43899783  0.30177428  0.53685999  1  0  0.131699  0.115416  0  1.008096  0
H  H30  1  0.46417775  0.89840433  0.41345391  1  0  0.124652  0.130871  0  1.000292  0
H  H31  1  0.53582745  0.10159633  0.58654552  1  0  0.124642  0.13087  0  1.000263  0
H  H32  1  0.41635774  0.99674094  0.28403128  1  0  0.122282  0.14147  0  1.01898  0
H  H33  1  0.58364336  0.00326072  0.71596824  1  0  0.122294  0.141487  0  1.018991  0
H  H34  1  0.83804102  0.45228398  0.42748928  1  0  0.106216  0.106891  0  1.043492  0
H  H35  1  0.16195652  0.54771581  0.57251120  1  0  0.106216  0.106866  0  1.04349  0
H  H36  1  0.88341094  0.66551526  0.32468016  1  0  0.108241  0.115945  0  1.001108  0
H  H37  1  0.11658772  0.33448365  0.67531544  1  0  0.108263  0.115949  0  1.001155  0
H  H38  1  0.11590472  0.69649127  0.26181236  1  0  0.1048  0.105876  0  0.999321  0
H  H39  1  0.88409331  0.30350575  0.73818391  1  0  0.104806  0.105927  0  0.999295  0
H  H40  1  0.30259842  0.50802480  0.30472979  1  0  0.108925  0.108003  0  1.026807  0
H  H41  1  0.69740243  0.49197305  0.69527171  1  0  0.108895  0.107994  0  1.026816  0
H  H42  1  0.32861863  0.05869541  0.48489502  1  0  0.121635  0.14622  0  0.999931  0
H  H43  1  0.67137651  0.94130159  0.51510516  1  0  0.12164  0.146258  0  0.99986  0
H  H44  1  0.09893193  0.04151048  0.55413916  1  0  0.132304  0.110817  0  0.999697  0
H  H45  1  0.90106310  0.95849220  0.44585918  1  0  0.132278  0.110758  0  0.999706  0
H  H46  1  0.84148229  0.28482826  0.56397725  1  0  0.116818  0.114849  0  1.001949  0
H  H47  1  0.15851330  0.71517157  0.43602269  1  0  0.116812  0.114881  0  1.001962  0
H  H48  1  0.89916503  0.12072877  0.59510807  1  0  0.135511  0.143184  0  0.932749  0
H  H49  1  0.10083074  0.87927010  0.40489216  1  0  0.13551  0.143203  0  0.932736  0
C  C50  1  0.10644154  0.31287007  0.03516593  1  0  0.114459  0.161552  0  3.964477  0
C  C51  1  0.89356187  0.68712484  0.96484132  1  0  0.114477  0.161547  0  3.964503  0
C  C52  1  0.19828450  0.27453518  0.96409253  1  0  -0.091734  -0.163538  0  3.963554  0
C  C53  1  0.80172072  0.72546544  0.03590979  1  0  -0.091708  -0.163404  0  3.963563  0
C  C54  1  0.16436348  0.20426187  0.91421038  1  0  -0.084346  -0.061865  0  3.99188  0
C  C55  1  0.83563980  0.79573876  0.08579286  1  0  -0.084346  -0.061892  0  3.991961  0
C  C56  1  0.04015018  0.16607877  0.93635335  1  0  -0.09304  -0.096456  0  4.019107  0
C  C57  1  0.95985598  0.83392189  0.06364527  1  0  -0.093044  -0.096462  0  4.019091  0
C  C58  1  0.94989209  0.20158384  0.00692284  1  0  -0.08312  -0.092375  0  3.974194  0
C  C59  1  0.05011404  0.79841205  0.99308022  1  0  -0.083119  -0.092385  0  3.974227  0
C  C60  1  0.98001685  0.27684302  0.05639516  1  0  -0.015419  -0.082459  0  3.944986  0
C  C61  1  0.01998984  0.72314999  0.94361094  1  0  -0.015433  -0.08261  0  3.945004  0
C  C62  1  0.88202413  0.31911414  0.12656544  1  0  0.126914  0.397242  0  4.102407  0
C  C63  1  0.11797745  0.68087991  0.87343722  1  0  0.126887  0.397287  0  4.102339  0
C  C64  1  0.91822893  0.40092844  0.16731707  1  0  -0.111657  -0.293108  0  4.009188  0
C  C65  1  0.08177597  0.59906365  0.83268879  1  0  -0.111711  -0.293113  0  4.009246  0
C  C66  1  0.04212621  0.43138764  0.14470069  1  0  0.05168  0.065166  0  3.944937  0
C  C67  1  0.95787619  0.56860733  0.85530376  1  0  0.051767  0.065242  0  3.945015  0
C  C68  1  0.26831104  0.41594419  0.07331637  1  0  -0.053085  -0.22507  0  3.851953  0
C  C69  1  0.73168934  0.58406126  0.92668198  1  0  -0.053073  -0.225068  0  3.851893  0
C  C70  1  0.36630937  0.30144590  0.14403627  1  0  0.208225  0.625182  0  4.222522  0
C  C71  1  0.63369626  0.69856797  0.85596243  1  0  0.208231  0.625081  0  4.222718  0
C  C72  1  0.46256845  0.80183640  0.21823480  1  0  0.113177  0.157182  0  3.949826  0
C  C73  1  0.53742733  0.19816246  0.78176688  1  0  0.113153  0.157196  0  3.949774  0
C  C74  1  0.40101302  0.91388009  0.13883939  1  0  -0.090355  -0.177079  0  3.944924  0
C  C75  1  0.59898649  0.08611967  0.86116162  1  0  -0.090426  -0.177169  0  3.944874  0
C  C76  1  0.37024551  0.90872522  0.04635015  1  0  -0.07812  -0.042034  0  3.984871  0
C  C77  1  0.62974990  0.09127553  0.95365095  1  0  -0.07806  -0.041981  0  3.984832  0
C  C78  1  0.39839676  0.79433095  0.02932946  1  0  -0.086946  -0.088448  0  3.982956  0
C  C79  1  0.60160124  0.20567166  0.97067149  1  0  -0.086995  -0.088551  0  3.982963  0
C  C80  1  0.45963697  0.68434608  0.10611607  1  0  -0.081363  -0.095603  0  3.968012  0
C  C81  1  0.54036316  0.31565558  0.89388354  1  0  -0.081324  -0.095506  0  3.967993  0
C  C82  1  0.49415712  0.68610985  0.20080994  1  0  -0.017278  -0.092515  0  3.967601  0
C  C83  1  0.50584080  0.31388803  0.79919184  1  0  -0.017309  -0.092567  0  3.967626  0
C  C84  1  0.56365555  0.57114084  0.27907907  1  0  0.124475  0.397074  0  4.130899  0
C  C85  1  0.43634067  0.42886084  0.72092236  1  0  0.124505  0.397145  0  4.130842  0
C  C86  1  0.57901414  0.57640857  0.37706360  1  0  -0.113133  -0.300661  0  3.989817  0
C  C87  1  0.42098670  0.42358930  0.62293644  1  0  -0.113123  -0.300628  0  3.989817  0
C  C88  1  0.54577692  0.69048877  0.38984870  1  0  0.059825  0.081764  0  3.922261  0
C  C89  1  0.45422294  0.30950911  0.61015217  1  0  0.059689  0.081638  0  3.922364  0
C  C90  1  0.49078278  0.91675991  0.33019855  1  0  -0.059704  -0.258527  0  3.853194  0
C  C91  1  0.50921830  0.08324176  0.66979952  1  0  -0.059675  -0.258511  0  3.853237  0
C  C92  1  0.62793862  0.95572367  0.30371358  1  0  0.21855  0.660752  0  4.180777  0
C  C93  1  0.37206307  0.04427991  0.69628236  1  0  0.218629  0.660879  0  4.180693  0
C  C94  1  0.04496368  0.35660571  0.42701599  1  0  0.115943  0.157804  0  3.94789  0
C  C95  1  0.95503851  0.64339023  0.57298599  1  0  0.116007  0.157838  0  3.94775  0
C  C96  1  0.94007734  0.46339206  0.40201366  1  0  -0.088752  -0.1693  0  3.9659  0
C  C97  1  0.05992305  0.53660298  0.59798662  1  0  -0.088763  -0.169256  0  3.965816  0
C  C98  1  0.96569378  0.58391401  0.34377779  1  0  -0.077233  -0.047704  0  3.965566  0
C  C99  1  0.03430367  0.41608107  0.65622206  1  0  -0.077295  -0.047746  0  3.965663  0
C  C100  1  0.09682818  0.60154908  0.30892988  1  0  -0.092685  -0.104409  0  4.025766  0
C  C101  1  0.90316720  0.39845173  0.69106687  1  0  -0.09268  -0.104486  0  4.025759  0
C  C102  1  0.20051306  0.49755869  0.33208378  1  0  -0.081737  -0.093556  0  3.976085  0
C  C103  1  0.79948562  0.50244019  0.66791400  1  0  -0.081709  -0.09353  0  3.976184  0
C  C104  1  0.17710072  0.37359864  0.39004031  1  0  -0.014022  -0.087078  0  3.945994  0
C  C105  1  0.82289897  0.62640017  0.60996099  1  0  -0.014065  -0.087191  0  3.945985  0
C  C106  1  0.28650765  0.26440260  0.41012683  1  0  0.132621  0.405129  0  4.101959  0
C  C107  1  0.71348847  0.73559438  0.58987326  1  0  0.132681  0.405326  0  4.101775  0
C  C108  1  0.25176072  0.14388981  0.46622867  1  0  -0.100123  -0.264977  0  3.947145  0
C  C109  1  0.74823249  0.85610717  0.53377386  1  0  -0.100093  -0.264985  0  3.946921  0
C  C110  1  0.12394802  0.13353743  0.50489443  1  0  0.065881  0.078535  0  3.897644  0
C  C111  1  0.87604952  0.86646238  0.49510532  1  0  0.065897  0.078537  0  3.897419  0
C  C112  1  0.88900443  0.21416216  0.53035411  1  0  -0.047499  -0.210022  0  3.853801  0
C  C113  1  0.11099019  0.78583765  0.46964737  1  0  -0.047455  -0.210039  0  3.853848  0
C  C114  1  0.79770111  0.21501427  0.45061170  1  0  0.188319  0.584604  0  4.255129  0
C  C115  1  0.20229547  0.78498552  0.54938959  1  0  0.188246  0.584442  0  4.255347  0
N  N116  1  0.13507061  0.38923717  0.08187907  1  0  -0.234865  0.022743  0  3.75987  0
N  N117  1  0.86493319  0.61076063  0.91812360  1  0  -0.234948  0.022614  0  3.76007  0
N  N118  1  0.49273183  0.80055745  0.31365225  1  0  -0.231224  0.034281  0  3.747131  0
N  N119  1  0.50727079  0.19944134  0.68634805  1  0  -0.231128  0.034273  0  3.747141  0
N  N120  1  0.02231527  0.23503793  0.48754012  1  0  -0.228147  0.029677  0  3.724728  0
N  N121  1  0.97768149  0.76496092  0.51246146  1  0  -0.228165  0.02972  0  3.724758  0
O  O122  1  0.76840994  0.28580088  0.14695666  1  0  -0.407275  -0.613296  0  2.29859  0
O  O123  1  0.23159341  0.71419411  0.85304480  1  0  -0.40728  -0.613323  0  2.298515  0
O  O124  1  0.33416109  0.19561417  0.18637686  1  0  -0.316453  -0.551571  0  2.127988  0
O  O125  1  0.66585486  0.80439676  0.81362105  1  0  -0.316478  -0.551515  0  2.128016  0
O  O126  1  0.47637655  0.33104574  0.15155020  1  0  -0.441075  -0.709364  0  2.285434  0
O  O127  1  0.52362820  0.66897768  0.84844043  1  0  -0.441024  -0.709322  0  2.285618  0
O  O128  1  0.60852686  0.47126178  0.25837640  1  0  -0.428504  -0.650477  0  2.36711  0
O  O129  1  0.39147576  0.52873701  0.74162390  1  0  -0.428489  -0.650489  0  2.367247  0
O  O130  1  0.72327284  0.89375780  0.27007164  1  0  -0.320192  -0.549111  0  2.095707  0
O  O131  1  0.27673010  0.10623916  0.72992417  1  0  -0.320175  -0.549099  0  2.095828  0
O  O132  1  0.62910198  0.05481202  0.32313355  1  0  -0.474081  -0.758945  0  2.36417  0
O  O133  1  0.37089924  0.94518878  0.67685974  1  0  -0.474196  -0.759066  0  2.363994  0
O  O134  1  0.40634195  0.27882755  0.38118529  1  0  -0.401787  -0.638846  0  2.338764  0
O  O135  1  0.59365259  0.72116754  0.61881701  1  0  -0.401836  -0.638953  0  2.338666  0
O  O136  1  0.84801338  0.19066005  0.37098128  1  0  -0.356396  -0.617266  0  2.188756  0
O  O137  1  0.15198551  0.80933783  0.62901968  1  0  -0.356373  -0.617192  0  2.18894  0
O  O138  1  0.67279542  0.23944083  0.47030137  1  0  -0.375804  -0.651337  0  2.244784  0
O  O139  1  0.32720353  0.76056181  0.52969659  1  0  -0.37578  -0.651298  0  2.244764  0
