# generated using pymatgen
data_ZnH14C22SNO6
_symmetry_space_group_name_H-M   'P 1'
_cell_length_a   8.17591942
_cell_length_b   13.13484936
_cell_length_c   12.54627891
_cell_angle_alpha   84.48809826
_cell_angle_beta   77.01613602
_cell_angle_gamma   70.83821846
_symmetry_Int_Tables_number   1
_chemical_formula_structural   ZnH14C22SNO6
_chemical_formula_sum   'Zn2 H28 C44 S2 N2 O12'
_cell_volume   1239.78710731
_cell_formula_units_Z   2
loop_
 _symmetry_equiv_pos_site_id
 _symmetry_equiv_pos_as_xyz
  1  'x, y, z'
loop_
 _atom_site_type_symbol
 _atom_site_label
 _atom_site_symmetry_multiplicity
 _atom_site_fract_x
 _atom_site_fract_y
 _atom_site_fract_z
 _atom_site_occupancy
 _atom_site_hle17_bader_spin_density
 _atom_site_hle17_ddec_charge
 _atom_site_hle17_ddec_spin_density
 _atom_site_hle17_ddec_sum_bond_order
 _atom_site_hle17_magmom
 _atom_site_hse06_10hf_bader_spin_density
 _atom_site_hse06_10hf_ddec_charge
 _atom_site_hse06_10hf_ddec_spin_density
 _atom_site_hse06_10hf_ddec_sum_bond_order
 _atom_site_hse06_10hf_magmom
 _atom_site_hse06_bader_spin_density
 _atom_site_hse06_ddec_charge
 _atom_site_hse06_ddec_spin_density
 _atom_site_hse06_ddec_sum_bond_order
 _atom_site_hse06_magmom
 _atom_site_pbe_bader_spin_density
 _atom_site_pbe_cm5_charge
 _atom_site_pbe_ddec_charge
 _atom_site_pbe_ddec_spin_density
 _atom_site_pbe_ddec_sum_bond_order
 _atom_site_pbe_magmom
Zn  Zn0  1  0.67185833  0.47448786  0.42567355  1  0  1.039834  0  1.876026  0  0  0.868877  0  2.344778  0  0  0.921261  0  2.279733  0  0  0.677493  0.832384  0  2.389316  0
Zn  Zn1  1  0.32812942  0.52551696  0.57432032  1  0  1.039858  0  1.875869  0  0  0.86897  0  2.344514  0  0  0.921352  0  2.279477  0  0  0.677538  0.832482  0  2.389031  0
H  H2  1  0.12259986  0.37842849  0.06627729  1  0  0.111827  0  0.935969  0  0  0.124557  0  0.990726  0  0  0.127821  0  0.989981  0  0  0.112266  0.122211  0  0.991445  0
H  H3  1  0.87740880  0.62157038  0.93372331  1  0  0.111848  0  0.935937  0  0  0.124568  0  0.990717  0  0  0.127835  0  0.989971  0  0  0.112257  0.122228  0  0.991432  0
H  H4  1  0.86027360  0.37282657  0.20928168  1  0  0.096828  0  0.929175  0  0  0.10521  0  0.991245  0  0  0.108033  0  0.988516  0  0  0.124014  0.103077  0  0.993283  0
H  H5  1  0.13972590  0.62717490  0.79071220  1  0  0.09685  0  0.929113  0  0  0.105228  0  0.991185  0  0  0.108047  0  0.98846  0  0  0.124024  0.103101  0  0.99322  0
H  H6  1  0.19009783  0.60940544  0.26239028  1  0  0.10516  0  0.975144  0  0  0.115129  0  1.036907  0  0  0.117371  0  1.037464  0  0  0.108423  0.113519  0  1.036633  0
H  H7  1  0.80991796  0.39057796  0.73762904  1  0  0.105116  0  0.975178  0  0  0.115013  0  1.037039  0  0  0.117249  0  1.037604  0  0  0.108398  0.113405  0  1.036753  0
H  H8  1  0.02090900  0.20343834  0.34808176  1  0  0.111708  0  0.934261  0  0  0.120989  0  0.994874  0  0  0.12449  0  0.992766  0  0  0.111563  0.118467  0  0.996452  0
H  H9  1  0.97908040  0.79656566  0.65191193  1  0  0.111725  0  0.934142  0  0  0.120993  0  0.994761  0  0  0.124493  0  0.992654  0  0  0.11157  0.118469  0  0.996338  0
H  H10  1  0.95942225  0.01185465  0.32065183  1  0  0.111724  0  0.931242  0  0  0.123254  0  0.984784  0  0  0.126657  0  0.983288  0  0  0.113221  0.120821  0  0.985925  0
H  H11  1  0.04055837  0.98814001  0.67932670  1  0  0.111713  0  0.931383  0  0  0.123213  0  0.984956  0  0  0.126615  0  0.98346  0  0  0.113223  0.120774  0  0.986095  0
H  H12  1  0.47318530  0.90787574  0.10489074  1  0  0.122575  0  0.955203  0  0  0.130076  0  1.018739  0  0  0.133693  0  1.016376  0  0  0.109477  0.127471  0  1.020464  0
H  H13  1  0.52683012  0.09213095  0.89511993  1  0  0.122673  0  0.955105  0  0  0.130206  0  1.018597  0  0  0.133825  0  1.016232  0  0  0.109526  0.127601  0  1.020323  0
H  H14  1  0.03623720  0.83537367  0.42589542  1  0  0.105344  0  0.943957  0  0  0.115347  0  1.002782  0  0  0.118787  0  1.000865  0  0  0.107344  0.112854  0  1.004239  0
H  H15  1  0.96375830  0.16461748  0.57409456  1  0  0.105425  0  0.94399  0  0  0.115395  0  1.002844  0  0  0.118853  0  1.000904  0  0  0.107339  0.112903  0  1.0043  0
H  H16  1  0.50543183  0.14041404  0.10311883  1  0  0.116527  0  0.933818  0  0  0.127399  0  0.989093  0  0  0.130743  0  0.987422  0  0  0.113563  0.124997  0  0.990352  0
H  H17  1  0.49456112  0.85959552  0.89687372  1  0  0.1165  0  0.933818  0  0  0.127373  0  0.989098  0  0  0.130716  0  0.987426  0  0  0.113525  0.124967  0  0.990362  0
H  H18  1  0.47036046  0.52871814  0.19725012  1  0  0.10589  0  0.975205  0  0  0.113227  0  1.041922  0  0  0.115953  0  1.04125  0  0  0.102545  0.11127  0  1.042459  0
H  H19  1  0.52964279  0.47128159  0.80275208  1  0  0.105962  0  0.975154  0  0  0.113318  0  1.041826  0  0  0.116045  0  1.041153  0  0  0.102576  0.111355  0  1.042366  0
H  H20  1  0.73858351  0.53576256  0.06725303  1  0  0.086826  0  0.969108  0  0  0.097076  0  1.031985  0  0  0.09962  0  1.031271  0  0  0.099747  0.095257  0  1.032538  0
H  H21  1  0.26142515  0.46423390  0.93274942  1  0  0.08688  0  0.969097  0  0  0.097129  0  1.031967  0  0  0.099681  0  1.031244  0  0  0.099797  0.095309  0  1.032521  0
H  H22  1  0.92752623  0.59153479  0.39890542  1  0  0.091896  0  0.94746  0  0  0.100917  0  1.009238  0  0  0.103987  0  1.005816  0  0  0.121449  0.098561  0  1.011864  0
H  H23  1  0.07247757  0.40845371  0.60109942  1  0  0.091983  0  0.947385  0  0  0.100886  0  1.009282  0  0  0.103977  0  1.005833  0  0  0.121432  0.098532  0  1.011908  0
H  H24  1  0.12815130  0.31333662  0.44935997  1  0  0.105087  0  0.953077  0  0  0.112729  0  1.019107  0  0  0.116424  0  1.016111  0  0  0.105859  0.110006  0  1.021401  0
H  H25  1  0.87184350  0.68665758  0.55064737  1  0  0.10506  0  0.953217  0  0  0.112692  0  1.019258  0  0  0.116392  0  1.016262  0  0  0.105853  0.109972  0  1.021548  0
H  H26  1  0.61288658  0.25086329  0.20700920  1  0  0.1194  0  0.934317  0  0  0.129231  0  0.992196  0  0  0.133149  0  0.989401  0  0  0.111326  0.126413  0  0.994261  0
H  H27  1  0.38711498  0.74913727  0.79299240  1  0  0.119364  0  0.934415  0  0  0.129218  0  0.99227  0  0  0.133135  0  0.989476  0  0  0.111311  0.126401  0  0.99434  0
H  H28  1  0.54554406  0.73205506  0.20997470  1  0  0.11033  0  0.935734  0  0  0.120148  0  0.991959  0  0  0.124165  0  0.989311  0  0  0.109056  0.117252  0  0.993949  0
H  H29  1  0.45446754  0.26795725  0.79004002  1  0  0.11029  0  0.935647  0  0  0.120154  0  0.991836  0  0  0.124172  0  0.989185  0  0  0.109057  0.117255  0  0.993831  0
C  C30  1  0.43046824  0.36556088  0.39004203  1  0  0.661603  0  3.880681  0  0  0.609634  0  4.171544  0  0  0.645335  0  4.163631  0  0  0.217025  0.585472  0  4.176069  0
C  C31  1  0.56952673  0.63444224  0.60995322  1  0  0.661339  0  3.880401  0  0  0.609518  0  4.171086  0  0  0.645219  0  4.163174  0  0  0.217007  0.585359  0  4.175608  0
C  C32  1  0.34442909  0.49680058  0.07447448  1  0  0.043418  0  3.785389  0  0  0.059387  0  4.013379  0  0  0.057644  0  4.037728  0  0  -0.004777  0.060592  0  3.996695  0
C  C33  1  0.65557428  0.50319912  0.92553010  1  0  0.043644  0  3.785283  0  0  0.059594  0  4.013255  0  0  0.057851  0  4.0376  0  0  -0.004706  0.060795  0  3.996573  0
C  C34  1  0.08290386  0.42916984  0.13734010  1  0  -0.16337  0  3.710571  0  0  -0.183533  0  3.96346  0  0  -0.192455  0  3.985546  0  0  -0.079777  -0.177791  0  3.948616  0
C  C35  1  0.91709884  0.57083073  0.86265892  1  0  -0.163455  0  3.710598  0  0  -0.183655  0  3.963511  0  0  -0.192584  0  3.985594  0  0  -0.079777  -0.177919  0  3.948675  0
C  C36  1  0.93678515  0.42490536  0.21696541  1  0  0.130823  0  3.701133  0  0  0.09905  0  3.954817  0  0  0.106867  0  3.973053  0  0  0.050892  0.094102  0  3.94239  0
C  C37  1  0.06320958  0.57509611  0.78303484  1  0  0.130923  0  3.701055  0  0  0.099166  0  3.954738  0  0  0.106987  0  3.972974  0  0  0.050925  0.094208  0  3.942322  0
C  C38  1  0.12253790  0.55506652  0.24750324  1  0  -0.151345  0  3.699479  0  0  -0.168855  0  3.943454  0  0  -0.1774  0  3.96527  0  0  -0.07908  -0.163414  0  3.928891  0
C  C39  1  0.87746910  0.44492591  0.75250306  1  0  -0.151066  0  3.699324  0  0  -0.168524  0  3.943235  0  0  -0.177065  0  3.965062  0  0  -0.078965  -0.163082  0  3.928666  0
C  C40  1  0.15169068  0.21219827  0.31826989  1  0  -0.079762  0  3.760547  0  0  -0.102432  0  4.014814  0  0  -0.104276  0  4.036707  0  0  -0.084165  -0.101091  0  3.999853  0
C  C41  1  0.84830562  0.78779683  0.68172435  1  0  -0.079835  0  3.760558  0  0  -0.102503  0  4.014867  0  0  -0.104347  0  4.036759  0  0  -0.084213  -0.101162  0  3.9999  0
C  C42  1  0.34581831  0.67066222  0.38918588  1  0  0.648134  0  3.904498  0  0  0.596468  0  4.199389  0  0  0.631852  0  4.191207  0  0  0.210225  0.572506  0  4.204138  0
C  C43  1  0.65417217  0.32934810  0.61081576  1  0  0.64799  0  3.904562  0  0  0.59636  0  4.199312  0  0  0.631743  0  4.191135  0  0  0.210095  0.5724  0  4.204062  0
C  C44  1  0.08723562  0.95005153  0.29723582  1  0  -0.072125  0  3.745727  0  0  -0.093914  0  3.992444  0  0  -0.095511  0  4.013943  0  0  -0.07953  -0.092762  0  3.977769  0
C  C45  1  0.91276312  0.04994598  0.70275459  1  0  -0.072149  0  3.746019  0  0  -0.093945  0  3.992729  0  0  -0.095539  0  4.014233  0  0  -0.079593  -0.092787  0  3.978044  0
C  C46  1  0.25725306  0.16686133  0.21959825  1  0  -0.107659  0  3.75814  0  0  -0.086678  0  4.009458  0  0  -0.092802  0  4.0347  0  0  -0.021096  -0.082449  0  3.992294  0
C  C47  1  0.74274059  0.83314108  0.78038852  1  0  -0.107716  0  3.758056  0  0  -0.086746  0  4.009399  0  0  -0.092864  0  4.034638  0  0  -0.021133  -0.082511  0  3.992226  0
C  C48  1  0.37750280  0.89124091  0.17444086  1  0  -0.069235  0  3.718774  0  0  -0.090395  0  3.96371  0  0  -0.091728  0  3.984432  0  0  -0.076757  -0.089377  0  3.949548  0
C  C49  1  0.62251917  0.10876493  0.82556562  1  0  -0.0695  0  3.7188  0  0  -0.090721  0  3.96377  0  0  -0.092053  0  3.98449  0  0  -0.07692  -0.089705  0  3.94961  0
C  C50  1  0.12955266  0.85216320  0.35508789  1  0  -0.063718  0  3.720669  0  0  -0.08537  0  3.964562  0  0  -0.086278  0  3.984969  0  0  -0.078486  -0.084648  0  3.950729  0
C  C51  1  0.87045165  0.14783825  0.64490041  1  0  -0.063715  0  3.720644  0  0  -0.085433  0  3.964459  0  0  -0.086356  0  3.984862  0  0  -0.078469  -0.084717  0  3.950629  0
C  C52  1  0.21256917  0.96861133  0.20801659  1  0  -0.091105  0  3.73526  0  0  -0.069314  0  3.983707  0  0  -0.075005  0  4.008047  0  0  -0.016479  -0.065419  0  3.967227  0
C  C53  1  0.78744043  0.03138759  0.79197747  1  0  -0.091059  0  3.735323  0  0  -0.069184  0  3.983637  0  0  -0.074877  0  4.007975  0  0  -0.016395  -0.065286  0  3.967144  0
C  C54  1  0.42447232  0.17810792  0.17927427  1  0  -0.067328  0  3.724999  0  0  -0.088113  0  3.971338  0  0  -0.0892  0  3.991882  0  0  -0.077414  -0.087282  0  3.957285  0
C  C55  1  0.57552593  0.82189186  0.82072955  1  0  -0.067294  0  3.72484  0  0  -0.088076  0  3.971193  0  0  -0.089163  0  3.991734  0  0  -0.077381  -0.087243  0  3.957144  0
C  C56  1  0.48060716  0.51790239  0.11072225  1  0  -0.093576  0  3.714027  0  0  -0.114552  0  3.962391  0  0  -0.117205  0  3.984198  0  0  -0.084037  -0.112639  0  3.947497  0
C  C57  1  0.51939787  0.48209650  0.88928214  1  0  -0.093766  0  3.713987  0  0  -0.114745  0  3.962364  0  0  -0.1174  0  3.984174  0  0  -0.084074  -0.112826  0  3.947462  0
C  C58  1  0.29523165  0.77414754  0.32388237  1  0  -0.05706  0  3.737471  0  0  -0.03452  0  3.97026  0  0  -0.041432  0  3.992705  0  0  -0.013248  -0.030007  0  3.955126  0
C  C59  1  0.70477039  0.22586019  0.67612322  1  0  -0.057153  0  3.737422  0  0  -0.034332  0  3.969789  0  0  -0.041251  0  3.992246  0  0  -0.013185  -0.02982  0  3.954651  0
C  C60  1  0.63322276  0.52145899  0.03706612  1  0  -0.098027  0  3.740403  0  0  -0.115986  0  3.983494  0  0  -0.118552  0  4.005045  0  0  -0.084556  -0.114079  0  3.96871  0
C  C61  1  0.36678080  0.47853512  0.96293820  1  0  -0.098012  0  3.740408  0  0  -0.115971  0  3.983512  0  0  -0.118545  0  4.005061  0  0  -0.084595  -0.114064  0  3.968724  0
C  C62  1  0.18239956  0.49383959  0.15250069  1  0  0.107074  0  3.771257  0  0  0.117663  0  4.002501  0  0  0.123488  0  4.024743  0  0  0.017697  0.113952  0  3.987349  0
C  C63  1  0.81760886  0.50615522  0.84750674  1  0  0.106892  0  3.771277  0  0  0.117545  0  4.002441  0  0  0.123373  0  4.024682  0  0  0.017627  0.113841  0  3.98729  0
C  C64  1  0.97574250  0.54670450  0.32344651  1  0  0.144892  0  3.677984  0  0  0.112536  0  3.926543  0  0  0.120676  0  3.943665  0  0  0.052414  0.10735  0  3.914919  0
C  C65  1  0.02426142  0.45328880  0.67655703  1  0  0.144622  0  3.67801  0  0  0.112342  0  3.926575  0  0  0.120469  0  3.943693  0  0  0.052371  0.107153  0  3.914952  0
C  C66  1  0.21174363  0.27400198  0.37471648  1  0  -0.058981  0  3.71844  0  0  -0.085323  0  3.970104  0  0  -0.085797  0  3.990421  0  0  -0.080177  -0.084881  0  3.956333  0
C  C67  1  0.78824628  0.72599152  0.62528695  1  0  -0.058894  0  3.718768  0  0  -0.085222  0  3.970382  0  0  -0.085702  0  3.990705  0  0  -0.080125  -0.084781  0  3.956605  0
C  C68  1  0.48374049  0.23996348  0.23691816  1  0  -0.05117  0  3.683622  0  0  -0.075576  0  3.930602  0  0  -0.075925  0  3.949789  0  0  -0.072966  -0.075265  0  3.917609  0
C  C69  1  0.51625136  0.76003881  0.76308328  1  0  -0.051133  0  3.683519  0  0  -0.07558  0  3.930528  0  0  -0.075925  0  3.949711  0  0  -0.072935  -0.075274  0  3.917542  0
C  C70  1  0.41756394  0.79368981  0.23286805  1  0  -0.052929  0  3.704412  0  0  -0.075748  0  3.949884  0  0  -0.076386  0  3.969428  0  0  -0.07586  -0.075246  0  3.936635  0
C  C71  1  0.58245337  0.20631287  0.76714112  1  0  -0.052817  0  3.704261  0  0  -0.075765  0  3.949671  0  0  -0.076402  0  3.96922  0  0  -0.075854  -0.075263  0  3.93642  0
C  C72  1  0.37570609  0.29026531  0.33324562  1  0  -0.05457  0  3.726195  0  0  -0.031321  0  3.95836  0  0  -0.038355  0  3.981054  0  0  -0.011047  -0.026752  0  3.943082  0
C  C73  1  0.62428698  0.70972973  0.66676033  1  0  -0.054434  0  3.726504  0  0  -0.031204  0  3.958617  0  0  -0.038239  0  3.981315  0  0  -0.011024  -0.026636  0  3.943336  0
S  S74  1  0.16921111  0.09828664  0.14214386  1  0  1.051235  0  5.268509  0  0  0.98231  0  5.7666  0  0  1.022147  0  5.752178  0  0  0.468178  0.954351  0  5.776727  0
S  S75  1  0.83078074  0.90171566  0.85785757  1  0  1.051559  0  5.268341  0  0  0.982663  0  5.766353  0  0  1.02249  0  5.751945  0  0  0.468327  0.954691  0  5.776501  0
N  N76  1  0.88471606  0.48185959  0.30922429  1  0  -0.321693  0  3.285894  0  0  -0.236725  0  3.55639  0  0  -0.25742  0  3.571278  0  0  -0.333606  -0.222831  0  3.546104  0
N  N77  1  0.11527994  0.51814186  0.69077575  1  0  -0.321666  0  3.285804  0  0  -0.236696  0  3.556262  0  0  -0.257394  0  3.571155  0  0  -0.333617  -0.222798  0  3.545976  0
O  O78  1  0.23313274  0.65575348  0.47255010  1  0  -0.618092  0  2.028081  0  0  -0.555949  0  2.287075  0  0  -0.584686  0  2.274725  0  0  -0.313275  -0.535959  0  2.29482  0
O  O79  1  0.76685825  0.34425529  0.52744604  1  0  -0.618114  0  2.028039  0  0  -0.555997  0  2.287018  0  0  -0.584738  0  2.274674  0  0  -0.313298  -0.536007  0  2.29477  0
O  O80  1  0.31630704  0.41756836  0.46938778  1  0  -0.64264  0  2.104762  0  0  -0.57681  0  2.370216  0  0  -0.606277  0  2.357396  0  0  -0.311816  -0.556251  0  2.378171  0
O  O81  1  0.68368276  0.58243968  0.53060225  1  0  -0.642496  0  2.104895  0  0  -0.576775  0  2.370367  0  0  -0.606237  0  2.357544  0  0  -0.311774  -0.556221  0  2.378329  0
O  O82  1  0.58440902  0.37322468  0.35371077  1  0  -0.619101  0  2.062712  0  0  -0.553828  0  2.320903  0  0  -0.582257  0  2.307661  0  0  -0.310323  -0.534115  0  2.329304  0
O  O83  1  0.41556749  0.62678099  0.64629524  1  0  -0.619049  0  2.062087  0  0  -0.553849  0  2.320225  0  0  -0.582279  0  2.306982  0  0  -0.310368  -0.534137  0  2.328625  0
O  O84  1  0.49950979  0.60535975  0.35565439  1  0  -0.643739  0  2.107302  0  0  -0.581939  0  2.37236  0  0  -0.609927  0  2.35891  0  0  -0.314922  -0.562511  0  2.380942  0
O  O85  1  0.50047978  0.39464253  0.64435220  1  0  -0.643507  0  2.107108  0  0  -0.581832  0  2.372183  0  0  -0.60982  0  2.358738  0  0  -0.314764  -0.56241  0  2.380767  0
O  O86  1  0.27440192  0.08777005  0.03153351  1  0  -0.575503  0  1.920099  0  0  -0.537047  0  2.151398  0  0  -0.555509  0  2.139053  0  0  -0.319307  -0.52395  0  2.159568  0
O  O87  1  0.72561430  0.91222074  0.96846347  1  0  -0.575542  0  1.920468  0  0  -0.537104  0  2.15178  0  0  -0.555563  0  2.139431  0  0  -0.319399  -0.524007  0  2.159967  0
O  O88  1  0.97896696  0.15049756  0.16155493  1  0  -0.575523  0  1.900607  0  0  -0.537373  0  2.127971  0  0  -0.555867  0  2.115843  0  0  -0.321132  -0.524246  0  2.135987  0
O  O89  1  0.02104839  0.84949897  0.83842886  1  0  -0.575727  0  1.900438  0  0  -0.537597  0  2.127784  0  0  -0.55609  0  2.115655  0  0  -0.321158  -0.52446  0  2.135802  0
