# generated using pymatgen
data_CoH13C14(N3O2)2
_symmetry_space_group_name_H-M   'P 1'
_cell_length_a   9.25648299
_cell_length_b   9.48068568
_cell_length_c   10.65537189
_cell_angle_alpha   65.84154535
_cell_angle_beta   67.33367304
_cell_angle_gamma   89.12409542
_symmetry_Int_Tables_number   1
_chemical_formula_structural   CoH13C14(N3O2)2
_chemical_formula_sum   'Co2 H26 C28 N12 O8'
_cell_volume   775.95060943
_cell_formula_units_Z   2
loop_
 _symmetry_equiv_pos_site_id
 _symmetry_equiv_pos_as_xyz
  1  'x, y, z'
loop_
 _atom_site_type_symbol
 _atom_site_label
 _atom_site_symmetry_multiplicity
 _atom_site_fract_x
 _atom_site_fract_y
 _atom_site_fract_z
 _atom_site_occupancy
 _atom_site_hle17_ddec_charge
 _atom_site_hle17_ddec_spin_density
 _atom_site_hle17_ddec_sum_bond_order
 _atom_site_hle17_magmom
 _atom_site_hse06_10hf_ddec_charge
 _atom_site_hse06_10hf_ddec_spin_density
 _atom_site_hse06_10hf_ddec_sum_bond_order
 _atom_site_hse06_10hf_magmom
 _atom_site_hse06_ddec_charge
 _atom_site_hse06_ddec_spin_density
 _atom_site_hse06_ddec_sum_bond_order
 _atom_site_hse06_magmom
 _atom_site_pbe_cm5_charge
 _atom_site_pbe_ddec_charge
 _atom_site_pbe_ddec_spin_density
 _atom_site_pbe_ddec_sum_bond_order
 _atom_site_pbe_magmom
Co  Co0  1  0.62485340  0.67656152  0.23429361  1  0.919  -2.902947  2.091641  -2.594  0.874267  -2.863402  2.504109  -2.648  0.945718  -2.906183  2.438765  -2.722  0.681111  0.808889  -2.815379  2.566045  -2.57
Co  Co1  1  0.37512749  0.32343823  0.76571698  1  0.91918  2.902952  2.091513  2.594  0.874356  2.863407  2.504108  2.648  0.945875  2.906195  2.438638  2.722  0.681127  0.809014  2.81539  2.565982  2.57
H  H2  1  0.38175170  0.86971094  0.12621336  1  0.292357  0.000123  0.931082  0.0  0.26781  4.2e-05  1.000852  0.0  0.277481  5e-05  0.992418  0.0  0.318537  0.260295  4.2e-05  1.007871  0.0
H  H3  1  0.61823541  0.13029120  0.87378769  1  0.292396  -0.000123  0.931016  0.0  0.267778  -4.2e-05  1.000868  0.0  0.277447  -4.9e-05  0.992437  0.0  0.318554  0.260264  -4.2e-05  1.007886  0.0
H  H4  1  0.71311774  0.85898150  0.87908618  1  0.312221  0.00017  0.914594  0.0  0.286904  0.000107  0.984572  0.0  0.295451  0.000101  0.977377  0.0  0.32575  0.280248  0.00011  0.990669  0.0
H  H5  1  0.28688950  0.14101484  0.12091485  1  0.312331  -0.00017  0.914581  0.0  0.28695  -0.000108  0.984608  0.0  0.295501  -0.000101  0.977407  0.0  0.325723  0.280291  -0.00011  0.990709  0.0
H  H6  1  0.70354795  0.49751642  0.50950733  1  0.295779  -8.1e-05  0.948553  0.0  0.270214  -0.000212  1.019133  0.0  0.278912  -0.000203  1.012492  0.0  0.316379  0.264345  -0.000227  1.023191  0.0
H  H7  1  0.29644338  0.50246804  0.49052777  1  0.295971  8.1e-05  0.948469  0.0  0.270382  0.000212  1.019036  0.0  0.279099  0.000203  1.012394  0.0  0.316538  0.264517  0.000227  1.023096  0.0
H  H8  1  0.20323476  0.80954064  0.01685580  1  0.104951  -0.00028  0.956522  0.0  0.116372  -0.000258  1.017381  0.0  0.118738  -0.000204  1.015572  0.0  0.122276  0.114593  -0.000215  1.019051  0.0
H  H9  1  0.79678088  0.19047099  0.98313500  1  0.104942  0.000281  0.956398  0.0  0.116365  0.000258  1.017278  0.0  0.118734  0.000204  1.015467  0.0  0.122274  0.114581  0.000215  1.018948  0.0
H  H10  1  0.22806542  0.50525623  0.04935504  1  0.121268  -0.000308  1.00175  0.0  0.128583  -0.000295  1.064178  0.0  0.130569  -0.000246  1.066324  0.0  0.103605  0.127623  -0.000304  1.0621  0.0
H  H11  1  0.77194877  0.49475429  0.95061788  1  0.121232  0.000309  1.001755  0.0  0.128567  0.000295  1.064168  0.0  0.130551  0.000247  1.066317  0.0  0.103628  0.127605  0.000304  1.06209  0.0
H  H12  1  0.44202463  0.42279375  0.17952187  1  0.097129  1.2e-05  0.967473  0.0  0.106985  6.1e-05  1.030726  0.0  0.108993  6.5e-05  1.028974  0.0  0.116165  0.105124  5.9e-05  1.03273  0.0
H  H13  1  0.55798671  0.57721318  0.82047115  1  0.097183  -1.1e-05  0.967402  0.0  0.106972  -6.1e-05  1.030718  0.0  0.108993  -6.4e-05  1.028965  0.0  0.116204  0.105112  -5.9e-05  1.032723  0.0
H  H14  1  0.95542739  0.85864820  0.66339051  1  0.104643  -0.000277  0.936508  0.0  0.119693  -0.000324  0.989568  0.0  0.122153  -0.000249  0.987412  0.0  0.129229  0.117381  -0.00041  0.992263  0.0
H  H15  1  0.04459905  0.14135754  0.33661660  1  0.104626  0.00028  0.936573  0.0  0.119675  0.000324  0.989635  0.0  0.122135  0.000249  0.987479  0.0  0.129223  0.117364  0.00041  0.992324  0.0
H  H16  1  0.15283916  0.69451479  0.79175885  1  0.13231  -0.000235  0.980743  0.0  0.140421  -0.00028  1.039609  0.0  0.143138  -0.000221  1.040189  0.0  0.106714  0.138387  -0.000318  1.039445  0.0
H  H17  1  0.84717784  0.30549667  0.20827566  1  0.132487  0.000238  0.98078  0.0  0.140506  0.00028  1.039723  0.0  0.143221  0.000221  1.040306  0.0  0.106755  0.138472  0.000319  1.039547  0.0
H  H18  1  0.97850106  0.60442301  0.09683247  1  0.098839  4.4e-05  0.959173  0.0  0.107278  -2.1e-05  1.02288  0.0  0.108972  5e-06  1.022024  0.0  0.120627  0.105962  1.2e-05  1.023782  0.0
H  H19  1  0.02148465  0.39559774  0.90319706  1  0.098908  -4.5e-05  0.958923  0.0  0.107401  2.1e-05  1.022583  0.0  0.109097  -5e-06  1.021724  0.0  0.120647  0.106084  -1.2e-05  1.023492  0.0
H  H20  1  0.91075011  0.58105890  0.58688305  1  0.100648  -0.000288  0.957178  0.0  0.111055  -0.000276  1.01855  0.0  0.11315  -0.000215  1.017449  0.0  0.11977  0.109319  -0.000371  1.019827  0.0
H  H21  1  0.08930388  0.41893774  0.41307486  1  0.100593  0.000287  0.957205  0.0  0.111034  0.000276  1.018538  0.0  0.11313  0.000213  1.017442  0.0  0.1198  0.109292  0.000371  1.019822  0.0
H  H22  1  0.07445109  0.87026192  0.35353936  1  0.1264  -0.000202  0.978769  0.0  0.133096  -0.000207  1.041138  0.0  0.136848  -0.000153  1.039889  0.0  0.102564  0.130103  -0.000425  1.042674  0.0
H  H23  1  0.92556139  0.12975342  0.64639767  1  0.126582  0.000201  0.978518  0.0  0.133154  0.000208  1.041032  0.0  0.136906  0.000153  1.03978  0.0  0.10261  0.130161  0.000426  1.04256  0.0
H  H24  1  0.92346116  0.93068687  0.16132046  1  0.099057  -1.4e-05  0.938118  0.0  0.110827  -9e-06  0.996662  0.0  0.112952  7e-06  0.994849  0.0  0.118988  0.109368  -4.1e-05  0.997934  0.0
H  H25  1  0.07646358  0.06929281  0.83869289  1  0.099042  1.5e-05  0.938143  0.0  0.11079  9e-06  0.996701  0.0  0.112926  -7e-06  0.994885  0.0  0.118933  0.10933  4e-05  0.997973  0.0
H  H26  1  0.55489861  0.22344025  0.25300018  1  0.09834  -9e-06  0.969982  0.0  0.106146  6.5e-05  1.038137  0.0  0.109797  6.1e-05  1.035959  0.0  0.102219  0.103093  -3.9e-05  1.040623  0.0
H  H27  1  0.44510140  0.77654786  0.74700721  1  0.098312  1.1e-05  0.969987  0.0  0.106137  -6.5e-05  1.038139  0.0  0.109785  -6.1e-05  1.035969  0.0  0.102196  0.103085  4e-05  1.040626  0.0
C  C28  1  0.27216968  0.72714085  0.06307059  1  0.050377  0.002067  3.7025  0.002  0.004612  -0.000177  3.961568  0.0  0.01352  -3.6e-05  3.975859  0.0  0.01684  -0.001781  1.2e-05  3.952745  0.0
C  C29  1  0.72783286  0.27286253  0.93692480  1  0.050396  -0.00207  3.702367  -0.002  0.004612  0.000177  3.961472  0.0  0.013518  3.3e-05  3.975757  0.0  0.016833  -0.00178  -1.2e-05  3.952646  0.0
C  C30  1  0.28636645  0.57437670  0.08129508  1  -0.24052  -0.002383  3.797299  -0.003  -0.249714  -0.000738  4.056362  -0.001  -0.259698  -0.000624  4.077679  -0.001  -0.126294  -0.242706  -0.000966  4.041251  -0.001
C  C31  1  0.71363919  0.42563140  0.91869287  1  -0.24051  0.00238  3.797514  0.003  -0.249702  0.000736  4.056575  0.001  -0.259686  0.000621  4.077895  0.001  -0.126366  -0.242694  0.000965  4.041461  0.001
C  C32  1  0.39577364  0.53131103  0.14670283  1  0.046957  0.003505  3.732513  0.004  0.008792  -7.8e-05  4.009241  -0.001  0.017671  2.1e-05  4.024375  0.0  0.011886  0.002908  0.000136  3.998236  0.0
C  C33  1  0.60424138  0.46869711  0.85328193  1  0.046925  -0.003505  3.732543  -0.004  0.008792  7.6e-05  4.009299  0.001  0.017648  -2.1e-05  4.024425  0.0  0.011862  0.002908  -0.000135  3.998298  0.0
C  C34  1  0.93953377  0.80093987  0.78023525  1  0.057566  -0.001864  3.691279  -0.002  0.010347  -0.002486  3.952751  -0.003  0.018773  -0.001915  3.967327  -0.002  0.025711  0.004291  -0.002705  3.944096  -0.003
C  C35  1  0.06048528  0.19907052  0.21977549  1  0.057771  0.001858  3.691578  0.002  0.01054  0.002484  3.953003  0.003  0.018967  0.001914  3.967573  0.002  0.025673  0.004476  0.002705  3.944339  0.003
C  C36  1  0.03650977  0.71885803  0.84698967  1  -0.221737  -0.00289  3.767655  -0.004  -0.231959  -0.001318  4.024702  -0.001  -0.242119  -0.000854  4.046176  -0.001  -0.116993  -0.225311  -0.001869  4.010391  -0.002
C  C37  1  0.96349507  0.28114404  0.15304107  1  -0.22189  0.002879  3.767592  0.004  -0.232046  0.00132  4.024759  0.001  -0.242206  0.000858  4.046223  0.001  -0.116871  -0.225394  0.001869  4.010436  0.002
C  C38  1  0.94925608  0.67238884  0.00252262  1  0.042043  0.002817  3.737005  0.003  0.00559  -0.000343  4.015627  -0.001  0.014314  -0.000225  4.030795  -0.001  0.016382  -0.000685  -8.2e-05  4.005572  -0.001
C  C39  1  0.05074211  0.32762964  0.99750070  1  0.042082  -0.00282  3.736401  -0.003  0.005592  0.000342  4.015042  0.001  0.014313  0.000223  4.030218  0.001  0.0164  -0.00069  8.2e-05  4.004987  0.001
C  C40  1  0.89657706  0.65177141  0.48399770  1  0.044234  9.2e-05  3.717258  0.0  -0.000994  -0.00105  3.978739  -0.001  0.007259  -0.000692  3.99416  -0.001  0.014332  -0.006641  -0.001214  3.969043  -0.002
C  C41  1  0.10345954  0.34821931  0.51596823  1  0.044262  -8.9e-05  3.716973  0.0  -0.000961  0.001049  3.978401  0.001  0.007292  0.000691  3.993823  0.001  0.014356  -0.0066  0.001213  3.968702  0.002
C  C42  1  0.97527822  0.79838551  0.36617748  1  -0.229708  -0.002877  3.795604  -0.004  -0.242446  -0.001185  4.058741  -0.001  -0.252359  -0.000859  4.079315  -0.001  -0.127201  -0.236068  -0.001628  4.045446  -0.002
C  C43  1  0.02473410  0.20160047  0.63378334  1  -0.229966  0.002877  3.795625  0.004  -0.242611  0.001184  4.058812  0.001  -0.252524  0.000859  4.079385  0.001  -0.127324  -0.236231  0.001627  4.045509  0.002
C  C44  1  0.90198921  0.82840192  0.26621962  1  0.051821  0.003202  3.732309  0.004  0.013727  0.000178  4.011994  0.0  0.02271  0.000253  4.027655  0.0  0.013539  0.007446  0.000516  4.00063  0.0
C  C45  1  0.09797592  0.17158146  0.73377404  1  0.051995  -0.003205  3.732357  -0.004  0.013953  -0.000177  4.011941  0.0  0.022919  -0.000252  4.027621  0.0  0.01367  0.007681  -0.000515  4.000569  0.0
C  C46  1  0.53566921  0.15537872  0.47798018  1  -0.063605  -0.006976  3.706422  -0.01  -0.052274  -0.003771  3.94266  -0.005  -0.057377  -0.002802  3.961438  -0.004  -0.011568  -0.049442  -0.003522  3.930973  -0.005
C  C47  1  0.46434096  0.84462116  0.52201765  1  -0.063492  0.006979  3.70647  0.01  -0.052192  0.003773  3.942798  0.005  -0.057295  0.0028  3.961576  0.004  -0.011542  -0.049363  0.003522  3.931115  0.005
C  C48  1  0.50506562  0.02757561  0.61877677  1  -0.043206  0.004519  3.695319  0.006  -0.031368  0.001815  3.932128  0.003  -0.033308  0.001268  3.949283  0.002  -0.005024  -0.030595  0.001715  3.921375  0.002
C  C49  1  0.49494199  0.97242310  0.38121765  1  -0.043267  -0.004524  3.695603  -0.006  -0.031462  -0.001817  3.932443  -0.003  -0.033413  -0.001275  3.949611  -0.002  -0.005038  -0.030687  -0.001715  3.921686  -0.002
C  C50  1  0.52974315  0.12462130  0.36205780  1  -0.087571  0.002792  3.710435  0.004  -0.11875  0.000634  3.959508  0.001  -0.118575  0.000633  3.977003  0.001  -0.081697  -0.119434  0.000944  3.949288  0.001
C  C51  1  0.47026212  0.87537036  0.63794277  1  -0.087549  -0.002792  3.710308  -0.004  -0.118765  -0.000634  3.959421  -0.001  -0.11859  -0.00063  3.976912  -0.001  -0.081617  -0.119447  -0.000944  3.949206  -0.001
C  C52  1  0.57724886  0.32171943  0.44888080  1  0.657762  0.006079  3.842231  0.009  0.609381  0.004468  4.14641  0.006  0.647739  0.003125  4.134695  0.005  0.218006  0.582649  0.006782  4.151052  0.01
C  C53  1  0.42273161  0.67827799  0.55112419  1  0.65795  -0.006082  3.842234  -0.009  0.609494  -0.00447  4.146497  -0.006  0.647862  -0.003129  4.134766  -0.005  0.217925  0.582768  -0.006785  4.151141  -0.01
C  C54  1  0.50885616  0.04416355  0.75229119  1  0.678815  0.003214  3.883446  0.003  0.627263  0.006187  4.193443  0.008  0.663164  0.004744  4.183226  0.006  0.217549  0.601457  0.008615  4.198101  0.01
C  C55  1  0.49114206  0.95582810  0.24770801  1  0.678834  -0.003215  3.883579  -0.003  0.627307  -0.006188  4.193558  -0.008  0.663207  -0.004747  4.183346  -0.006  0.217501  0.6015  -0.008616  4.198218  -0.01
N  N56  1  0.44570901  0.65016525  0.16631045  1  -0.230241  -0.034764  3.183541  -0.056  -0.20695  -0.025436  3.48443  -0.037  -0.224955  -0.02165  3.500215  -0.031  -0.253765  -0.191717  -0.027992  3.472568  -0.04
N  N57  1  0.55429429  0.34983580  0.83368083  1  -0.230275  0.034763  3.183251  0.056  -0.206917  0.025439  3.484049  0.037  -0.224937  0.021653  3.499844  0.031  -0.253777  -0.191695  0.027992  3.472195  0.04
N  N58  1  0.36921099  0.76789101  0.11420644  1  -0.139469  0.000335  3.479292  0.001  -0.073893  0.000155  3.712979  0.0  -0.084674  0.000264  3.730185  0.001  -0.280359  -0.067295  4.6e-05  3.701855  0.0
N  N59  1  0.63078473  0.23210646  0.88579808  1  -0.139541  -0.000335  3.479102  -0.001  -0.073918  -0.000154  3.712876  0.0  -0.084697  -0.000268  3.730079  -0.001  -0.280346  -0.067324  -4.5e-05  3.701753  0.0
N  N60  1  0.80884316  0.72281586  0.02917131  1  -0.229527  -0.038995  3.226098  -0.063  -0.211274  -0.028509  3.538406  -0.042  -0.229814  -0.023351  3.55227  -0.034  -0.253742  -0.196255  -0.033215  3.530152  -0.05
N  N61  1  0.19115167  0.27719678  0.97084586  1  -0.229696  0.039002  3.226008  0.063  -0.211465  0.028507  3.538338  0.042  -0.23002  0.023349  3.552192  0.034  -0.253954  -0.196453  0.033212  3.530067  0.05
N  N62  1  0.80498918  0.80022929  0.89242025  1  -0.150008  -0.00024  3.457568  0.0  -0.083423  -0.000888  3.6978  -0.001  -0.09428  -0.000709  3.715126  -0.001  -0.276218  -0.077109  -0.000903  3.687074  -0.001
N  N63  1  0.19501501  0.19977635  0.10759441  1  -0.150243  0.000248  3.457699  0.0  -0.083548  0.000887  3.697893  0.001  -0.094409  0.000706  3.715213  0.001  -0.276136  -0.077217  0.000903  3.687148  0.001
N  N64  1  0.78745766  0.70725948  0.31876093  1  -0.246727  -0.034706  3.222492  -0.057  -0.223132  -0.024983  3.525394  -0.038  -0.242573  -0.020799  3.543296  -0.032  -0.252962  -0.206242  -0.028372  3.511513  -0.043
N  N65  1  0.21250643  0.29272379  0.68126129  1  -0.246814  0.034706  3.222077  0.057  -0.223225  0.024982  3.525005  0.038  -0.242676  0.020801  3.542908  0.032  -0.252876  -0.206345  0.02837  3.511137  0.043
N  N66  1  0.78586304  0.60165079  0.45143865  1  -0.151515  -7.6e-05  3.469872  0.001  -0.084983  -0.000509  3.705881  0.0  -0.097422  -0.00036  3.726224  0.0  -0.279443  -0.077234  -0.000585  3.690988  0.0
N  N67  1  0.21414554  0.39832564  0.54856724  1  -0.151704  7.1e-05  3.469425  -0.001  -0.085182  0.000507  3.705489  0.0  -0.097644  0.000357  3.725837  0.0  -0.279724  -0.077431  0.000582  3.690604  0.0
O  O68  1  0.61701311  0.43039776  0.31573059  1  -0.602373  -0.030758  2.057223  -0.051  -0.567891  -0.024416  2.333855  -0.037  -0.600234  -0.019296  2.322334  -0.028  -0.302662  -0.540002  -0.030319  2.338876  -0.046
O  O69  1  0.38297690  0.56959387  0.68426765  1  -0.602505  0.030753  2.057433  0.051  -0.567935  0.024416  2.333979  0.037  -0.600294  0.019299  2.32244  0.028  -0.30267  -0.540053  0.030314  2.338997  0.046
O  O70  1  0.57439803  0.34564156  0.55972733  1  -0.638496  0.019205  2.161031  0.029  -0.592978  0.017018  2.420923  0.023  -0.622831  0.014224  2.408776  0.018  -0.310128  -0.569712  0.019502  2.42767  0.026
O  O71  1  0.42556838  0.65435581  0.44028244  1  -0.638724  -0.019202  2.161153  -0.029  -0.593051  -0.017019  2.420959  -0.023  -0.62291  -0.014222  2.408817  -0.018  -0.310052  -0.56978  -0.019503  2.427718  -0.026
O  O72  1  0.39022223  0.08697356  0.83135613  1  -0.635671  0.033682  2.064602  0.054  -0.608995  0.025975  2.343214  0.038  -0.64446  0.018699  2.333498  0.026  -0.326663  -0.576218  0.035469  2.34638  0.053
O  O73  1  0.60977658  0.91303568  0.16863559  1  -0.635592  -0.03367  2.064747  -0.054  -0.608966  -0.025966  2.343373  -0.038  -0.644412  -0.018692  2.333671  -0.026  -0.326576  -0.576183  -0.035461  2.346545  -0.053
O  O74  1  0.62666636  0.00598343  0.78398054  1  -0.622124  0.008192  1.974309  0.014  -0.578314  0.00695  2.204992  0.012  -0.603324  0.005147  2.195414  0.009  -0.31348  -0.559028  0.009173  2.211588  0.015
O  O75  1  0.37332352  0.99402105  0.21602530  1  -0.622252  -0.008192  1.974269  -0.014  -0.578434  -0.006951  2.204915  -0.012  -0.603436  -0.005147  2.195321  -0.009  -0.313539  -0.559146  -0.009174  2.211517  -0.015
