# generated using pymatgen
data_Cd2H20C24N2O11
_symmetry_space_group_name_H-M   'P 1'
_cell_length_a   12.10763429
_cell_length_b   14.03578433
_cell_length_c   17.59649705
_cell_angle_alpha   89.99981758
_cell_angle_beta   90.00038553
_cell_angle_gamma   105.33067063
_symmetry_Int_Tables_number   1
_chemical_formula_structural   Cd2H20C24N2O11
_chemical_formula_sum   'Cd8 H80 C96 N8 O44'
_cell_volume   2883.94266071
_cell_formula_units_Z   4
loop_
 _symmetry_equiv_pos_site_id
 _symmetry_equiv_pos_as_xyz
  1  'x, y, z'
loop_
 _atom_site_type_symbol
 _atom_site_label
 _atom_site_symmetry_multiplicity
 _atom_site_fract_x
 _atom_site_fract_y
 _atom_site_fract_z
 _atom_site_occupancy
 _atom_site_pbe_bader_charge
 _atom_site_pbe_bader_spin_density
 _atom_site_pbe_cm5_charge
 _atom_site_pbe_ddec_charge
 _atom_site_pbe_ddec_spin_density
 _atom_site_pbe_ddec_sum_bond_order
 _atom_site_pbe_magmom
Cd  Cd0  1  0.54781470  0.17445601  0.43738867  1  1.378575  0  0.799683  1.106072  0  2.088793  0
Cd  Cd1  1  0.95219170  0.32554380  0.93738495  1  1.378567  0  0.799715  1.106049  0  2.088882  0
Cd  Cd2  1  0.45218620  0.82553308  0.56260913  1  1.378505  0  0.799654  1.106092  0  2.08925  0
Cd  Cd3  1  0.04781448  0.67445933  0.06261285  1  1.37858  0  0.799703  1.106089  0  2.088939  0
Cd  Cd4  1  0.84713084  0.02145052  0.88032771  1  1.295282  0  0.760101  0.937683  0  2.101835  0
Cd  Cd5  1  0.65287056  0.47855091  0.38032830  1  1.295452  0  0.760098  0.937637  0  2.101912  0
Cd  Cd6  1  0.15286699  0.97854971  0.11967293  1  1.295266  0  0.76018  0.93772  0  2.10163  0
Cd  Cd7  1  0.34712986  0.52144707  0.61967291  1  1.295382  0  0.760153  0.937641  0  2.101769  0
H  H8  1  0.96478341  0.88163769  0.98348606  1  0.629176  0  0.287737  0.388204  0  0.947764  0
H  H9  1  0.53521676  0.61836229  0.48348418  1  0.629216  0  0.287761  0.388207  0  0.947754  0
H  H10  1  0.03521182  0.11836478  0.01651231  1  0.629175  0  0.287733  0.388189  0  0.947774  0
H  H11  1  0.46478988  0.38164231  0.51651703  1  0.629151  0  0.287755  0.388273  0  0.947687  0
H  H12  1  0.86306875  0.91493982  0.01938083  1  0.613064  0  0.308167  0.393578  0  0.904734  0
H  H13  1  0.63693327  0.58506469  0.51937910  1  0.613109  0  0.308181  0.393599  0  0.904725  0
H  H14  1  0.13693025  0.08506411  0.98062209  1  0.61315  0  0.308198  0.393594  0  0.904607  0
H  H15  1  0.36307397  0.41493917  0.48061870  1  0.613094  0  0.308168  0.393606  0  0.904703  0
H  H16  1  0.34750657  0.22943513  0.45010487  1  0.607681  0  0.308936  0.385392  0  0.912734  0
H  H17  1  0.15249304  0.27055194  0.95010388  1  0.60763  0  0.308995  0.38539  0  0.912742  0
H  H18  1  0.65249233  0.77055546  0.54989691  1  0.607685  0  0.308954  0.385388  0  0.912726  0
H  H19  1  0.84750797  0.72944530  0.04989790  1  0.607699  0  0.308973  0.385407  0  0.91271  0
H  H20  1  0.39656666  0.27698073  0.37260370  1  0.66559  0  0.289544  0.396326  0  0.93855  0
H  H21  1  0.10342869  0.22301097  0.87260204  1  0.665428  0  0.28949  0.396169  0  0.938753  0
H  H22  1  0.60342600  0.72300844  0.62739808  1  0.665434  0  0.289494  0.396226  0  0.938689  0
H  H23  1  0.89657584  0.77699217  0.12739690  1  0.665431  0  0.289502  0.39619  0  0.938731  0
H  H24  1  0.30913470  0.19052015  0.60431734  1  0.09686  0  0.10054  0.103728  0  1.043155  0
H  H25  1  0.19086417  0.30948311  0.10431342  1  0.096815  0  0.100505  0.103683  0  1.043252  0
H  H26  1  0.69085961  0.80947418  0.39568103  1  0.096788  0  0.100516  0.103726  0  1.0431  0
H  H27  1  0.80914106  0.69052743  0.89568665  1  0.096704  0  0.100523  0.103705  0  1.043065  0
H  H28  1  0.06316790  0.46248024  0.64567750  1  0.105063  0  0.12471  0.102435  0  0.972006  0
H  H29  1  0.43682829  0.03751852  0.14567484  1  0.105057  0  0.124678  0.1024  0  0.971994  0
H  H30  1  0.93684898  0.53752279  0.35432485  1  0.105487  0  0.124723  0.102466  0  0.97199  0
H  H31  1  0.56315753  0.96248033  0.85432580  1  0.105487  0  0.12473  0.102458  0  0.972099  0
H  H32  1  0.31427243  0.31788226  0.68370345  1  0.088497  0  0.11823  0.100632  0  1.010075  0
H  H33  1  0.18572259  0.18211422  0.18370665  1  0.088398  0  0.118224  0.100587  0  1.010101  0
H  H34  1  0.68572953  0.68210756  0.31630117  1  0.088618  0  0.118254  0.100654  0  1.010197  0
H  H35  1  0.81427158  0.81789271  0.81630252  1  0.088595  0  0.118249  0.100655  0  1.010273  0
H  H36  1  0.96075151  0.14913509  0.69077588  1  0.080093  0  0.108489  0.109007  0  1.019169  0
H  H37  1  0.53924368  0.35086304  0.19077002  1  0.08013  0  0.108514  0.109092  0  1.019049  0
H  H38  1  0.03924655  0.85086588  0.30922362  1  0.080058  0  0.108497  0.109063  0  1.019182  0
H  H39  1  0.46075297  0.64913869  0.80923119  1  0.080136  0  0.108508  0.109101  0  1.019097  0
H  H40  1  0.90079895  0.39469454  0.56121840  1  0.113298  0  0.109645  0.116285  0  0.997322  0
H  H41  1  0.59919528  0.10530976  0.06121457  1  0.113369  0  0.109626  0.116304  0  0.997286  0
H  H42  1  0.09920688  0.60531007  0.43877713  1  0.113456  0  0.10962  0.116282  0  0.997406  0
H  H43  1  0.40079972  0.89469716  0.93877755  1  0.113374  0  0.10963  0.116232  0  0.997343  0
H  H44  1  0.54787420  0.26386469  0.61613265  1  0.094431  0  0.106527  0.117256  0  1.013485  0
H  H45  1  0.95211841  0.23614322  0.11613354  1  0.094429  0  0.106491  0.117237  0  1.013637  0
H  H46  1  0.45213280  0.73614361  0.38386515  1  0.094406  0  0.10653  0.117249  0  1.013433  0
H  H47  1  0.04787283  0.76385707  0.88386597  1  0.094319  0  0.106513  0.117258  0  1.01352  0
H  H48  1  0.60765399  0.18256141  0.72998283  1  0.090658  0  0.110693  0.119084  0  0.974248  0
H  H49  1  0.89233672  0.31744484  0.22998209  1  0.090764  0  0.110716  0.119071  0  0.974302  0
H  H50  1  0.39235087  0.81745580  0.27001838  1  0.090568  0  0.11073  0.119042  0  0.97447  0
H  H51  1  0.10765418  0.68254657  0.77002139  1  0.090593  0  0.110778  0.119108  0  0.974433  0
H  H52  1  0.15491620  0.90365297  0.77119418  1  0.097208  0  0.094755  0.095892  0  1.061718  0
H  H53  1  0.34507416  0.59633693  0.27120402  1  0.097161  0  0.094802  0.095923  0  1.061732  0
H  H54  1  0.84508199  0.09633541  0.22879794  1  0.09709  0  0.09484  0.095986  0  1.06168  0
H  H55  1  0.65491095  0.40366489  0.72880288  1  0.097062  0  0.094841  0.096039  0  1.061597  0
H  H56  1  0.32507375  0.90869422  0.69015514  1  0.138247  0  0.099784  0.102791  0  1.060865  0
H  H57  1  0.17491751  0.59130100  0.19016364  1  0.138235  0  0.099816  0.102777  0  1.060887  0
H  H58  1  0.67491997  0.09129568  0.30983584  1  0.13796  0  0.09983  0.102846  0  1.060875  0
H  H59  1  0.82508102  0.40870663  0.80983587  1  0.138006  0  0.09985  0.10289  0  1.060866  0
H  H60  1  0.66225733  0.06619913  0.55923946  1  0.175496  0  0.122672  0.059376  0  1.044136  0
H  H61  1  0.83773817  0.43380146  0.05922056  1  0.175769  0  0.122707  0.059394  0  1.044262  0
H  H62  1  0.33774532  0.93379810  0.44076687  1  0.175508  0  0.122683  0.059383  0  1.04412  0
H  H63  1  0.16226683  0.56620316  0.94077042  1  0.17558  0  0.122646  0.0593  0  1.043919  0
H  H64  1  0.83430450  0.92576029  0.55486403  1  0.045938  0  0.10234  0.115892  0  0.991482  0
H  H65  1  0.66570080  0.57423523  0.05485889  1  0.045892  0  0.10233  0.115867  0  0.991479  0
H  H66  1  0.16570839  0.07423537  0.44513718  1  0.045783  0  0.102339  0.115875  0  0.991597  0
H  H67  1  0.33429185  0.42576430  0.94513778  1  0.045894  0  0.102323  0.115832  0  0.991556  0
H  H68  1  0.75108786  0.97495859  0.61970338  1  0.125941  0  0.119362  0.149167  0  0.974847  0
H  H69  1  0.74891830  0.52502200  0.11968852  1  0.125884  0  0.119235  0.149076  0  0.974896  0
H  H70  1  0.24892681  0.02502965  0.38030578  1  0.125415  0  0.1193  0.149215  0  0.974784  0
H  H71  1  0.25107588  0.47497975  0.88030871  1  0.12575  0  0.119269  0.149124  0  0.974901  0
H  H72  1  0.90379835  0.01341951  0.62459173  1  0.079256  0  0.100891  0.111674  0  1.019513  0
H  H73  1  0.59620790  0.48656605  0.12458238  1  0.079626  0  0.100836  0.111612  0  1.01971  0
H  H74  1  0.09621690  0.98657316  0.37540948  1  0.079471  0  0.100836  0.111656  0  1.019638  0
H  H75  1  0.40378300  0.51342536  0.87540974  1  0.079432  0  0.100831  0.111632  0  1.019711  0
H  H76  1  0.92029999  0.17316165  0.45360242  1  0.107847  0  0.117743  0.144504  0  0.978793  0
H  H77  1  0.57968020  0.32683835  0.95358333  1  0.1077  0  0.117642  0.144404  0  0.978737  0
H  H78  1  0.07969372  0.82683861  0.54640675  1  0.107777  0  0.117679  0.144431  0  0.97884  0
H  H79  1  0.42032375  0.67316035  0.04640935  1  0.107582  0  0.117641  0.144353  0  0.978762  0
H  H80  1  0.93972919  0.05176353  0.44548850  1  0.063664  0  0.103246  0.113336  0  1.003527  0
H  H81  1  0.56026034  0.44824011  0.94547641  1  0.063663  0  0.1033  0.113437  0  1.003321  0
H  H82  1  0.06027076  0.94823816  0.55451385  1  0.06367  0  0.103234  0.113328  0  1.003526  0
H  H83  1  0.43974349  0.55176081  0.05451514  1  0.06352  0  0.103218  0.113312  0  1.003481  0
H  H84  1  0.00747201  0.13090019  0.52156389  1  0.049512  0  0.101589  0.109018  0  1.005466  0
H  H85  1  0.49252303  0.36910399  0.02155212  1  0.049368  0  0.101663  0.109061  0  1.005411  0
H  H86  1  0.99253264  0.86910072  0.47843789  1  0.049477  0  0.101594  0.109072  0  1.005437  0
H  H87  1  0.50748185  0.63089766  0.97844000  1  0.049315  0  0.101587  0.108978  0  1.005475  0
C  C88  1  0.42638655  0.05616976  0.58860841  1  1.573637  0  0.210987  0.595762  0  4.203989  0
C  C89  1  0.07361171  0.44383205  0.08860645  1  1.573732  0  0.211027  0.59583  0  4.203831  0
C  C90  1  0.57361093  0.94382677  0.41138883  1  1.573202  0  0.211092  0.595952  0  4.2039  0
C  C91  1  0.92639458  0.55617403  0.91138794  1  1.573528  0  0.211121  0.595987  0  4.203946  0
C  C92  1  0.32803947  0.05087513  0.64213134  1  -0.022292  0  -0.023284  -0.035685  0  3.98399  0
C  C93  1  0.17196410  0.44912876  0.14212641  1  -0.02247  0  -0.023169  -0.035517  0  3.983783  0
C  C94  1  0.67196178  0.94911767  0.35786874  1  -0.021685  0  -0.02332  -0.035674  0  3.98399  0
C  C95  1  0.82803759  0.55088106  0.85787082  1  -0.021559  0  -0.023329  -0.035726  0  3.984118  0
C  C96  1  0.27701775  0.12918284  0.64333307  1  -0.082183  0  -0.088567  -0.150486  0  3.961424  0
C  C97  1  0.22298524  0.37082179  0.14332800  1  -0.081618  0  -0.088585  -0.150579  0  3.961522  0
C  C98  1  0.72298338  0.87081218  0.35666701  1  -0.082338  0  -0.088449  -0.150433  0  3.96141  0
C  C99  1  0.77701646  0.62918803  0.85667037  1  -0.08219  0  -0.08846  -0.150449  0  3.961357  0
C  C100  1  0.18602074  0.13069561  0.69222213  1  0.035432  0  -0.009748  0.034333  0  4.004383  0
C  C101  1  0.31398083  0.36930302  0.19221863  1  0.035175  0  -0.009825  0.034348  0  4.004465  0
C  C102  1  0.81397734  0.86929499  0.30777795  1  0.034975  0  -0.009753  0.034387  0  4.004278  0
C  C103  1  0.68601570  0.63070092  0.80778372  1  0.034532  0  -0.009762  0.034509  0  4.004297  0
C  C104  1  0.14146533  0.04731109  0.73852112  1  -0.048992  0  -0.010294  -0.057437  0  3.934854  0
C  C105  1  0.35852997  0.45268455  0.23852102  1  -0.048991  0  -0.010302  -0.057413  0  3.934945  0
C  C106  1  0.85853322  0.95268099  0.26148009  1  -0.048271  0  -0.010409  -0.057576  0  3.934982  0
C  C107  1  0.64146197  0.54731795  0.76148758  1  -0.04796  0  -0.010437  -0.057576  0  3.935298  0
C  C108  1  0.04316094  0.03878359  0.79220716  1  1.560596  0  0.197502  0.572691  0  4.230905  0
C  C109  1  0.45683086  0.46120458  0.29221147  1  1.558769  0  0.197495  0.572813  0  4.231173  0
C  C110  1  0.95684642  0.96121804  0.20779633  1  1.560068  0  0.197635  0.572851  0  4.230765  0
C  C111  1  0.54315381  0.53878540  0.70779826  1  1.559157  0  0.197578  0.572811  0  4.23101  0
C  C112  1  0.82000209  0.20783788  0.78509823  1  1.600214  0  0.212682  0.596842  0  4.229504  0
C  C113  1  0.67999653  0.29217339  0.28509715  1  1.623157  0  0.212687  0.596805  0  4.22965  0
C  C114  1  0.18001945  0.79219549  0.21490298  1  1.623098  0  0.212714  0.596755  0  4.229665  0
C  C115  1  0.31997651  0.70779298  0.71490747  1  1.622279  0  0.212799  0.596807  0  4.229528  0
C  C116  1  0.78751947  0.24457661  0.71017865  1  -0.022414  0  -0.004377  -0.056285  0  3.903437  0
C  C117  1  0.71247200  0.25542744  0.21017668  1  -0.045403  0  -0.004417  -0.05641  0  3.903512  0
C  C118  1  0.21248223  0.75543322  0.28982199  1  -0.045405  0  -0.004386  -0.056339  0  3.903467  0
C  C119  1  0.28752159  0.74456986  0.78982396  1  -0.045453  0  -0.00443  -0.056297  0  3.90338  0
C  C120  1  0.87235745  0.30234294  0.66156456  1  0.03388  0  -0.001325  0.045598  0  3.982138  0
C  C121  1  0.62763699  0.19765895  0.16156177  1  0.032638  0  -0.001263  0.045737  0  3.982126  0
C  C122  1  0.12764966  0.69766314  0.33843268  1  0.034364  0  -0.001241  0.045736  0  3.982433  0
C  C123  1  0.37235260  0.80234135  0.83843263  1  0.034504  0  -0.001193  0.045793  0  3.982347  0
C  C124  1  0.99477857  0.30574748  0.67065869  1  0.087679  0  0.002849  0.044368  0  3.998782  0
C  C125  1  0.50521726  0.19425068  0.17065591  1  0.088614  0  0.002843  0.044373  0  3.998807  0
C  C126  1  0.00522868  0.69425119  0.32934082  1  0.088074  0  0.002886  0.044453  0  3.998779  0
C  C127  1  0.49477209  0.80575407  0.82934360  1  0.087761  0  0.002932  0.044381  0  3.998923  0
C  C128  1  0.08212622  0.39246617  0.65870636  1  0.489276  0  0.056951  0.054429  0  3.88097  0
C  C129  1  0.41786928  0.10753258  0.15870514  1  0.489237  0  0.057012  0.054545  0  3.880924  0
C  C130  1  0.91788126  0.60753324  0.34129257  1  0.488315  0  0.056902  0.05439  0  3.881199  0
C  C131  1  0.58212290  0.89247066  0.84129379  1  0.488222  0  0.056852  0.054372  0  3.881237  0
C  C132  1  0.22281147  0.31115631  0.67898071  1  0.503956  0  0.049512  0.044969  0  3.906279  0
C  C133  1  0.27718351  0.18884018  0.17898148  1  0.503971  0  0.049462  0.044976  0  3.906293  0
C  C134  1  0.77718931  0.68883501  0.32102107  1  0.504101  0  0.049482  0.044957  0  3.906598  0
C  C135  1  0.72281043  0.81116601  0.82102485  1  0.504136  0  0.049514  0.044893  0  3.90684  0
C  C136  1  0.14253029  0.21947871  0.68829784  1  0.046228  0  -0.003181  0.039153  0  4.012584  0
C  C137  1  0.35746465  0.28051999  0.18829533  1  0.046177  0  -0.003086  0.039237  0  4.012567  0
C  C138  1  0.85747096  0.78051409  0.31170280  1  0.046228  0  -0.003047  0.039417  0  4.012324  0
C  C139  1  0.64252810  0.71948769  0.81170815  1  0.04662  0  -0.003042  0.039356  0  4.012397  0
C  C140  1  0.02703916  0.21851490  0.68502078  1  -0.120953  0  -0.066554  -0.126878  0  3.898239  0
C  C141  1  0.47295410  0.28148382  0.18501711  1  -0.120647  0  -0.066597  -0.127017  0  3.898208  0
C  C142  1  0.97296255  0.78148456  0.31497702  1  -0.120844  0  -0.066703  -0.127215  0  3.898283  0
C  C143  1  0.52703619  0.71851870  0.81498183  1  -0.120545  0  -0.066725  -0.127183  0  3.898298  0
C  C144  1  0.83770221  0.35017250  0.60003740  1  -0.016488  0  -0.074634  -0.128387  0  3.92784  0
C  C145  1  0.66229425  0.14983245  0.10003489  1  -0.016142  0  -0.074684  -0.128601  0  3.927855  0
C  C146  1  0.16230302  0.64983285  0.39996097  1  -0.017475  0  -0.074664  -0.128463  0  3.92787  0
C  C147  1  0.33770086  0.85017225  0.89996064  1  -0.017061  0  -0.074648  -0.128272  0  3.927696  0
C  C148  1  0.72145458  0.33793992  0.58456531  1  -0.008779  0  -0.020055  -0.033308  0  4.012564  0
C  C149  1  0.77854056  0.16206655  0.08456388  1  -0.007166  0  -0.020072  -0.033115  0  4.012558  0
C  C150  1  0.27855512  0.66206910  0.41543078  1  -0.008143  0  -0.020024  -0.03322  0  4.012597  0
C  C151  1  0.22145055  0.83793596  0.91543108  1  -0.008502  0  -0.02007  -0.033376  0  4.012799  0
C  C152  1  0.68865925  0.38797502  0.51712221  1  1.517078  0  0.201969  0.57457  0  4.18853  0
C  C153  1  0.81134080  0.11203079  0.01712048  1  1.517009  0  0.201877  0.574357  0  4.188585  0
C  C154  1  0.31134140  0.61202371  0.48287560  1  1.517394  0  0.201948  0.574488  0  4.188551  0
C  C155  1  0.18865666  0.88797611  0.98287561  1  1.517168  0  0.201958  0.574494  0  4.188785  0
C  C156  1  0.63807444  0.27547016  0.62992650  1  -0.048269  0  -0.084029  -0.09762  0  3.970898  0
C  C157  1  0.86191842  0.22453551  0.12992359  1  -0.050069  0  -0.083926  -0.097624  0  3.971305  0
C  C158  1  0.36192738  0.72453745  0.37007300  1  -0.048428  0  -0.084041  -0.097695  0  3.971292  0
C  C159  1  0.13807800  0.77546548  0.87007478  1  -0.048191  0  -0.08401  -0.097605  0  3.971342  0
C  C160  1  0.67144410  0.22926190  0.69265503  1  -0.054962  0  -0.079368  -0.091244  0  3.958447  0
C  C161  1  0.82854827  0.27074291  0.19265242  1  -0.054923  0  -0.079365  -0.091158  0  3.958491  0
C  C162  1  0.32856489  0.77075008  0.30734504  1  -0.055008  0  -0.079356  -0.091112  0  3.958358  0
C  C163  1  0.17143909  0.72925297  0.80734709  1  -0.054971  0  -0.079448  -0.091351  0  3.958557  0
C  C164  1  0.19093466  0.96767169  0.73562801  1  -0.053257  0  -0.088662  -0.097697  0  3.970418  0
C  C165  1  0.30906137  0.53232415  0.23563273  1  -0.053335  0  -0.088669  -0.097712  0  3.970675  0
C  C166  1  0.80906388  0.03232039  0.26436979  1  -0.053245  0  -0.088701  -0.097721  0  3.970631  0
C  C167  1  0.69093186  0.46767982  0.76437473  1  -0.053404  0  -0.088676  -0.09783  0  3.970676  0
C  C168  1  0.28533538  0.96984381  0.68985946  1  -0.056537  0  -0.082764  -0.080904  0  3.948582  0
C  C169  1  0.21466470  0.53015578  0.18986091  1  -0.056388  0  -0.082841  -0.080985  0  3.948637  0
C  C170  1  0.71466128  0.03014754  0.31013664  1  -0.056263  0  -0.082866  -0.081108  0  3.948924  0
C  C171  1  0.78533677  0.46985331  0.81013974  1  -0.056438  0  -0.082899  -0.081121  0  3.949019  0
C  C172  1  0.73521727  0.10246381  0.52246919  1  1.30322  0  0.171151  0.294796  0  4.079584  0
C  C173  1  0.76478084  0.39753311  0.02245176  1  1.303354  0  0.171076  0.294728  0  4.080084  0
C  C174  1  0.26478751  0.89752451  0.47754281  1  1.303725  0  0.171068  0.294682  0  4.080511  0
C  C175  1  0.23522390  0.60248632  0.97755514  1  1.303171  0  0.171181  0.294865  0  4.080417  0
C  C176  1  0.82991710  0.99258624  0.58604059  1  0.225715  0  -0.127728  -0.274149  0  3.900037  0
C  C177  1  0.67008626  0.50740480  0.08602939  1  0.22451  0  -0.127575  -0.273964  0  3.900137  0
C  C178  1  0.17009332  0.00740944  0.41396459  1  0.226131  0  -0.127685  -0.274229  0  3.900136  0
C  C179  1  0.32991427  0.49259615  0.91396443  1  0.225237  0  -0.127646  -0.274041  0  3.900391  0
C  C180  1  0.93054293  0.10926036  0.48569982  1  0.238974  0  -0.129785  -0.2677  0  3.896832  0
C  C181  1  0.56945062  0.39074169  0.98568564  1  0.239273  0  -0.129855  -0.267775  0  3.896436  0
C  C182  1  0.06945879  0.89073910  0.51430594  1  0.238915  0  -0.129756  -0.267749  0  3.896767  0
C  C183  1  0.43055344  0.60925997  0.01430875  1  0.239192  0  -0.129806  -0.267633  0  3.896631  0
N  N184  1  0.19338567  0.39431721  0.66315864  1  -1.242183  0  -0.325596  -0.217047  0  3.532313  0
N  N185  1  0.30660893  0.10567857  0.16316089  1  -1.242236  0  -0.32563  -0.217135  0  3.532408  0
N  N186  1  0.80662170  0.60567405  0.33684143  1  -1.242279  0  -0.325586  -0.217096  0  3.532711  0
N  N187  1  0.69338254  0.89432764  0.83684316  1  -1.242407  0  -0.325588  -0.216982  0  3.532648  0
N  N188  1  0.83004538  0.07231832  0.53318067  1  -1.19453  0  -0.281742  0.027427  0  3.7219  0
N  N189  1  0.66995213  0.42767637  0.03316158  1  -1.193588  0  -0.281656  0.02741  0  3.72186  0
N  N190  1  0.16995987  0.92767666  0.46682736  1  -1.194417  0  -0.281738  0.027439  0  3.721837  0
N  N191  1  0.33005358  0.57232528  0.96682940  1  -1.193532  0  -0.281726  0.027232  0  3.721667  0
O  O192  1  0.44321206  0.12754853  0.54093921  1  -1.168532  0  -0.334264  -0.591594  0  2.341224  0
O  O193  1  0.05678705  0.37244966  0.04093849  1  -1.168623  0  -0.334254  -0.591644  0  2.341175  0
O  O194  1  0.55680024  0.87244788  0.45906769  1  -1.1681  0  -0.334385  -0.591831  0  2.341036  0
O  O195  1  0.94321195  0.62755426  0.95906272  1  -1.168454  0  -0.334325  -0.591765  0  2.341034  0
O  O196  1  0.48592784  0.99462085  0.59421301  1  -1.184323  0  -0.332772  -0.586792  0  2.266484  0
O  O197  1  0.01406408  0.50537158  0.09421303  1  -1.18446  0  -0.332846  -0.586824  0  2.266445  0
O  O198  1  0.51406367  0.00535944  0.40578195  1  -1.184243  0  -0.332773  -0.586782  0  2.266782  0
O  O199  1  0.98593739  0.49463751  0.90578250  1  -1.184353  0  -0.33285  -0.586827  0  2.266821  0
O  O200  1  0.04807121  0.10398348  0.84398330  1  -1.192359  0  -0.325379  -0.587092  0  2.249488  0
O  O201  1  0.45191012  0.39600394  0.34398946  1  -1.191257  0  -0.325409  -0.587212  0  2.24961  0
O  O202  1  0.95193427  0.89601743  0.15601393  1  -1.1923  0  -0.325505  -0.58725  0  2.249309  0
O  O203  1  0.54807583  0.60399269  0.65601743  1  -1.191503  0  -0.325487  -0.587304  0  2.249264  0
O  O204  1  0.95726969  0.96451529  0.78509077  1  -1.145175  0  -0.32337  -0.542519  0  2.156092  0
O  O205  1  0.54272916  0.53546580  0.28509482  1  -1.144542  0  -0.323327  -0.542518  0  2.156291  0
O  O206  1  0.04272992  0.03547233  0.21492010  1  -1.145213  0  -0.323347  -0.542494  0  2.156334  0
O  O207  1  0.45726655  0.46453297  0.71491719  1  -1.1451  0  -0.323299  -0.542411  0  2.156495  0
O  O208  1  0.76996508  0.12028772  0.80476748  1  -1.172325  0  -0.329907  -0.561252  0  2.254719  0
O  O209  1  0.73002845  0.37970947  0.30476527  1  -1.172472  0  -0.329837  -0.561072  0  2.255248  0
O  O210  1  0.23004499  0.87970944  0.19523202  1  -1.172928  0  -0.329818  -0.560878  0  2.256015  0
O  O211  1  0.26996386  0.62028118  0.69524958  1  -1.173119  0  -0.329737  -0.560801  0  2.256339  0
O  O212  1  0.89503009  0.27160332  0.82194486  1  -1.181829  0  -0.326869  -0.574554  0  2.347143  0
O  O213  1  0.60496524  0.22839902  0.32194757  1  -1.181803  0  -0.326967  -0.574679  0  2.34665  0
O  O214  1  0.10495960  0.72841032  0.17805066  1  -1.181248  0  -0.327031  -0.574888  0  2.345878  0
O  O215  1  0.39502932  0.77158569  0.67804284  1  -1.180233  0  -0.32713  -0.574965  0  2.34549  0
O  O216  1  0.59003469  0.35007486  0.48551687  1  -1.18664  0  -0.332702  -0.627465  0  2.329003  0
O  O217  1  0.90996343  0.14993382  0.98551568  1  -1.186669  0  -0.332498  -0.627186  0  2.329045  0
O  O218  1  0.40997677  0.64993192  0.51448093  1  -1.186715  0  -0.332613  -0.627382  0  2.328677  0
O  O219  1  0.09002875  0.85006424  0.01448156  1  -1.186704  0  -0.332582  -0.627366  0  2.328804  0
O  O220  1  0.75769250  0.46539653  0.49143363  1  -1.146174  0  -0.321701  -0.528493  0  2.154528  0
O  O221  1  0.74230804  0.03460397  0.99143480  1  -1.146104  0  -0.321786  -0.528558  0  2.154539  0
O  O222  1  0.24232449  0.53461465  0.50856303  1  -1.146376  0  -0.321717  -0.528395  0  2.155104  0
O  O223  1  0.25766990  0.96539347  0.00855960  1  -1.146365  0  -0.321777  -0.528464  0  2.155122  0
O  O224  1  0.88887101  0.89275917  0.97163976  1  -1.227174  0  -0.58257  -0.760217  0  1.992048  0
O  O225  1  0.61112917  0.60724379  0.47163769  1  -1.227268  0  -0.582607  -0.760215  0  1.992066  0
O  O226  1  0.11112915  0.10725363  0.02836031  1  -1.227173  0  -0.582589  -0.760197  0  1.991879  0
O  O227  1  0.38887782  0.39276451  0.52836238  1  -1.227156  0  -0.582575  -0.760267  0  1.991953  0
O  O228  1  0.72788974  0.16613282  0.47364461  1  -1.149062  0  -0.311422  -0.482758  0  2.341085  0
O  O229  1  0.77211229  0.33386252  0.97362867  1  -1.149377  0  -0.311376  -0.482654  0  2.341188  0
O  O230  1  0.27211868  0.83386436  0.52635604  1  -1.14949  0  -0.311315  -0.48257  0  2.342  0
O  O231  1  0.22789108  0.66612656  0.02635947  1  -1.14925  0  -0.311351  -0.482498  0  2.342498  0
O  O232  1  0.37510170  0.21310288  0.40097984  1  -1.231871  0  -0.576312  -0.744718  0  2.023147  0
O  O233  1  0.12490168  0.28688721  0.90097754  1  -1.231694  0  -0.576341  -0.744554  0  2.023343  0
O  O234  1  0.62489720  0.78688771  0.59902365  1  -1.231738  0  -0.576348  -0.744645  0  2.023207  0
O  O235  1  0.87510215  0.71311371  0.09902480  1  -1.231747  0  -0.576362  -0.744621  0  2.023221  0
