# generated using pymatgen
data_Ag2H3C7NO4
_symmetry_space_group_name_H-M   'P 1'
_cell_length_a   6.71349255
_cell_length_b   10.22311240
_cell_length_c   10.96492618
_cell_angle_alpha   90.00010503
_cell_angle_beta   89.99960083
_cell_angle_gamma   98.53458186
_symmetry_Int_Tables_number   1
_chemical_formula_structural   Ag2H3C7NO4
_chemical_formula_sum   'Ag8 H12 C28 N4 O16'
_cell_volume   744.22004040
_cell_formula_units_Z   4
loop_
 _symmetry_equiv_pos_site_id
 _symmetry_equiv_pos_as_xyz
  1  'x, y, z'
loop_
 _atom_site_type_symbol
 _atom_site_label
 _atom_site_symmetry_multiplicity
 _atom_site_fract_x
 _atom_site_fract_y
 _atom_site_fract_z
 _atom_site_occupancy
 _atom_site_hle17_bader_spin_density
 _atom_site_hle17_ddec_charge
 _atom_site_hle17_ddec_spin_density
 _atom_site_hle17_ddec_sum_bond_order
 _atom_site_hle17_magmom
 _atom_site_hse06_10hf_bader_spin_density
 _atom_site_hse06_10hf_ddec_charge
 _atom_site_hse06_10hf_ddec_spin_density
 _atom_site_hse06_10hf_ddec_sum_bond_order
 _atom_site_hse06_10hf_magmom
 _atom_site_hse06_bader_spin_density
 _atom_site_hse06_ddec_charge
 _atom_site_hse06_ddec_spin_density
 _atom_site_hse06_ddec_sum_bond_order
 _atom_site_hse06_magmom
 _atom_site_pbe_bader_spin_density
 _atom_site_pbe_cm5_charge
 _atom_site_pbe_ddec_charge
 _atom_site_pbe_ddec_spin_density
 _atom_site_pbe_ddec_sum_bond_order
 _atom_site_pbe_magmom
Ag  Ag0  1  0.26520032  0.38057061  0.04971828  1  0  0.566278  0  1.424797  0  0  0.424687  0  1.890433  0  0  0.459295  0  1.832929  0  0  0.445413  0.403175  0  1.929343  0
Ag  Ag1  1  0.23479961  0.61942707  0.54971918  1  0  0.566279  0  1.424842  0  0  0.424716  0  1.890441  0  0  0.459323  0  1.832936  0  0  0.445425  0.403207  0  1.929347  0
Ag  Ag2  1  0.73478945  0.61942958  0.95028442  1  0  0.566317  0  1.424773  0  0  0.424716  0  1.890431  0  0  0.45932  0  1.832925  0  0  0.445425  0.403205  0  1.929338  0
Ag  Ag3  1  0.76520143  0.38056942  0.45028261  1  0  0.566309  0  1.424815  0  0  0.42474  0  1.890459  0  0  0.459348  0  1.832953  0  0  0.445428  0.403223  0  1.929361  0
Ag  Ag4  1  0.94275874  0.33761689  0.69051090  1  0  0.64298  0  1.298588  0  0  0.52457  0  1.755925  0  0  0.562955  0  1.689328  0  0  0.418662  0.494987  0  1.804098  0
Ag  Ag5  1  0.55723856  0.66238490  0.19051410  1  0  0.642975  0  1.298659  0  0  0.524578  0  1.755989  0  0  0.562958  0  1.689393  0  0  0.418675  0.494998  0  1.804172  0
Ag  Ag6  1  0.05724133  0.66238253  0.30948906  1  0  0.642978  0  1.298593  0  0  0.524564  0  1.755922  0  0  0.562949  0  1.689327  0  0  0.418668  0.494983  0  1.804106  0
Ag  Ag7  1  0.44275552  0.33761439  0.80948860  1  0  0.642986  0  1.298618  0  0  0.52458  0  1.755952  0  0  0.562963  0  1.689359  0  0  0.418673  0.494997  0  1.804133  0
H  H8  1  0.35909702  0.98522390  0.44899624  1  0  0.09747  0  0.955056  0  0  0.110353  0  1.01581  0  0  0.112689  0  1.014329  0  0  0.109155  0.10833  0  1.017728  0
H  H9  1  0.14090611  0.01477529  0.94899926  1  0  0.097478  0  0.954988  0  0  0.110376  0  1.015735  0  0  0.112715  0  1.014249  0  0  0.109149  0.108354  0  1.017653  0
H  H10  1  0.64090904  0.01477565  0.55099916  1  0  0.097503  0  0.955007  0  0  0.110353  0  1.0158  0  0  0.112715  0  1.014286  0  0  0.109186  0.10833  0  1.017718  0
H  H11  1  0.85909369  0.98523102  0.05100344  1  0  0.097556  0  0.955025  0  0  0.110421  0  1.015772  0  0  0.11277  0  1.014274  0  0  0.109166  0.108401  0  1.017691  0
H  H12  1  0.39926103  0.92713540  0.23037083  1  0  0.11351  0  0.982325  0  0  0.121345  0  1.045998  0  0  0.125063  0  1.043971  0  0  0.105605  0.118525  0  1.04789  0
H  H13  1  0.10074287  0.07286257  0.73037321  1  0  0.113531  0  0.982169  0  0  0.12136  0  1.045899  0  0  0.125078  0  1.043874  0  0  0.105602  0.118538  0  1.04779  0
H  H14  1  0.60074221  0.07286508  0.76962366  1  0  0.113506  0  0.982325  0  0  0.121333  0  1.04602  0  0  0.12505  0  1.043995  0  0  0.105615  0.118513  0  1.04791  0
H  H15  1  0.89926486  0.92713800  0.26962311  1  0  0.11355  0  0.982309  0  0  0.121353  0  1.046048  0  0  0.125071  0  1.044024  0  0  0.105611  0.118532  0  1.04794  0
H  H16  1  0.37443695  0.09993122  0.07146534  1  0  0.085222  0  0.96262  0  0  0.093678  0  1.028514  0  0  0.096403  0  1.025906  0  0  0.113173  0.091201  0  1.031521  0
H  H17  1  0.12556705  0.90006558  0.57146625  1  0  0.085198  0  0.962648  0  0  0.093646  0  1.028554  0  0  0.09637  0  1.025948  0  0  0.113166  0.091169  0  1.031559  0
H  H18  1  0.62556083  0.90007209  0.92853280  1  0  0.085197  0  0.962701  0  0  0.093664  0  1.028585  0  0  0.096386  0  1.025982  0  0  0.113183  0.091187  0  1.03159  0
H  H19  1  0.87444499  0.09993410  0.42853371  1  0  0.085202  0  0.962723  0  0  0.093665  0  1.028612  0  0  0.096386  0  1.026012  0  0  0.113178  0.091188  0  1.031616  0
C  C20  1  0.29397063  0.27514319  0.31286445  1  0  0.084365  0  3.689859  0  0  0.080039  0  3.926464  0  0  0.081501  0  3.946005  0  0  0.111388  0.078655  0  3.913866  0
C  C21  1  0.20602451  0.72485272  0.81286656  1  0  0.084385  0  3.689856  0  0  0.080075  0  3.926473  0  0  0.081538  0  3.946018  0  0  0.111359  0.078689  0  3.913874  0
C  C22  1  0.70602926  0.72485525  0.68713642  1  0  0.084367  0  3.689764  0  0  0.080058  0  3.926321  0  0  0.081518  0  3.945862  0  0  0.111414  0.078674  0  3.913723  0
C  C23  1  0.79397406  0.27514667  0.18713432  1  0  0.084462  0  3.689788  0  0  0.08016  0  3.926337  0  0  0.081625  0  3.945882  0  0  0.111433  0.078768  0  3.913732  0
C  C24  1  0.31039342  0.18530238  0.40839166  1  0  -0.091316  0  3.690728  0  0  -0.071827  0  3.925163  0  0  -0.078659  0  3.943411  0  0  -0.000589  -0.067609  0  3.913473  0
C  C25  1  0.18960664  0.81469374  0.90839308  1  0  -0.091311  0  3.690723  0  0  -0.071841  0  3.925127  0  0  -0.078683  0  3.943394  0  0  -0.000575  -0.067622  0  3.91344  0
C  C26  1  0.68960964  0.81469711  0.59160921  1  0  -0.091268  0  3.690653  0  0  -0.071794  0  3.925086  0  0  -0.078626  0  3.94334  0  0  -0.000563  -0.067578  0  3.913399  0
C  C27  1  0.81039396  0.18530865  0.09160871  1  0  -0.091336  0  3.690706  0  0  -0.071878  0  3.925113  0  0  -0.078726  0  3.943391  0  0  -0.000596  -0.067657  0  3.913429  0
C  C28  1  0.34703235  0.05822576  0.37818699  1  0  -0.027083  0  3.683056  0  0  -0.053441  0  3.928876  0  0  -0.051284  0  3.946638  0  0  -0.066787  -0.054977  0  3.917664  0
C  C29  1  0.15296620  0.94176832  0.87818786  1  0  -0.027086  0  3.683004  0  0  -0.053454  0  3.928892  0  0  -0.051295  0  3.946655  0  0  -0.066704  -0.054984  0  3.91766  0
C  C30  1  0.65296455  0.94177261  0.62181389  1  0  -0.027169  0  3.68313  0  0  -0.05351  0  3.928991  0  0  -0.051371  0  3.946744  0  0  -0.066863  -0.055042  0  3.917762  0
C  C31  1  0.84703836  0.05823119  0.12180846  1  0  -0.027182  0  3.682975  0  0  -0.053533  0  3.928827  0  0  -0.051378  0  3.946583  0  0  -0.066763  -0.055057  0  3.91758  0
C  C32  1  0.36841970  0.02468646  0.25689198  1  0  -0.084378  0  3.704699  0  0  -0.096105  0  3.95215  0  0  -0.101025  0  3.972977  0  0  -0.077095  -0.092827  0  3.938183  0
C  C33  1  0.13158487  0.97530860  0.75689300  1  0  -0.084316  0  3.704692  0  0  -0.096099  0  3.952211  0  0  -0.101021  0  3.97304  0  0  -0.07711  -0.092819  0  3.93824  0
C  C34  1  0.63158503  0.97531405  0.74310798  1  0  -0.084358  0  3.704743  0  0  -0.096076  0  3.952186  0  0  -0.100998  0  3.973021  0  0  -0.077083  -0.092797  0  3.938216  0
C  C35  1  0.86841582  0.02468591  0.24310605  1  0  -0.084321  0  3.704616  0  0  -0.096043  0  3.952043  0  0  -0.100964  0  3.972871  0  0  -0.077082  -0.092762  0  3.938078  0
C  C36  1  0.35087232  0.11911675  0.16764207  1  0  0.115304  0  3.68701  0  0  0.081315  0  3.938592  0  0  0.087335  0  3.958259  0  0  0.040916  0.077037  0  3.925702  0
C  C37  1  0.14913342  0.88087921  0.66764285  1  0  0.115274  0  3.687465  0  0  0.081336  0  3.939049  0  0  0.087356  0  3.95872  0  0  0.040923  0.077057  0  3.926155  0
C  C38  1  0.64912942  0.88088369  0.83235790  1  0  0.115358  0  3.687167  0  0  0.081345  0  3.938776  0  0  0.087365  0  3.958445  0  0  0.040937  0.077065  0  3.925885  0
C  C39  1  0.85086630  0.11911823  0.33236258  1  0  0.115296  0  3.687076  0  0  0.081318  0  3.938677  0  0  0.087339  0  3.958346  0  0  0.040919  0.07703  0  3.92578  0
C  C40  1  0.25283167  0.41266991  0.34163184  1  0  0.606067  0  3.935573  0  0  0.54685  0  4.223217  0  0  0.582488  0  4.219276  0  0  0.201735  0.522456  0  4.225229  0
C  C41  1  0.24715568  0.58732587  0.84162898  1  0  0.60607  0  3.935312  0  0  0.546843  0  4.222978  0  0  0.582478  0  4.219035  0  0  0.201728  0.522451  0  4.224991  0
C  C42  1  0.74716092  0.58732936  0.65836813  1  0  0.606023  0  3.935537  0  0  0.546839  0  4.223131  0  0  0.582476  0  4.219191  0  0  0.201697  0.522445  0  4.225144  0
C  C43  1  0.75283894  0.41267639  0.15836825  1  0  0.60607  0  3.935552  0  0  0.546918  0  4.223076  0  0  0.582553  0  4.21913  0  0  0.201751  0.522524  0  4.225092  0
C  C44  1  0.27992300  0.21823183  0.54094532  1  0  0.686828  0  3.917043  0  0  0.629288  0  4.211086  0  0  0.66685  0  4.202999  0  0  0.207655  0.603621  0  4.215005  0
C  C45  1  0.22007703  0.78176583  0.04094620  1  0  0.686797  0  3.917172  0  0  0.629382  0  4.21101  0  0  0.666945  0  4.202922  0  0  0.207701  0.603717  0  4.214932  0
C  C46  1  0.72007557  0.78176756  0.45905465  1  0  0.68687  0  3.916892  0  0  0.629345  0  4.210912  0  0  0.666908  0  4.202827  0  0  0.20766  0.603681  0  4.214831  0
C  C47  1  0.77992190  0.21823554  0.95905468  1  0  0.686829  0  3.917137  0  0  0.629389  0  4.211019  0  0  0.666955  0  4.202933  0  0  0.207691  0.603721  0  4.214941  0
N  N48  1  0.31231312  0.24123412  0.19469396  1  0  -0.304987  0  3.332509  0  0  -0.221199  0  3.602222  0  0  -0.240938  0  3.62269  0  0  -0.336974  -0.207863  0  3.588394  0
N  N49  1  0.18768651  0.75876273  0.69469438  1  0  -0.304988  0  3.332737  0  0  -0.221241  0  3.60247  0  0  -0.24098  0  3.622935  0  0  -0.336979  -0.207905  0  3.588643  0
N  N50  1  0.68768281  0.75876719  0.80530874  1  0  -0.305021  0  3.332425  0  0  -0.221242  0  3.602162  0  0  -0.240973  0  3.622612  0  0  -0.337012  -0.207907  0  3.588339  0
N  N51  1  0.81231858  0.24123975  0.30530650  1  0  -0.305101  0  3.332544  0  0  -0.221386  0  3.602341  0  0  -0.241123  0  3.622802  0  0  -0.337062  -0.208024  0  3.588488  0
O  O52  1  0.18539896  0.48005962  0.25752659  1  0  -0.624385  0  2.201516  0  0  -0.537061  0  2.492417  0  0  -0.571712  0  2.478939  0  0  -0.318617  -0.512565  0  2.50116  0
O  O53  1  0.31459329  0.51993321  0.75752515  1  0  -0.624495  0  2.201364  0  0  -0.537141  0  2.492227  0  0  -0.571789  0  2.478743  0  0  -0.318677  -0.512646  0  2.500971  0
O  O54  1  0.81459962  0.51993977  0.74247428  1  0  -0.624349  0  2.201404  0  0  -0.537047  0  2.492305  0  0  -0.571701  0  2.478829  0  0  -0.31857  -0.512551  0  2.501045  0
O  O55  1  0.68540159  0.48006217  0.24247390  1  0  -0.624455  0  2.201443  0  0  -0.53716  0  2.492324  0  0  -0.57181  0  2.478844  0  0  -0.318641  -0.512666  0  2.50107  0
O  O56  1  0.28743424  0.44798230  0.45103517  1  0  -0.572644  0  2.22177  0  0  -0.484035  0  2.498371  0  0  -0.517067  0  2.487819  0  0  -0.300467  -0.46134  0  2.504569  0
O  O57  1  0.21255953  0.55201472  0.95103149  1  0  -0.572591  0  2.221709  0  0  -0.483988  0  2.498328  0  0  -0.517011  0  2.487773  0  0  -0.300428  -0.461296  0  2.504527  0
O  O58  1  0.71256283  0.55201706  0.54896570  1  0  -0.57262  0  2.221739  0  0  -0.484031  0  2.49833  0  0  -0.517057  0  2.487774  0  0  -0.300476  -0.461339  0  2.50453  0
O  O59  1  0.78742892  0.44798643  0.04896574  1  0  -0.572639  0  2.221907  0  0  -0.484049  0  2.49848  0  0  -0.517069  0  2.487917  0  0  -0.300481  -0.461354  0  2.504679  0
O  O60  1  0.43491801  0.23882028  0.60727650  1  0  -0.635298  0  2.011304  0  0  -0.568597  0  2.28831  0  0  -0.599937  0  2.273182  0  0  -0.318416  -0.546002  0  2.297836  0
O  O61  1  0.06508594  0.76117854  0.10727983  1  0  -0.635296  0  2.011369  0  0  -0.568631  0  2.288302  0  0  -0.599971  0  2.273176  0  0  -0.318452  -0.546038  0  2.297835  0
O  O62  1  0.56508487  0.76117822  0.39272255  1  0  -0.635316  0  2.011295  0  0  -0.568628  0  2.288305  0  0  -0.599947  0  2.273128  0  0  -0.318433  -0.546034  0  2.297837  0
O  O63  1  0.93491334  0.23882481  0.89272013  1  0  -0.635306  0  2.011347  0  0  -0.568638  0  2.288306  0  0  -0.599968  0  2.273152  0  0  -0.318439  -0.546043  0  2.297837  0
O  O64  1  0.09557973  0.20891592  0.57380411  1  0  -0.657941  0  2.117298  0  0  -0.579855  0  2.396645  0  0  -0.613963  0  2.382874  0  0  -0.334779  -0.554802  0  2.405459  0
O  O65  1  0.40442389  0.79107890  0.07380148  1  0  -0.657951  0  2.117346  0  0  -0.579912  0  2.396636  0  0  -0.614019  0  2.382864  0  0  -0.334789  -0.554862  0  2.40546  0
O  O66  1  0.90442166  0.79108254  0.42619677  1  0  -0.657969  0  2.117214  0  0  -0.579882  0  2.396549  0  0  -0.613991  0  2.382777  0  0  -0.334781  -0.554833  0  2.405379  0
O  O67  1  0.59557618  0.20892052  0.92619939  1  0  -0.657915  0  2.1173  0  0  -0.579875  0  2.396611  0  0  -0.613981  0  2.382838  0  0  -0.334781  -0.554833  0  2.405457  0
