# generated using pymatgen
data_TbH3(C3O2)3
_symmetry_space_group_name_H-M   'P 1'
_cell_length_a   10.37580922
_cell_length_b   10.37581140
_cell_length_c   14.13106880
_cell_angle_alpha   89.99998698
_cell_angle_beta   89.99998399
_cell_angle_gamma   90.00121236
_symmetry_Int_Tables_number   1
_chemical_formula_structural   TbH3(C3O2)3
_chemical_formula_sum   'Tb4 H12 C36 O24'
_cell_volume   1521.31468520
_cell_formula_units_Z   4
loop_
 _symmetry_equiv_pos_site_id
 _symmetry_equiv_pos_as_xyz
  1  'x, y, z'
loop_
 _atom_site_type_symbol
 _atom_site_label
 _atom_site_symmetry_multiplicity
 _atom_site_fract_x
 _atom_site_fract_y
 _atom_site_fract_z
 _atom_site_occupancy
 _atom_site_pbe_bader_charge
 _atom_site_pbe_bader_spin_density
 _atom_site_pbe_cm5_charge
 _atom_site_pbe_ddec_charge
 _atom_site_pbe_ddec_spin_density
 _atom_site_pbe_ddec_sum_bond_order
 _atom_site_pbe_magmom
Tb  Tb0  1  0.87176188  0.87176074  0.37500191  1  2.198253  0  1.565672  2.140971  0  2.153974  0
Tb  Tb1  1  0.12823409  0.12823792  0.87499961  1  2.198266  0  1.56569  2.140993  0  2.15401  0
Tb  Tb2  1  0.12822561  0.87176825  0.62499865  1  2.19826  0  1.565691  2.140969  0  2.154029  0
Tb  Tb3  1  0.87177045  0.12822954  0.12499894  1  2.198229  0  1.565715  2.140965  0  2.15411  0
H  H4  1  0.92229824  0.46662284  0.35848018  1  0.119508  0  0.121032  0.130414  0  0.98357  0
H  H5  1  0.07770738  0.53337005  0.85848208  1  0.11932  0  0.121048  0.130415  0  0.983589  0
H  H6  1  0.53336082  0.92229678  0.60848534  1  0.119368  0  0.12108  0.13043  0  0.98358  0
H  H7  1  0.46664007  0.07770294  0.10848148  1  0.119267  0  0.121076  0.130442  0  0.983528  0
H  H8  1  0.07770286  0.46663313  0.64151619  1  0.119417  0  0.121043  0.130409  0  0.98363  0
H  H9  1  0.92230091  0.53336079  0.14151641  1  0.119318  0  0.121091  0.130443  0  0.983603  0
H  H10  1  0.46663257  0.92229997  0.39151804  1  0.119353  0  0.121094  0.130471  0  0.983555  0
H  H11  1  0.53336629  0.07771026  0.89151566  1  0.119428  0  0.121064  0.130416  0  0.983594  0
H  H12  1  0.00000683  0.10748934  0.50000110  1  0.061623  0  0.114645  0.092503  0  1.072905  0
H  H13  1  0.00000077  0.89250466  0.00000276  1  0.061727  0  0.114703  0.092604  0  1.072854  0
H  H14  1  0.89250471  0.00000064  0.74999979  1  0.061767  0  0.114675  0.092488  0  1.07291  0
H  H15  1  0.10749709  0.99999710  0.24999516  1  0.061757  0  0.114699  0.092565  0  1.072841  0
C  C16  1  0.95629116  0.41367119  0.42023630  1  -0.026459  0  -0.051984  -0.06564  0  3.866082  0
C  C17  1  0.95780383  0.27879982  0.41986762  1  -0.000201  0  -0.011818  -0.044712  0  3.965776  0
C  C18  1  0.91886537  0.20406696  0.33448202  1  1.577419  0  0.23858  0.661322  0  4.146183  0
C  C19  1  0.04371540  0.58632168  0.92023962  1  -0.026446  0  -0.051992  -0.065594  0  3.866017  0
C  C20  1  0.04221043  0.72119304  0.91987021  1  -7.6e-05  0  -0.011693  -0.044441  0  3.965605  0
C  C21  1  0.08114411  0.79592979  0.83448671  1  1.577393  0  0.238781  0.661505  0  4.145912  0
C  C22  1  0.58631414  0.95628696  0.67024146  1  -0.026594  0  -0.052112  -0.065681  0  3.866294  0
C  C23  1  0.72118364  0.95779381  0.66986567  1  0.000525  0  -0.011522  -0.044294  0  3.965504  0
C  C24  1  0.79591958  0.91885598  0.58448218  1  1.576409  0  0.238627  0.661361  0  4.14608  0
C  C25  1  0.41368479  0.04371274  0.17023902  1  -0.026546  0  -0.052086  -0.065676  0  3.866142  0
C  C26  1  0.27881530  0.04220588  0.16986327  1  0.000227  0  -0.011463  -0.044235  0  3.965406  0
C  C27  1  0.20407842  0.08114953  0.08448120  1  1.576404  0  0.23858  0.661276  0  4.14618  0
C  C28  1  0.04371363  0.41367693  0.57975937  1  -0.026471  0  -0.052013  -0.065647  0  3.866199  0
C  C29  1  0.04220774  0.27880649  0.58013444  1  0.000163  0  -0.011693  -0.044548  0  3.965821  0
C  C30  1  0.08114559  0.20407828  0.66552218  1  1.576352  0  0.238579  0.66135  0  4.146129  0
C  C31  1  0.95629112  0.58631702  0.07976098  1  -0.026536  0  -0.052055  -0.06563  0  3.866205  0
C  C32  1  0.95779893  0.72118649  0.08013603  1  0.000267  0  -0.011554  -0.044308  0  3.96568  0
C  C33  1  0.91885335  0.79592239  0.16551952  1  1.57645  0  0.238497  0.66118  0  4.146276  0
C  C34  1  0.41368092  0.95629001  0.32976121  1  -0.02651  0  -0.05204  -0.065615  0  3.866034  0
C  C35  1  0.27880953  0.95779401  0.33012921  1  0.00032  0  -0.011668  -0.04454  0  3.96564  0
C  C36  1  0.20407180  0.91885746  0.41551413  1  1.577088  0  0.23868  0.661453  0  4.145914  0
C  C37  1  0.58631699  0.04371734  0.82976095  1  -0.026615  0  -0.052039  -0.065611  0  3.866079  0
C  C38  1  0.72118742  0.04220949  0.83013317  1  0.000229  0  -0.011538  -0.044385  0  3.965679  0
C  C39  1  0.79592608  0.08114698  0.91551735  1  1.577371  0  0.238594  0.661353  0  4.146072  0
C  C40  1  0.00000210  0.48069389  0.49999895  1  0.013479  0  -0.008629  -0.042959  0  3.948589  0
C  C41  1  0.00000794  0.21223585  0.50000109  1  -0.02432  0  -0.060758  -0.076605  0  3.904619  0
C  C42  1  0.99999503  0.62507486  0.49999954  1  1.605218  0  0.248912  0.684483  0  4.114454  0
C  C43  1  0.99999960  0.51929799  0.99999994  1  0.013496  0  -0.008633  -0.043096  0  3.948624  0
C  C44  1  0.00000448  0.78775719  0.00000277  1  -0.02439  0  -0.060976  -0.076974  0  3.904605  0
C  C45  1  0.99999615  0.37492277  0.99999995  1  1.605189  0  0.248919  0.684502  0  4.114404  0
C  C46  1  0.51929620  0.99999945  0.74999976  1  0.013502  0  -0.008694  -0.043181  0  3.948852  0
C  C47  1  0.78775336  0.00000146  0.74999980  1  -0.02454  0  -0.061028  -0.076863  0  3.904557  0
C  C48  1  0.37491809  0.00000287  0.74999914  1  1.605104  0  0.249002  0.684552  0  4.114544  0
C  C49  1  0.48070270  0.00000119  0.25000015  1  0.013511  0  -0.008654  -0.043097  0  3.94852  0
C  C50  1  0.21224458  0.99999821  0.24999586  1  -0.024393  0  -0.061014  -0.076942  0  3.904404  0
C  C51  1  0.62508084  0.00000175  0.25000084  1  1.605025  0  0.248959  0.684492  0  4.114302  0
O  O52  1  0.91706331  0.68113611  0.44788246  1  -1.18879  0  -0.409083  -0.684946  0  2.26904  0
O  O53  1  0.90229766  0.08243196  0.34280766  1  -1.231917  0  -0.426536  -0.748398  0  2.420145  0
O  O54  1  0.73825843  0.90694402  0.50544287  1  -1.176604  0  -0.390155  -0.647267  0  2.183704  0
O  O55  1  0.08292396  0.31885770  0.94788298  1  -1.188728  0  -0.409054  -0.684922  0  2.26902  0
O  O56  1  0.09770988  0.91756575  0.84281232  1  -1.231549  0  -0.426652  -0.748498  0  2.419924  0
O  O57  1  0.26173864  0.09307693  0.00544117  1  -1.176336  0  -0.390189  -0.647314  0  2.183808  0
O  O58  1  0.31885025  0.91707081  0.69788483  1  -1.188596  0  -0.40912  -0.684931  0  2.269033  0
O  O59  1  0.91755522  0.90229278  0.59280425  1  -1.231716  0  -0.426648  -0.748633  0  2.420183  0
O  O60  1  0.09305198  0.73827372  0.75544456  1  -1.177024  0  -0.390268  -0.647443  0  2.183761  0
O  O61  1  0.68114868  0.08293370  0.19788658  1  -1.188629  0  -0.409133  -0.684951  0  2.269027  0
O  O62  1  0.08244182  0.09770406  0.09280471  1  -1.231353  0  -0.426584  -0.748466  0  2.420101  0
O  O63  1  0.90695560  0.26172691  0.25544199  1  -1.177136  0  -0.390223  -0.647322  0  2.183864  0
O  O64  1  0.08292208  0.68114077  0.55211954  1  -1.18845  0  -0.409018  -0.684876  0  2.269031  0
O  O65  1  0.09769626  0.08244074  0.65720363  1  -1.231677  0  -0.426542  -0.748406  0  2.420104  0
O  O66  1  0.26172789  0.90694766  0.49455556  1  -1.177078  0  -0.390214  -0.647392  0  2.183733  0
O  O67  1  0.91706533  0.31885608  0.05211625  1  -1.18856  0  -0.409144  -0.684979  0  2.269089  0
O  O68  1  0.90229015  0.91755704  0.15719318  1  -1.231376  0  -0.426564  -0.748427  0  2.420098  0
O  O69  1  0.73826707  0.09306639  0.99455667  1  -1.177156  0  -0.390122  -0.647312  0  2.183828  0
O  O70  1  0.68114303  0.91706796  0.30211572  1  -1.188561  0  -0.409118  -0.684972  0  2.269111  0
O  O71  1  0.08243485  0.90229265  0.40718710  1  -1.231478  0  -0.426618  -0.748486  0  2.419976  0
O  O72  1  0.90693269  0.73826314  0.24455955  1  -1.176352  0  -0.39014  -0.647289  0  2.183864  0
O  O73  1  0.31885490  0.08293747  0.80211197  1  -1.188672  0  -0.409088  -0.684921  0  2.269024  0
O  O74  1  0.91756303  0.09770215  0.90719313  1  -1.231795  0  -0.426656  -0.748533  0  2.420086  0
O  O75  1  0.09306814  0.26174135  0.74456007  1  -1.176375  0  -0.390204  -0.64737  0  2.183836  0
