# generated using pymatgen
data_H8PbC10N3ClO2
_symmetry_space_group_name_H-M   'P 1'
_cell_length_a   8.13802377
_cell_length_b   9.67795308
_cell_length_c   14.48672714
_cell_angle_alpha   90.00032105
_cell_angle_beta   93.47730210
_cell_angle_gamma   90.00044063
_symmetry_Int_Tables_number   1
_chemical_formula_structural   H8PbC10N3ClO2
_chemical_formula_sum   'H32 Pb4 C40 N12 Cl4 O8'
_cell_volume   1138.86548611
_cell_formula_units_Z   4
loop_
 _symmetry_equiv_pos_site_id
 _symmetry_equiv_pos_as_xyz
  1  'x, y, z'
loop_
 _atom_site_type_symbol
 _atom_site_label
 _atom_site_symmetry_multiplicity
 _atom_site_fract_x
 _atom_site_fract_y
 _atom_site_fract_z
 _atom_site_occupancy
 _atom_site_hle17_bader_spin_density
 _atom_site_hle17_ddec_charge
 _atom_site_hle17_ddec_spin_density
 _atom_site_hle17_ddec_sum_bond_order
 _atom_site_hle17_magmom
 _atom_site_hse06_10hf_bader_charge
 _atom_site_hse06_10hf_bader_spin_density
 _atom_site_hse06_10hf_ddec_charge
 _atom_site_hse06_10hf_ddec_spin_density
 _atom_site_hse06_10hf_ddec_sum_bond_order
 _atom_site_hse06_10hf_magmom
 _atom_site_hse06_bader_spin_density
 _atom_site_hse06_ddec_charge
 _atom_site_hse06_ddec_spin_density
 _atom_site_hse06_ddec_sum_bond_order
 _atom_site_hse06_magmom
 _atom_site_pbe_bader_spin_density
 _atom_site_pbe_cm5_charge
 _atom_site_pbe_ddec_charge
 _atom_site_pbe_ddec_spin_density
 _atom_site_pbe_ddec_sum_bond_order
 _atom_site_pbe_magmom
H  H0  1  0.76282591  0.98862803  0.54166730  1  0  0.121091  0  0.91831  0  0.130482  0  0.136308  0  0.977797  0  0  0.138358  0  0.976181  0  0  0.127617  0.134854  0  0.979047  0
H  H1  1  0.73717441  0.48862621  0.45833200  1  0  0.121075  0  0.918294  0  0.130516  0  0.136299  0  0.977785  0  0  0.138348  0  0.976169  0  0  0.127612  0.134843  0  0.979028  0
H  H2  1  0.23716888  0.01137078  0.45833308  1  0  0.12108  0  0.918362  0  0.130575  0  0.13631  0  0.97783  0  0  0.13836  0  0.976213  0  0  0.127643  0.134858  0  0.979073  0
H  H3  1  0.26282898  0.51136847  0.54166657  1  0  0.121107  0  0.918365  0  0.130531  0  0.136327  0  0.977845  0  0  0.138377  0  0.976229  0  0  0.127656  0.134873  0  0.979091  0
H  H4  1  0.87970943  0.14109372  0.51910591  1  0  0.126768  0  0.9455  0  0.151127  0  0.136697  0  1.011106  0  0  0.139433  0  1.009476  0  0  0.119395  0.134692  0  1.012384  0
H  H5  1  0.62029003  0.64108792  0.48089481  1  0  0.126768  0  0.945501  0  0.151134  0  0.136681  0  1.011126  0  0  0.139416  0  1.009496  0  0  0.119393  0.134674  0  1.012405  0
H  H6  1  0.12028782  0.85890406  0.48089455  1  0  0.126736  0  0.945503  0  0.151089  0  0.136671  0  1.011108  0  0  0.139406  0  1.009477  0  0  0.119388  0.134664  0  1.012386  0
H  H7  1  0.37971337  0.35890676  0.51910515  1  0  0.126729  0  0.945519  0  0.15108  0  0.136657  0  1.011127  0  0  0.139393  0  1.009495  0  0  0.119375  0.134654  0  1.012402  0
H  H8  1  0.60611161  0.41231130  0.75421837  1  0  0.13582  0  0.973016  0  0.140766  0  0.143154  0  1.03707  0  0  0.146749  0  1.035639  0  0  0.102236  0.140558  0  1.037906  0
H  H9  1  0.89388677  0.91231149  0.24578334  1  0  0.135813  0  0.973002  0  0.140786  0  0.143143  0  1.037072  0  0  0.146739  0  1.03564  0  0  0.102235  0.140547  0  1.037895  0
H  H10  1  0.39389056  0.58769062  0.24578086  1  0  0.135808  0  0.973009  0  0.140755  0  0.143147  0  1.037049  0  0  0.146741  0  1.035619  0  0  0.102259  0.140546  0  1.037897  0
H  H11  1  0.10611172  0.08768939  0.75421784  1  0  0.13581  0  0.973002  0  0.14078  0  0.14314  0  1.037065  0  0  0.146736  0  1.035634  0  0  0.102228  0.140543  0  1.037893  0
H  H12  1  0.29999110  0.25499811  0.00889824  1  0  0.087956  0  0.966809  0  0.059257  0  0.100464  0  1.028498  0  0  0.102607  0  1.026874  0  0  0.103334  0.098739  0  1.029721  0
H  H13  1  0.20000171  0.75499708  0.99110149  1  0  0.087974  0  0.966775  0  0.059334  0  0.100442  0  1.028523  0  0  0.102587  0  1.026901  0  0  0.103333  0.09874  0  1.029724  0
H  H14  1  0.70000493  0.74500277  0.99110286  1  0  0.088001  0  0.966798  0  0.0593  0  0.100503  0  1.028493  0  0  0.102647  0  1.02687  0  0  0.103336  0.098762  0  1.029737  0
H  H15  1  0.79999923  0.24499967  0.00889839  1  0  0.087958  0  0.966822  0  0.059312  0  0.100403  0  1.028585  0  0  0.102548  0  1.026964  0  0  0.103325  0.098704  0  1.029774  0
H  H16  1  0.46440193  0.34034263  0.87998363  1  0  0.114295  0  0.960193  0  0.112476  0  0.123509  0  1.022994  0  0  0.127034  0  1.021727  0  0  0.100981  0.121049  0  1.024135  0
H  H17  1  0.03559293  0.84034154  0.12001580  1  0  0.114311  0  0.960177  0  0.11248  0  0.123522  0  1.022971  0  0  0.127052  0  1.021701  0  0  0.100999  0.121061  0  1.024115  0
H  H18  1  0.53559163  0.65965825  0.12001671  1  0  0.114327  0  0.960166  0  0.112492  0  0.123535  0  1.022967  0  0  0.127065  0  1.021698  0  0  0.101006  0.121079  0  1.024109  0
H  H19  1  0.96440800  0.15965831  0.87998270  1  0  0.114377  0  0.960126  0  0.112471  0  0.123552  0  1.022966  0  0  0.127102  0  1.021672  0  0  0.101013  0.121093  0  1.024095  0
H  H20  1  0.77369607  0.37137794  0.59698577  1  0  0.1215  0  0.959256  0  0.168753  0  0.129361  0  1.025924  0  0  0.132368  0  1.02316  0  0  0.125707  0.127238  0  1.027784  0
H  H21  1  0.72630685  0.87137526  0.40301731  1  0  0.121507  0  0.959214  0  0.168749  0  0.129369  0  1.025871  0  0  0.132378  0  1.023107  0  0  0.125697  0.127247  0  1.027737  0
H  H22  1  0.22630979  0.62862088  0.40301426  1  0  0.121541  0  0.95925  0  0.168787  0  0.129396  0  1.025918  0  0  0.132405  0  1.023153  0  0  0.125728  0.127277  0  1.027774  0
H  H23  1  0.27369289  0.12862045  0.59698529  1  0  0.1215  0  0.959247  0  0.168752  0  0.129363  0  1.025913  0  0  0.132372  0  1.023148  0  0  0.125713  0.127243  0  1.027773  0
H  H24  1  0.33705329  0.84484360  0.89542558  1  0  0.059213  0  1.009347  0  0.0763  0  0.063969  0  1.085296  0  0  0.066434  0  1.082815  0  0  0.096173  0.062479  0  1.086748  0
H  H25  1  0.16294532  0.34484454  0.10457536  1  0  0.059243  0  1.009299  0  0.076316  0  0.063988  0  1.085282  0  0  0.066454  0  1.082798  0  0  0.096195  0.062503  0  1.086708  0
H  H26  1  0.66294766  0.15515831  0.10457499  1  0  0.059197  0  1.009337  0  0.076272  0  0.063972  0  1.085274  0  0  0.066434  0  1.082794  0  0  0.096168  0.062483  0  1.086713  0
H  H27  1  0.83705439  0.65515324  0.89542448  1  0  0.059227  0  1.009348  0  0.076344  0  0.063935  0  1.085385  0  0  0.066396  0  1.082906  0  0  0.096166  0.062463  0  1.086778  0
H  H28  1  0.22278871  0.00559184  0.01420707  1  0  0.10838  0  0.955018  0  0.121825  0  0.117522  0  1.017388  0  0  0.120908  0  1.016252  0  0  0.099795  0.114897  0  1.018506  0
H  H29  1  0.27721158  0.50559229  0.98579471  1  0  0.108364  0  0.954982  0  0.121863  0  0.117515  0  1.017349  0  0  0.120864  0  1.016257  0  0  0.099782  0.114888  0  1.018478  0
H  H30  1  0.77721101  0.99440904  0.98579415  1  0  0.108395  0  0.955005  0  0.121842  0  0.117539  0  1.01737  0  0  0.120925  0  1.016235  0  0  0.099797  0.114913  0  1.018493  0
H  H31  1  0.72278936  0.49440549  0.01420517  1  0  0.108367  0  0.955003  0  0.121879  0  0.117523  0  1.017373  0  0  0.120906  0  1.016239  0  0  0.099785  0.114896  0  1.018502  0
Pb  Pb32  1  0.58857161  0.82647822  0.71905552  1  0  1.168631  0  1.524737  0  1.377147  0  0.979502  0  1.928319  0  0  1.03842  0  1.88933  0  0  0.560111  0.933398  0  1.958614  0
Pb  Pb33  1  0.91143457  0.32647707  0.28094680  1  0  1.16863  0  1.524771  0  1.377168  0  0.979501  0  1.928362  0  0  1.038424  0  1.889368  0  0  0.560101  0.93338  0  1.95867  0
Pb  Pb34  1  0.41143921  0.17352060  0.28094742  1  0  1.168607  0  1.52479  0  1.377197  0  0.979483  0  1.928389  0  0  1.038405  0  1.889395  0  0  0.560092  0.933365  0  1.958679  0
Pb  Pb35  1  0.08856882  0.67352588  0.71905178  1  0  1.168615  0  1.524793  0  1.377137  0  0.979493  0  1.928372  0  0  1.03841  0  1.88939  0  0  0.560112  0.933377  0  1.958691  0
C  C36  1  0.57877055  0.18123234  0.74309398  1  0  0.119046  0  3.82376  0  0.453349  0  0.103979  0  4.091997  0  0  0.10969  0  4.11244  0  0  0.094699  0.100253  0  4.077905  0
C  C37  1  0.92122806  0.68123074  0.25690618  1  0  0.119085  0  3.823738  0  0.453591  0  0.104  0  4.091981  0  0  0.109711  0  4.112425  0  0  0.094704  0.100271  0  4.077888  0
C  C38  1  0.42122916  0.81877061  0.25690586  1  0  0.119088  0  3.823728  0  0.453306  0  0.104029  0  4.091932  0  0  0.109742  0  4.112374  0  0  0.094714  0.100302  0  4.077843  0
C  C39  1  0.07876918  0.31876911  0.74309290  1  0  0.119058  0  3.823722  0  0.453572  0  0.10402  0  4.091927  0  0  0.109732  0  4.11237  0  0  0.094708  0.100295  0  4.077835  0
C  C40  1  0.48818119  0.13624146  0.82136002  1  0  0.199533  0  3.791798  0  0.501253  0  0.198794  0  4.028792  0  0  0.207158  0  4.04788  0  0  0.127442  0.193167  0  4.015677  0
C  C41  1  0.01181540  0.63623966  0.17863938  1  0  0.199619  0  3.791862  0  0.50121  0  0.198906  0  4.028835  0  0  0.207272  0  4.047928  0  0  0.127505  0.193274  0  4.015721  0
C  C42  1  0.51181606  0.86376149  0.17864043  1  0  0.199624  0  3.791834  0  0.501262  0  0.198941  0  4.028757  0  0  0.207306  0  4.047848  0  0  0.127514  0.19331  0  4.015646  0
C  C43  1  0.98818059  0.36375915  0.82135828  1  0  0.199568  0  3.791759  0  0.501217  0  0.198822  0  4.028746  0  0  0.207184  0  4.047844  0  0  0.127468  0.193187  0  4.015639  0
C  C44  1  0.75767105  0.10116862  0.53312156  1  0  -0.182065  0  3.61429  0  0.25561  0  -0.258004  0  3.860474  0  0  -0.259195  0  3.865102  0  0  -0.049727  -0.257252  0  3.85753  0
C  C45  1  0.74233051  0.60116555  0.46688114  1  0  -0.182044  0  3.614289  0  0.255528  0  -0.257961  0  3.860513  0  0  -0.259143  0  3.865127  0  0  -0.049747  -0.257208  0  3.857563  0
C  C46  1  0.24232867  0.89883019  0.46687966  1  0  -0.182024  0  3.614333  0  0.255549  0  -0.257964  0  3.860516  0  0  -0.259149  0  3.865135  0  0  -0.049761  -0.257212  0  3.857568  0
C  C47  1  0.25767289  0.39882913  0.53311881  1  0  -0.18203  0  3.614412  0  0.255745  0  -0.257957  0  3.860584  0  0  -0.259144  0  3.865206  0  0  -0.049742  -0.257207  0  3.85764  0
C  C48  1  0.62786432  0.31589207  0.71884591  1  0  -0.208454  0  3.713213  0  0.023255  0  -0.229939  0  3.980677  0  0  -0.238364  0  4.000524  0  0  -0.104659  -0.224529  0  3.967289  0
C  C49  1  0.87213438  0.81589035  0.28115683  1  0  -0.208411  0  3.713139  0  0.023084  0  -0.229883  0  3.980585  0  0  -0.238308  0  4.000433  0  0  -0.104615  -0.224459  0  3.967191  0
C  C50  1  0.37213538  0.68411088  0.28115324  1  0  -0.20842  0  3.713154  0  0.023316  0  -0.229903  0  3.980605  0  0  -0.238329  0  4.000455  0  0  -0.104661  -0.224489  0  3.967208  0
C  C51  1  0.12786534  0.18411053  0.71884439  1  0  -0.208409  0  3.713192  0  0.023069  0  -0.22989  0  3.980636  0  0  -0.238316  0  4.000486  0  0  -0.104624  -0.22447  0  3.967242  0
C  C52  1  0.34042995  0.18381049  0.95675796  1  0  -0.000185  0  3.729863  0  -0.059385  0  -0.018871  0  3.980131  0  0  -0.015108  0  3.998731  0  0  -0.067613  -0.021062  0  3.967499  0
C  C53  1  0.15956587  0.68380851  0.04324159  1  0  -0.000278  0  3.729767  0  -0.059537  0  -0.018955  0  3.980077  0  0  -0.015191  0  3.998668  0  0  -0.067715  -0.021166  0  3.967459  0
C  C54  1  0.65956853  0.81619246  0.04324184  1  0  -0.00035  0  3.72994  0  -0.059473  0  -0.019038  0  3.98022  0  0  -0.015276  0  3.998822  0  0  -0.067709  -0.021221  0  3.967604  0
C  C55  1  0.84043259  0.31618926  0.95675683  1  0  -0.000268  0  3.729917  0  -0.059555  0  -0.018908  0  3.980191  0  0  -0.015149  0  3.9988  0  0  -0.067658  -0.021112  0  3.967555  0
C  C56  1  0.43467483  0.23106533  0.88633257  1  0  -0.141098  0  3.67728  0  -0.045968  0  -0.158666  0  3.920872  0  0  -0.165669  0  3.940803  0  0  -0.080312  -0.154034  0  3.907494  0
C  C57  1  0.06532023  0.73106333  0.11366852  1  0  -0.141109  0  3.677256  0  -0.045776  0  -0.158671  0  3.920863  0  0  -0.165682  0  3.940796  0  0  -0.080301  -0.154036  0  3.907494  0
C  C58  1  0.56532119  0.76893762  0.11366785  1  0  -0.14112  0  3.677316  0  -0.045836  0  -0.158694  0  3.92092  0  0  -0.165704  0  3.940853  0  0  -0.080321  -0.154061  0  3.907542  0
C  C59  1  0.93467823  0.26893548  0.88632990  1  0  -0.141156  0  3.67724  0  -0.045805  0  -0.158694  0  3.920836  0  0  -0.165718  0  3.940757  0  0  -0.080311  -0.15406  0  3.907464  0
C  C60  1  0.70972689  0.29869311  0.63878984  1  0  0.018069  0  3.628202  0  0.32976  0  -0.04523  0  3.892619  0  0  -0.037274  0  3.905206  0  0  0.02447  -0.050153  0  3.883833  0
C  C61  1  0.79027657  0.79869257  0.36121367  1  0  0.01808  0  3.628135  0  0.3297  0  -0.04521  0  3.89259  0  0  -0.037251  0  3.905164  0  0  0.024448  -0.050142  0  3.883807  0
C  C62  1  0.29027528  0.70130880  0.36121077  1  0  0.018004  0  3.628298  0  0.329766  0  -0.045298  0  3.892725  0  0  -0.037341  0  3.905304  0  0  0.024448  -0.050226  0  3.883935  0
C  C63  1  0.20972562  0.20130727  0.63878832  1  0  0.01806  0  3.628179  0  0.329717  0  -0.045274  0  3.89262  0  0  -0.037314  0  3.905195  0  0  0.02444  -0.050195  0  3.883831  0
C  C64  1  0.35990005  0.95594154  0.89497771  1  0  0.120756  0  3.752655  0  0.480054  0  0.089943  0  4.007087  0  0  0.096848  0  4.026494  0  0  0.043467  0.085389  0  3.99376  0
C  C65  1  0.14009593  0.45594131  0.10502288  1  0  0.120783  0  3.752669  0  0.480039  0  0.089968  0  4.007108  0  0  0.096873  0  4.026502  0  0  0.043425  0.085427  0  3.993759  0
C  C66  1  0.64010090  0.04406037  0.10502286  1  0  0.120755  0  3.752563  0  0.480182  0  0.089933  0  4.00702  0  0  0.096836  0  4.026426  0  0  0.043413  0.085383  0  3.993685  0
C  C67  1  0.85990131  0.54405647  0.89497619  1  0  0.120702  0  3.752775  0  0.479977  0  0.089905  0  4.007207  0  0  0.09681  0  4.026611  0  0  0.043449  0.085359  0  3.993879  0
C  C68  1  0.29859483  0.04427983  0.96040223  1  0  -0.122248  0  3.733719  0  0.047237  0  -0.137705  0  3.98991  0  0  -0.144253  0  4.01051  0  0  -0.088999  -0.133482  0  3.976304  0
C  C69  1  0.20140336  0.54427810  0.03959894  1  0  -0.122227  0  3.733557  0  0.047198  0  -0.137679  0  3.989728  0  0  -0.144196  0  4.010344  0  0  -0.088946  -0.13346  0  3.976141  0
C  C70  1  0.70140488  0.95572208  0.03959830  1  0  -0.122204  0  3.733693  0  0.047225  0  -0.137654  0  3.989878  0  0  -0.1442  0  4.01048  0  0  -0.088935  -0.133434  0  3.976279  0
C  C71  1  0.79859512  0.45571865  0.96040086  1  0  -0.122221  0  3.733667  0  0.04729  0  -0.137682  0  3.989804  0  0  -0.144225  0  4.010406  0  0  -0.08901  -0.133465  0  3.976216  0
C  C72  1  0.63657177  0.13479586  0.45044239  1  0  0.673505  0  3.869261  0  1.621037  0  0.623653  0  4.174633  0  0  0.657656  0  4.168632  0  0  0.207977  0.600552  0  4.17735  0
C  C73  1  0.86342641  0.63479530  0.54955896  1  0  0.673492  0  3.869239  0  1.621022  0  0.623614  0  4.174646  0  0  0.657614  0  4.168648  0  0  0.207973  0.600513  0  4.177365  0
C  C74  1  0.36342426  0.86520502  0.54955872  1  0  0.673523  0  3.869181  0  1.621279  0  0.623638  0  4.174615  0  0  0.657639  0  4.168613  0  0  0.207967  0.600545  0  4.17732  0
C  C75  1  0.13657577  0.36520145  0.45044165  1  0  0.673552  0  3.869202  0  1.62112  0  0.623653  0  4.174632  0  0  0.657653  0  4.168631  0  0  0.208  0.600552  0  4.177347  0
N  N76  1  0.70664902  0.16158551  0.61810373  1  0  0.109113  0  3.601414  0  -0.826444  0  0.225014  0  3.782214  0  0  0.218862  0  3.805356  0  0  -0.133159  0.229053  0  3.766327  0
N  N77  1  0.79335066  0.66158620  0.38189845  1  0  0.109116  0  3.601323  0  -0.826429  0  0.224964  0  3.782181  0  0  0.218811  0  3.805324  0  0  -0.133117  0.229  0  3.766295  0
N  N78  1  0.29335193  0.83841433  0.38189684  1  0  0.109187  0  3.601507  0  -0.826449  0  0.22508  0  3.782317  0  0  0.218928  0  3.805459  0  0  -0.133123  0.229111  0  3.766436  0
N  N79  1  0.20665151  0.33841262  0.61810146  1  0  0.109108  0  3.601346  0  -0.826415  0  0.225049  0  3.782118  0  0  0.218897  0  3.80526  0  0  -0.133099  0.229076  0  3.766243  0
N  N80  1  0.62573139  0.08848741  0.68007258  1  0  -0.317265  0  3.02666  0  -0.707578  0  -0.287519  0  3.28483  0  0  -0.302983  0  3.304697  0  0  -0.207574  -0.276695  0  3.271057  0
N  N81  1  0.87426386  0.58848706  0.31992712  1  0  -0.317316  0  3.026729  0  -0.707565  0  -0.287544  0  3.284901  0  0  -0.303013  0  3.304775  0  0  -0.207579  -0.276712  0  3.271116  0
N  N82  1  0.37426587  0.91151347  0.31992857  1  0  -0.317348  0  3.0268  0  -0.70761  0  -0.287614  0  3.284968  0  0  -0.303076  0  3.304829  0  0  -0.207609  -0.276782  0  3.271187  0
N  N83  1  0.12573582  0.41151278  0.68007065  1  0  -0.317316  0  3.026662  0  -0.707582  0  -0.287599  0  3.284803  0  0  -0.303062  0  3.304665  0  0  -0.207632  -0.276765  0  3.271024  0
N  N84  1  0.45395929  0.99974215  0.82793112  1  0  -0.360419  0  3.189797  0  -1.265049  0  -0.286097  0  3.432515  0  0  -0.306355  0  3.453545  0  0  -0.295233  -0.27157  0  3.418138  0
N  N85  1  0.04603710  0.49974187  0.17206896  1  0  -0.360486  0  3.189942  0  -1.265092  0  -0.28618  0  3.432665  0  0  -0.306439  0  3.453696  0  0  -0.295246  -0.27165  0  3.418271  0
N  N86  1  0.54604290  0.00025976  0.17207087  1  0  -0.360464  0  3.189771  0  -1.265247  0  -0.286197  0  3.432524  0  0  -0.306456  0  3.453556  0  0  -0.295257  -0.271661  0  3.418127  0
N  N87  1  0.95395766  0.50025797  0.82792866  1  0  -0.360368  0  3.189867  0  -1.26508  0  -0.286045  0  3.432574  0  0  -0.306303  0  3.453606  0  0  -0.295204  -0.271517  0  3.418191  0
Cl  Cl88  1  0.41538381  0.61739773  0.82325728  1  0  -0.647611  0  0.768068  0  -0.727001  0  -0.578797  0  1.002362  0  0  -0.60128  0  0.986416  0  0  -0.294289  -0.560367  0  1.013027  0
Cl  Cl89  1  0.08461876  0.11739670  0.17674292  1  0  -0.647627  0  0.768062  0  -0.727025  0  -0.578806  0  1.002354  0  0  -0.601297  0  0.986419  0  0  -0.294303  -0.560383  0  1.013013  0
Cl  Cl90  1  0.58461340  0.38260522  0.17673903  1  0  -0.647619  0  0.768046  0  -0.727005  0  -0.578825  0  1.002365  0  0  -0.601297  0  0.986397  0  0  -0.2943  -0.560398  0  1.013025  0
Cl  Cl91  1  0.91538712  0.88260521  0.82325849  1  0  -0.647615  0  0.768062  0  -0.726968  0  -0.578794  0  1.00237  0  0  -0.60127  0  0.986413  0  0  -0.294283  -0.560367  0  1.013026  0
O  O92  1  0.49030381  0.16772391  0.46522119  1  0  -0.633813  0  1.957543  0  -1.208704  0  -0.576067  0  2.192238  0  0  -0.604568  0  2.186937  0  0  -0.307359  -0.556144  0  2.195265  0
O  O93  1  0.00969681  0.66772507  0.53478122  1  0  -0.633838  0  1.957423  0  -1.208684  0  -0.576085  0  2.192152  0  0  -0.604588  0  2.186854  0  0  -0.307384  -0.556159  0  2.19518  0
O  O94  1  0.50969469  0.83227904  0.53478069  1  0  -0.633834  0  1.957418  0  -1.20892  0  -0.576051  0  2.192105  0  0  -0.604555  0  2.186806  0  0  -0.307306  -0.556128  0  2.19513  0
O  O95  1  0.99030659  0.33227374  0.46521874  1  0  -0.633855  0  1.957444  0  -1.20893  0  -0.576076  0  2.192149  0  0  -0.604576  0  2.186851  0  0  -0.307379  -0.556151  0  2.19518  0
O  O96  1  0.69336099  0.12524307  0.37026597  1  0  -0.670498  0  1.963804  0  -1.209603  0  -0.59494  0  2.197945  0  0  -0.627446  0  2.192991  0  0  -0.304472  -0.570992  0  2.199554  0
O  O97  1  0.80663955  0.62524281  0.62973472  1  0  -0.670489  0  1.963891  0  -1.209633  0  -0.594931  0  2.198054  0  0  -0.627432  0  2.193098  0  0  -0.304461  -0.570981  0  2.199656  0
O  O98  1  0.30663873  0.87475471  0.62973526  1  0  -0.670517  0  1.963851  0  -1.209619  0  -0.59495  0  2.197998  0  0  -0.627462  0  2.193064  0  0  -0.304501  -0.571025  0  2.19965  0
O  O99  1  0.19336016  0.37475497  0.37026512  1  0  -0.67053  0  1.963905  0  -1.20962  0  -0.594955  0  2.19806  0  0  -0.627465  0  2.193118  0  0  -0.304478  -0.571014  0  2.199685  0
