# generated using pymatgen
data_SrH30C24O13
_symmetry_space_group_name_H-M   'P 1'
_cell_length_a   8.46149534
_cell_length_b   8.44747778
_cell_length_c   20.90500000
_cell_angle_alpha   90.00000000
_cell_angle_beta   90.00000000
_cell_angle_gamma   114.35396031
_symmetry_Int_Tables_number   1
_chemical_formula_structural   SrH30C24O13
_chemical_formula_sum   'Sr2 H60 C48 O26'
_cell_volume   1361.28803520
_cell_formula_units_Z   2
loop_
 _symmetry_equiv_pos_site_id
 _symmetry_equiv_pos_as_xyz
  1  'x, y, z'
loop_
 _atom_site_type_symbol
 _atom_site_label
 _atom_site_symmetry_multiplicity
 _atom_site_fract_x
 _atom_site_fract_y
 _atom_site_fract_z
 _atom_site_occupancy
 _atom_site_hle17_bader_spin_density
 _atom_site_hle17_ddec_charge
 _atom_site_hle17_ddec_spin_density
 _atom_site_hle17_ddec_sum_bond_order
 _atom_site_hle17_magmom
 _atom_site_hse06_10hf_bader_spin_density
 _atom_site_hse06_10hf_ddec_charge
 _atom_site_hse06_10hf_ddec_spin_density
 _atom_site_hse06_10hf_ddec_sum_bond_order
 _atom_site_hse06_10hf_magmom
 _atom_site_hse06_bader_spin_density
 _atom_site_hse06_ddec_charge
 _atom_site_hse06_ddec_spin_density
 _atom_site_hse06_ddec_sum_bond_order
 _atom_site_hse06_magmom
 _atom_site_pbe_bader_charge
 _atom_site_pbe_bader_spin_density
 _atom_site_pbe_cm5_charge
 _atom_site_pbe_ddec_charge
 _atom_site_pbe_ddec_spin_density
 _atom_site_pbe_ddec_sum_bond_order
 _atom_site_pbe_magmom
Sr  Sr0  1  0.02437986  0.97496270  0.74992203  1  0  1.600441  0  1.131419  0  0  1.450883  0  1.504035  0  0  1.48879  0  1.458825  0  1.681645  0  0.979111  1.42296  0  1.536142  0
Sr  Sr1  1  0.97562247  0.02504229  0.24992059  1  0  1.600434  0  1.131414  0  0  1.450892  0  1.503994  0  0  1.488796  0  1.458788  0  1.681675  0  0.979102  1.422971  0  1.5361  0
H  H2  1  0.45779666  0.50300284  0.69437934  1  0  0.079797  0  0.942213  0  0  0.083217  0  1.012329  0  0  0.086084  0  1.008608  0  0.111344  0  0.121267  0.081033  0  1.015264  0
H  H3  1  0.54221482  0.49699565  0.19438173  1  0  0.079863  0  0.942184  0  0  0.083212  0  1.012317  0  0  0.086104  0  1.00857  0  0.110621  0  0.121274  0.081031  0  1.015253  0
H  H4  1  0.50334572  0.45824715  0.30549390  1  0  0.079734  0  0.942037  0  0  0.083206  0  1.012163  0  0  0.086124  0  1.008407  0  0.111437  0  0.12142  0.081039  0  1.0151  0
H  H5  1  0.49665093  0.54175264  0.80549055  1  0  0.079711  0  0.94207  0  0  0.083175  0  1.012144  0  0  0.086091  0  1.00839  0  0.111198  0  0.121432  0.081007  0  1.015079  0
H  H6  1  0.97665043  0.57306980  0.68338388  1  0  0.102447  0  0.956476  0  0  0.108013  0  1.024647  0  0  0.11244  0  1.020518  0  0.059492  0  0.11376  0.104779  0  1.027701  0
H  H7  1  0.02336223  0.42692869  0.18338723  1  0  0.102398  0  0.956512  0  0  0.107945  0  1.024718  0  0  0.112369  0  1.020594  0  0.059093  0  0.113781  0.104713  0  1.027769  0
H  H8  1  0.57345124  0.97606070  0.31664913  1  0  0.10231  0  0.956655  0  0  0.107966  0  1.024738  0  0  0.112402  0  1.020594  0  0.06111  0  0.113659  0.104714  0  1.027817  0
H  H9  1  0.42654896  0.02393909  0.81664961  1  0  0.102293  0  0.956704  0  0  0.107956  0  1.024786  0  0  0.112392  0  1.020641  0  0.061108  0  0.113648  0.104704  0  1.027867  0
H  H10  1  0.70200453  0.55101875  0.63352069  1  0  0.096124  0  0.975015  0  0  0.103245  0  1.039536  0  0  0.106423  0  1.038044  0  0.09742  0  0.101484  0.100911  0  1.040773  0
H  H11  1  0.29800329  0.44898233  0.13351925  1  0  0.096069  0  0.975014  0  0  0.103201  0  1.039537  0  0  0.106379  0  1.038045  0  0.097279  0  0.101478  0.100867  0  1.040773  0
H  H12  1  0.55127143  0.70110098  0.36665439  1  0  0.096249  0  0.974993  0  0  0.103384  0  1.039622  0  0  0.106548  0  1.038147  0  0.096081  0  0.101364  0.101064  0  1.040837  0
H  H13  1  0.44872533  0.29889622  0.86665439  1  0  0.096239  0  0.974953  0  0  0.103371  0  1.039586  0  0  0.106535  0  1.038113  0  0.096101  0  0.101368  0.101052  0  1.0408  0
H  H14  1  0.66108130  0.51315126  0.51559818  1  0  0.097224  0  0.962568  0  0  0.106351  0  1.025866  0  0  0.109551  0  1.023022  0  0.090462  0  0.1029  0.103994  0  1.028045  0
H  H15  1  0.33891706  0.48684983  0.01559675  1  0  0.097165  0  0.962594  0  0  0.106293  0  1.025903  0  0  0.109485  0  1.023066  0  0.090421  0  0.102884  0.103937  0  1.028081  0
H  H16  1  0.51319929  0.66036697  0.48457211  1  0  0.096952  0  0.963211  0  0  0.106776  0  1.025648  0  0  0.109974  0  1.022774  0  0.084303  0  0.103011  0.104408  0  1.027853  0
H  H17  1  0.48679274  0.33963022  0.98457211  1  0  0.096911  0  0.963287  0  0  0.106743  0  1.025717  0  0  0.109923  0  1.022861  0  0.0843  0  0.102965  0.104378  0  1.027914  0
H  H18  1  0.89879903  0.51045497  0.44705238  1  0  0.095966  0  0.957149  0  0  0.104174  0  1.018901  0  0  0.106946  0  1.018869  0  0.098667  0  0.100855  0.102154  0  1.019115  0
H  H19  1  0.10119342  0.48954612  0.94705334  1  0  0.095937  0  0.957133  0  0  0.104149  0  1.018889  0  0  0.10692  0  1.018859  0  0.098738  0  0.100843  0.10213  0  1.0191  0
H  H20  1  0.51029423  0.89859488  0.55299880  1  0  0.09502  0  0.957773  0  0  0.103647  0  1.019146  0  0  0.106409  0  1.019142  0  0.097352  0  0.100704  0.101585  0  1.019387  0
H  H21  1  0.48969663  0.10140231  0.05299928  1  0  0.094971  0  0.957861  0  0  0.103652  0  1.019164  0  0  0.10641  0  1.019167  0  0.097352  0  0.100692  0.10159  0  1.019404  0
H  H22  1  0.17765045  0.53577274  0.49757857  1  0  0.089612  0  0.970478  0  0  0.097895  0  1.037998  0  0  0.100706  0  1.03653  0  0.078189  0  0.101589  0.095853  0  1.039068  0
H  H23  1  0.82234620  0.46422705  0.99758479  1  0  0.089614  0  0.970531  0  0  0.097876  0  1.038057  0  0  0.100698  0  1.036583  0  0.07851  0  0.101591  0.095834  0  1.039132  0
H  H24  1  0.53547819  0.17765317  0.50235637  1  0  0.089382  0  0.971177  0  0  0.09779  0  1.038449  0  0  0.100588  0  1.03699  0  0.075497  0  0.101556  0.095782  0  1.039498  0
H  H25  1  0.46451503  0.82234402  0.00235733  1  0  0.089392  0  0.971169  0  0  0.097799  0  1.038439  0  0  0.100599  0  1.036978  0  0.075476  0  0.101545  0.095792  0  1.039488  0
H  H26  1  0.88934309  0.26616920  0.76998374  1  0  0.43344  0  0.853653  0  0  0.405517  0  0.910207  0  0  0.415802  0  0.895106  0  0.647877  0  0.304758  0.39822  0  0.920913  0
H  H27  1  0.11065592  0.73383059  0.26998421  1  0  0.433434  0  0.853661  0  0  0.405514  0  0.910209  0  0  0.415799  0  0.895107  0  0.64787  0  0.304758  0.398217  0  0.920914  0
H  H28  1  0.26600357  0.88902860  0.23003731  1  0  0.433574  0  0.853586  0  0  0.405617  0  0.910241  0  0  0.415915  0  0.895119  0  0.648264  0  0.304724  0.39831  0  0.92096  0
H  H29  1  0.73399555  0.11096859  0.73003779  1  0  0.433561  0  0.853601  0  0  0.405575  0  0.910298  0  0  0.415874  0  0.895177  0  0.648254  0  0.304698  0.398269  0  0.921017  0
H  H30  1  0.06510399  0.61788785  0.80693518  1  0  0.388929  0  0.917646  0  0  0.356237  0  0.998255  0  0  0.367899  0  0.981315  0  0.641794  0  0.294901  0.348013  0  1.010178  0
H  H31  1  0.93489609  0.38211453  0.30693566  1  0  0.389006  0  0.91763  0  0  0.356323  0  0.998145  0  0  0.367983  0  0.98121  0  0.641828  0  0.294932  0.348099  0  1.01007  0
H  H32  1  0.61841767  0.06523834  0.19320880  1  0  0.388675  0  0.9182  0  0  0.35615  0  0.99833  0  0  0.367729  0  0.981505  0  0.643851  0  0.294975  0.347973  0  1.010198  0
H  H33  1  0.38157909  0.93475885  0.69320880  1  0  0.388751  0  0.918096  0  0  0.35619  0  0.998267  0  0  0.367768  0  0.981444  0  0.643871  0  0.294975  0.348014  0  1.010133  0
H  H34  1  0.88054197  0.53267624  0.88120306  1  0  0.057697  0  0.928106  0  0  0.076914  0  0.987314  0  0  0.076209  0  0.988152  0  0.066456  0  0.107215  0.077305  0  0.98684  0
H  H35  1  0.11945940  0.46732355  0.38120306  1  0  0.057709  0  0.928126  0  0  0.076908  0  0.987336  0  0  0.076205  0  0.98817  0  0.066453  0  0.107198  0.077299  0  0.986862  0
H  H36  1  0.53342738  0.88080852  0.11884143  1  0  0.058151  0  0.927766  0  0  0.07738  0  0.986813  0  0  0.076682  0  0.987648  0  0.06797  0  0.107532  0.077775  0  0.986319  0
H  H37  1  0.46657003  0.11918737  0.61884095  1  0  0.058103  0  0.927791  0  0  0.077347  0  0.986855  0  0  0.076649  0  0.98769  0  0.067985  0  0.107519  0.077742  0  0.986361  0
H  H38  1  0.75419481  0.61441972  0.83465822  1  0  0.047165  0  0.941513  0  0  0.06004  0  1.011854  0  0  0.0607  0  1.010355  0  0.044221  0  0.101195  0.059382  0  1.013148  0
H  H39  1  0.24580764  0.38558267  0.33465822  1  0  0.047198  0  0.941483  0  0  0.060059  0  1.011826  0  0  0.060707  0  1.01034  0  0.044186  0  0.101199  0.059399  0  1.013123  0
H  H40  1  0.61497770  0.75416251  0.16534992  1  0  0.047155  0  0.942165  0  0  0.060118  0  1.012371  0  0  0.060788  0  1.010867  0  0.043608  0  0.101156  0.059467  0  1.01365  0
H  H41  1  0.38502089  0.24583338  0.66534992  1  0  0.047104  0  0.94217  0  0  0.060095  0  1.012377  0  0  0.060766  0  1.010867  0  0.04364  0  0.10116  0.059444  0  1.013656  0
H  H42  1  0.80902003  0.74878814  0.94166611  1  0  0.056401  0  0.927894  0  0  0.070409  0  0.994794  0  0  0.070964  0  0.993741  0  0.065163  0  0.099976  0.0699  0  0.995702  0
H  H43  1  0.19097844  0.25121035  0.44166563  1  0  0.056401  0  0.927877  0  0  0.070431  0  0.994758  0  0  0.070987  0  0.993705  0  0.0652  0  0.099982  0.069922  0  0.995666  0
H  H44  1  0.74914509  0.80896266  0.05834968  1  0  0.056526  0  0.92845  0  0  0.070623  0  0.99516  0  0  0.07119  0  0.994099  0  0.06327  0  0.100002  0.070117  0  0.996061  0
H  H45  1  0.25085167  0.19103453  0.55834920  1  0  0.056546  0  0.92845  0  0  0.070637  0  0.995166  0  0  0.071203  0  0.994107  0  0.063283  0  0.100007  0.070133  0  0.996066  0
H  H46  1  0.03986530  0.82689067  0.92985602  1  0  0.050204  0  0.930715  0  0  0.064061  0  0.998052  0  0  0.064228  0  0.998658  0  0.049367  0  0.098244  0.063819  0  0.997815  0
H  H47  1  0.96013372  0.17310912  0.42985410  1  0  0.050201  0  0.930771  0  0  0.064057  0  0.998116  0  0  0.064223  0  0.998723  0  0.049341  0  0.098242  0.063815  0  0.997879  0
H  H48  1  0.82717288  0.04020644  0.07011576  1  0  0.050433  0  0.930723  0  0  0.064182  0  0.998114  0  0  0.064342  0  0.998738  0  0.049871  0  0.098325  0.063943  0  0.997868  0
H  H49  1  0.17282270  0.95979075  0.57011624  1  0  0.05042  0  0.930726  0  0  0.064162  0  0.998123  0  0  0.064321  0  0.998747  0  0.049859  0  0.098308  0.063925  0  0.997876  0
H  H50  1  0.94015647  0.18889569  0.88294810  1  0  0.098691  0  0.961108  0  0  0.112187  0  1.028502  0  0  0.113708  0  1.027291  0  0.103417  0  0.105761  0.110963  0  1.029491  0
H  H51  1  0.05983900  0.81110410  0.38294714  1  0  0.098721  0  0.961117  0  0  0.112212  0  1.028523  0  0  0.113745  0  1.027299  0  0.103393  0  0.10577  0.110989  0  1.029508  0
H  H52  1  0.18858668  0.94010854  0.11696532  1  0  0.098904  0  0.960249  0  0  0.112321  0  1.027865  0  0  0.113847  0  1.026654  0  0.103245  0  0.106023  0.111102  0  1.028845  0
H  H53  1  0.81141061  0.05988995  0.61696484  1  0  0.098914  0  0.96024  0  0  0.112332  0  1.027847  0  0  0.113858  0  1.026636  0  0.103233  0  0.10602  0.111112  0  1.028828  0
H  H54  1  0.06708628  0.12622629  0.93769146  1  0  0.070858  0  0.948602  0  0  0.08694  0  1.018081  0  0  0.087184  0  1.018875  0  0.061536  0  0.091982  0.086666  0  1.01763  0
H  H55  1  0.93291143  0.87377609  0.43769003  1  0  0.070827  0  0.948583  0  0  0.086911  0  1.018078  0  0  0.087154  0  1.018876  0  0.061524  0  0.091966  0.086637  0  1.017626  0
H  H56  1  0.12608557  0.06738107  0.06224492  1  0  0.070191  0  0.949088  0  0  0.086248  0  1.018676  0  0  0.086496  0  1.019465  0  0.059708  0  0.091579  0.085976  0  1.018221  0
H  H57  1  0.87391172  0.93261742  0.56224444  1  0  0.070193  0  0.949057  0  0  0.086255  0  1.018639  0  0  0.086503  0  1.019428  0  0.059688  0  0.09157  0.085984  0  1.018183  0
H  H58  1  0.83613970  0.04725186  0.94874001  1  0  0.067256  0  0.960861  0  0  0.082175  0  1.033391  0  0  0.081978  0  1.034983  0  0.034368  0  0.088038  0.082225  0  1.032359  0
H  H59  1  0.16385587  0.95274533  0.44873858  1  0  0.067195  0  0.960989  0  0  0.082164  0  1.033461  0  0  0.081967  0  1.035056  0  0.034361  0  0.088037  0.082213  0  1.032428  0
H  H60  1  0.04697275  0.83601645  0.05122124  1  0  0.067086  0  0.961423  0  0  0.082003  0  1.033922  0  0  0.08179  0  1.035541  0  0.03668  0  0.088116  0.082055  0  1.03288  0
H  H61  1  0.95302626  0.16398334  0.55122124  1  0  0.06708  0  0.961444  0  0  0.081992  0  1.033934  0  0  0.08178  0  1.035551  0  0.036677  0  0.088101  0.082045  0  1.032893  0
C  C62  1  0.58510308  0.78062896  0.70418512  1  0  0.670863  0  3.874991  0  0  0.613057  0  4.189007  0  0  0.6461  0  4.180768  0  1.624027  0  0.219742  0.590623  0  4.193857  0
C  C63  1  0.41490119  0.21937213  0.20418799  1  0  0.670833  0  3.874922  0  0  0.613028  0  4.188854  0  0  0.646072  0  4.180617  0  1.624083  0  0.219786  0.590594  0  4.193702  0
C  C64  1  0.78061130  0.58545840  0.29577900  1  0  0.670223  0  3.876622  0  0  0.612945  0  4.190035  0  0  0.646014  0  4.181772  0  1.621779  0  0.219696  0.590502  0  4.194895  0
C  C65  1  0.21938943  0.41454269  0.79577613  1  0  0.67014  0  3.876804  0  0  0.612859  0  4.190151  0  0  0.64592  0  4.181902  0  1.621769  0  0.219681  0.590415  0  4.195013  0
C  C66  1  0.42706698  0.60703905  0.71432672  1  0  0.027782  0  3.604717  0  0  -0.00516  0  3.860961  0  0  -0.001387  0  3.864361  0  0.425774  0  0.005107  -0.007772  0  3.858704  0
C  C67  1  0.57294031  0.39296073  0.21433102  1  0  0.027677  0  3.604802  0  0  -0.005037  0  3.860767  0  0  -0.001276  0  3.86416  0  0.396947  0  0.00509  -0.007643  0  3.858506  0
C  C68  1  0.60720881  0.42732631  0.28561445  1  0  0.028239  0  3.604715  0  0  -0.005034  0  3.861417  0  0  -0.001308  0  3.864796  0  0.427032  0  0.005142  -0.007681  0  3.859174  0
C  C69  1  0.39279127  0.57267607  0.78561014  1  0  0.028288  0  3.604701  0  0  -0.00482  0  3.861235  0  0  -0.00109  0  3.864612  0  0.397917  0  0.005182  -0.007465  0  3.858989  0
C  C70  1  0.25792445  0.56366074  0.62065104  1  0  0.592026  0  3.782713  0  0  0.539837  0  4.082044  0  0  0.574396  0  4.071959  0  1.486119  0  0.239313  0.516253  0  4.088591  0
C  C71  1  0.74208241  0.43633515  0.12065774  1  0  0.592176  0  3.782704  0  0  0.539971  0  4.082045  0  0  0.574509  0  4.071999  0  1.485223  0  0.239419  0.516397  0  4.088581  0
C  C72  1  0.56386312  0.25799719  0.37931978  1  0  0.59199  0  3.783908  0  0  0.540648  0  4.082272  0  0  0.575171  0  4.072215  0  1.486025  0  0.239449  0.517049  0  4.088845  0
C  C73  1  0.43613471  0.74200260  0.87931691  1  0  0.591626  0  3.784234  0  0  0.540266  0  4.082667  0  0  0.574788  0  4.072611  0  1.486253  0  0.23926  0.516669  0  4.089234  0
C  C74  1  0.09311729  0.55439853  0.59319206  1  0  -0.08047  0  3.800494  0  0  -0.058605  0  4.034827  0  0  -0.068296  0  4.058784  0  -0.096222  0  -0.019437  -0.052314  0  4.018756  0
C  C75  1  0.90688751  0.44560386  0.09319684  1  0  -0.080463  0  3.800684  0  0  -0.058599  0  4.034999  0  0  -0.068277  0  4.058957  0  -0.09603  0  -0.019402  -0.052309  0  4.018924  0
C  C76  1  0.55443613  0.09290025  0.40678594  1  0  -0.081207  0  3.801183  0  0  -0.059376  0  4.035213  0  0  -0.069054  0  4.059161  0  -0.098614  0  -0.01959  -0.053085  0  4.019162  0
C  C77  1  0.44556181  0.90709694  0.90678546  1  0  -0.08098  0  3.801022  0  0  -0.059213  0  4.035147  0  0  -0.068891  0  4.059097  0  -0.098589  0  -0.019571  -0.052923  0  4.019097  0
C  C78  1  0.95940393  0.55936488  0.63173403  1  0  -0.057687  0  3.711278  0  0  -0.085173  0  3.960727  0  0  -0.082814  0  3.978125  0  0.003418  0  -0.072108  -0.086578  0  3.949042  0
C  C79  1  0.04060561  0.44063750  0.13173691  1  0  -0.057568  0  3.711221  0  0  -0.085049  0  3.960693  0  0  -0.082692  0  3.978088  0  0.003746  0  -0.072088  -0.086453  0  3.949005  0
C  C80  1  0.55953920  0.95892664  0.36829945  1  0  -0.057214  0  3.710376  0  0  -0.084601  0  3.959483  0  0  -0.082251  0  3.976904  0  0.007933  0  -0.072174  -0.085998  0  3.947784  0
C  C81  1  0.44046153  0.04107445  0.86829897  1  0  -0.057268  0  3.71044  0  0  -0.084654  0  3.959578  0  0  -0.082304  0  3.977001  0  0.007937  0  -0.072163  -0.086052  0  3.94788  0
C  C82  1  0.80470041  0.54504795  0.60365750  1  0  -0.076003  0  3.758128  0  0  -0.083637  0  4.002635  0  0  -0.087609  0  4.024138  0  -0.021141  0  -0.086577  -0.081052  0  3.988064  0
C  C83  1  0.19530623  0.45495314  0.10365798  1  0  -0.075956  0  3.757855  0  0  -0.083609  0  4.00237  0  0  -0.08758  0  4.023867  0  -0.021118  0  -0.08657  -0.081025  0  3.9878  0
C  C84  1  0.54517998  0.80402229  0.39644152  1  0  -0.076122  0  3.756506  0  0  -0.08395  0  4.001399  0  0  -0.087931  0  4.022929  0  -0.018929  0  -0.086535  -0.081354  0  3.986798  0
C  C85  1  0.45481731  0.19597619  0.89644200  1  0  -0.076095  0  3.756554  0  0  -0.083923  0  4.00146  0  0  -0.087902  0  4.022982  0  -0.018946  0  -0.086544  -0.081329  0  3.986861  0
C  C86  1  0.78276582  0.52635719  0.53742932  1  0  -0.049955  0  3.737755  0  0  -0.067874  0  3.985235  0  0  -0.067368  0  4.005236  0  -0.084651  0  -0.081228  -0.067943  0  3.971545  0
C  C87  1  0.21723426  0.47364520  0.03742884  1  0  -0.049863  0  3.737601  0  0  -0.067772  0  3.985077  0  0  -0.067257  0  4.005078  0  -0.084721  0  -0.081207  -0.067841  0  3.971386  0
C  C88  1  0.52636215  0.78216876  0.46267687  1  0  -0.050799  0  3.738574  0  0  -0.069332  0  3.986252  0  0  -0.068783  0  4.006227  0  -0.089086  0  -0.081732  -0.069417  0  3.972581  0
C  C89  1  0.47363331  0.21783103  0.96267639  1  0  -0.050724  0  3.738664  0  0  -0.069274  0  3.986337  0  0  -0.068708  0  4.006317  0  -0.08904  0  -0.08165  -0.069359  0  3.972671  0
C  C90  1  0.91646100  0.52334905  0.49877398  1  0  -0.082803  0  3.76834  0  0  -0.090599  0  4.014139  0  0  -0.095092  0  4.036986  0  0.002713  0  -0.09129  -0.087675  0  3.998643  0
C  C91  1  0.08353695  0.47664814  0.99877685  1  0  -0.082873  0  3.768445  0  0  -0.090685  0  4.014256  0  0  -0.095177  0  4.037105  0  0.002847  0  -0.09135  -0.087766  0  3.998773  0
C  C92  1  0.52318450  0.91611487  0.50126668  1  0  -0.080959  0  3.769029  0  0  -0.089042  0  4.014817  0  0  -0.093563  0  4.037709  0  0.004537  0  -0.091016  -0.086055  0  3.999315  0
C  C93  1  0.47680989  0.08388232  0.00126716  1  0  -0.080987  0  3.769141  0  0  -0.089087  0  4.014892  0  0  -0.093606  0  4.03778  0  0.004507  0  -0.091027  -0.086099  0  3.999389  0
C  C94  1  0.07121742  0.53726187  0.52657068  1  0  -0.07941  0  3.753532  0  0  -0.101642  0  3.994907  0  0  -0.10098  0  4.016357  0  -0.068226  0  -0.083244  -0.10181  0  3.980374  0
C  C95  1  0.92878095  0.46273922  0.02657450  1  0  -0.07941  0  3.753783  0  0  -0.101621  0  3.995144  0  0  -0.100972  0  4.016584  0  -0.068495  0  -0.083244  -0.101793  0  3.980613  0
C  C96  1  0.53707304  0.07103502  0.47340971  1  0  -0.079014  0  3.754559  0  0  -0.101492  0  3.996177  0  0  -0.100815  0  4.017626  0  -0.061193  0  -0.083189  -0.101702  0  3.981607  0
C  C97  1  0.46292254  0.92896217  0.97340971  1  0  -0.079056  0  3.754556  0  0  -0.10153  0  3.996199  0  0  -0.100854  0  4.017649  0  -0.061172  0  -0.083204  -0.10174  0  3.981629  0
C  C98  1  0.35034836  0.11788146  0.64282086  1  0  0.115358  0  3.673951  0  0  0.051857  0  3.952108  0  0  0.059121  0  3.95766  0  0.437503  0  -0.075761  0.046989  0  3.9482  0
C  C99  1  0.64964905  0.88211443  0.14282086  1  0  0.115198  0  3.674014  0  0  0.05178  0  3.952084  0  0  0.059043  0  3.957635  0  0.437486  0  -0.075774  0.046913  0  3.948173  0
C  C100  1  0.11808944  0.35094031  0.35719493  1  0  0.115566  0  3.674036  0  0  0.052219  0  3.952377  0  0  0.059502  0  3.957942  0  0.433952  0  -0.075386  0.047342  0  3.948456  0
C  C101  1  0.88191300  0.64906208  0.85719589  1  0  0.115687  0  3.673957  0  0  0.052267  0  3.952379  0  0  0.059545  0  3.957944  0  0.433939  0  -0.075383  0.04739  0  3.948458  0
C  C102  1  0.20789612  0.08605754  0.59441473  1  0  0.042774  0  3.666349  0  0  -0.016915  0  3.939631  0  0  -0.01099  0  3.946333  0  0.409612  0  -0.073557  -0.020898  0  3.934935  0
C  C103  1  0.79210235  0.91394095  0.09441473  1  0  0.042805  0  3.666337  0  0  -0.016906  0  3.939631  0  0  -0.010982  0  3.946332  0  0.409652  0  -0.073577  -0.020886  0  3.934931  0
C  C104  1  0.08620719  0.20821017  0.40557857  1  0  0.043243  0  3.667266  0  0  -0.016453  0  3.9409  0  0  -0.010512  0  3.947595  0  0.410615  0  -0.073366  -0.020435  0  3.936194  0
C  C105  1  0.91378999  0.79179092  0.90557857  1  0  0.043223  0  3.667189  0  0  -0.016422  0  3.940776  0  0  -0.010483  0  3.947475  0  0.410593  0  -0.073339  -0.020406  0  3.936073  0
C  C106  1  0.94101388  0.08326510  0.91303755  1  0  -0.081674  0  3.664861  0  0  -0.172978  0  3.928121  0  0  -0.16768  0  3.933571  0  0.34721  0  -0.144213  -0.176341  0  3.924257  0
C  C107  1  0.05898276  0.91673469  0.41303612  1  0  -0.081633  0  3.664967  0  0  -0.172971  0  3.928214  0  0  -0.167682  0  3.933655  0  0.347291  0  -0.144225  -0.176347  0  3.924383  0
C  C108  1  0.08311596  0.94111038  0.08690696  1  0  -0.080501  0  3.663864  0  0  -0.171774  0  3.926677  0  0  -0.166514  0  3.932197  0  0.34662  0  -0.143901  -0.175129  0  3.922786  0
C  C109  1  0.91688134  0.05888811  0.58690696  1  0  -0.080507  0  3.663799  0  0  -0.171782  0  3.926613  0  0  -0.166521  0  3.932132  0  0.346616  0  -0.143882  -0.175139  0  3.922724  0
O  O110  1  0.72850287  0.77443596  0.71620856  1  0  -0.683064  0  1.950991  0  0  -0.624479  0  2.197536  0  0  -0.651223  0  2.188145  0  -1.209404  0  -0.382832  -0.605513  0  2.203363  0
O  O111  1  0.27150312  0.22556643  0.21620952  1  0  -0.683037  0  1.950931  0  0  -0.624464  0  2.197469  0  0  -0.651207  0  2.188079  0  -1.209365  0  -0.382863  -0.605498  0  2.203296  0
O  O112  1  0.77467251  0.72911502  0.28361684  1  0  -0.6824  0  1.952647  0  0  -0.624047  0  2.199299  0  0  -0.650755  0  2.189805  0  -1.208963  0  -0.382941  -0.605112  0  2.205194  0
O  O113  1  0.22532757  0.27088736  0.78361540  1  0  -0.682327  0  1.952715  0  0  -0.623993  0  2.199374  0  0  -0.650699  0  2.189882  0  -1.208984  0  -0.382941  -0.605059  0  2.205271  0
O  O114  1  0.56110127  0.91332243  0.68719110  1  0  -0.636821  0  2.008146  0  0  -0.576709  0  2.234922  0  0  -0.601903  0  2.223612  0  -1.193321  0  -0.305102  -0.559079  0  2.242251  0
O  O115  1  0.43890118  0.08667995  0.18719158  1  0  -0.636707  0  2.008084  0  0  -0.576689  0  2.234936  0  0  -0.601882  0  2.223623  0  -1.193345  0  -0.305085  -0.559057  0  2.242264  0
O  O116  1  0.91288708  0.56131920  0.31298350  1  0  -0.636752  0  2.009852  0  0  -0.576802  0  2.236473  0  0  -0.602064  0  2.225142  0  -1.194686  0  -0.304845  -0.559136  0  2.24382  0
O  O117  1  0.08711365  0.43868189  0.81298158  1  0  -0.636694  0  2.009841  0  0  -0.576738  0  2.236449  0  0  -0.601999  0  2.225118  0  -1.194645  0  -0.304832  -0.559072  0  2.243797  0
O  O118  1  0.27189079  0.60191417  0.68431284  1  0  -0.314028  0  2.299822  0  0  -0.2473  0  2.534617  0  0  -0.26712  0  2.531859  0  -1.062485  0  -0.151169  -0.233525  0  2.536133  0
O  O119  1  0.72811661  0.39808302  0.18431906  1  0  -0.314005  0  2.299708  0  0  -0.247235  0  2.534342  0  0  -0.267058  0  2.531604  0  -1.062114  0  -0.151151  -0.233474  0  2.53586  0
O  O120  1  0.60187296  0.27184243  0.31564984  1  0  -0.313748  0  2.300449  0  0  -0.247824  0  2.535807  0  0  -0.267636  0  2.533084  0  -1.060981  0  -0.151467  -0.234021  0  2.537296  0
O  O121  1  0.39812831  0.72815995  0.81564650  1  0  -0.31357  0  2.300513  0  0  -0.247595  0  2.53571  0  0  -0.26741  0  2.532994  0  -1.061266  0  -0.151321  -0.233792  0  2.537194  0
O  O122  1  0.37072700  0.53926816  0.59064913  1  0  -0.525918  0  1.931017  0  0  -0.481503  0  2.148014  0  0  -0.501507  0  2.139848  0  -1.145466  0  -0.274605  -0.467823  0  2.153383  0
O  O123  1  0.62928499  0.46074592  0.09065822  1  0  -0.526099  0  1.931176  0  0  -0.481665  0  2.148139  0  0  -0.50167  0  2.139999  0  -1.145133  0  -0.274719  -0.467993  0  2.153516  0
O  O124  1  0.53983491  0.37114619  0.40934178  1  0  -0.526196  0  1.930733  0  0  -0.481894  0  2.147231  0  0  -0.501903  0  2.139105  0  -1.144553  0  -0.274725  -0.468173  0  2.152537  0
O  O125  1  0.46016066  0.62885100  0.90933844  1  0  -0.526092  0  1.930807  0  0  -0.481798  0  2.147322  0  0  -0.501802  0  2.13919  0  -1.144701  0  -0.274669  -0.468084  0  2.152641  0
O  O126  1  0.84901061  0.15149079  0.74980961  1  0  -0.902004  0  1.857404  0  0  -0.846175  0  2.032337  0  0  -0.864935  0  1.99923  0  -1.303419  0  -0.645028  -0.832791  0  2.05546  0
O  O127  1  0.15098787  0.84850770  0.24980961  1  0  -0.902011  0  1.857422  0  0  -0.846192  0  2.032303  0  0  -0.864952  0  1.999194  0  -1.30341  0  -0.645038  -0.83281  0  2.055426  0
O  O128  1  0.29294851  0.98583748  0.69115236  1  0  -0.63838  0  2.08924  0  0  -0.574225  0  2.332331  0  0  -0.593  0  2.315832  0  -1.195219  0  -0.462191  -0.560765  0  2.343509  0
O  O129  1  0.70704825  0.01415971  0.19115283  1  0  -0.638309  0  2.089297  0  0  -0.574199  0  2.33231  0  0  -0.592973  0  2.315809  0  -1.19517  0  -0.462203  -0.560738  0  2.343488  0
O  O130  1  0.98628118  0.29359591  0.30885291  1  0  -0.639107  0  2.088221  0  0  -0.574665  0  2.33137  0  0  -0.593501  0  2.314747  0  -1.191559  0  -0.462683  -0.56116  0  2.342635  0
O  O131  1  0.01372577  0.70641168  0.80885530  1  0  -0.639098  0  2.088179  0  0  -0.574643  0  2.33142  0  0  -0.593479  0  2.314796  0  -1.191507  0  -0.46269  -0.561139  0  2.342683  0
O  O132  1  0.06032156  0.08522461  0.62836068  1  0  -0.324774  0  2.320862  0  0  -0.238923  0  2.573642  0  0  -0.256564  0  2.576247  0  -1.085692  0  -0.262177  -0.226378  0  2.571386  0
O  O133  1  0.93967692  0.91477388  0.12836116  1  0  -0.324756  0  2.320879  0  0  -0.238918  0  2.573677  0  0  -0.256557  0  2.576282  0  -1.085734  0  -0.262175  -0.226372  0  2.571418  0
O  O134  1  0.08542746  0.06047469  0.37161062  1  0  -0.323771  0  2.321646  0  0  -0.238265  0  2.574575  0  0  -0.255887  0  2.577161  0  -1.085306  0  -0.261556  -0.225737  0  2.572328  0
O  O135  1  0.91457327  0.93952640  0.87161158  1  0  -0.323801  0  2.321692  0  0  -0.238296  0  2.574584  0  0  -0.255921  0  2.577169  0  -1.085261  0  -0.261586  -0.225767  0  2.572339  0
