# generated using pymatgen
data_CuH10(C2O)6
_symmetry_space_group_name_H-M   'P 1'
_cell_length_a   6.52730275
_cell_length_b   6.77433849
_cell_length_c   12.55616329
_cell_angle_alpha   91.54737460
_cell_angle_beta   90.00036963
_cell_angle_gamma   90.00011984
_symmetry_Int_Tables_number   1
_chemical_formula_structural   CuH10(C2O)6
_chemical_formula_sum   'Cu2 H20 C24 O12'
_cell_volume   555.00795125
_cell_formula_units_Z   2
loop_
 _symmetry_equiv_pos_site_id
 _symmetry_equiv_pos_as_xyz
  1  'x, y, z'
loop_
 _atom_site_type_symbol
 _atom_site_label
 _atom_site_symmetry_multiplicity
 _atom_site_fract_x
 _atom_site_fract_y
 _atom_site_fract_z
 _atom_site_occupancy
 _atom_site_hle17_ddec_charge
 _atom_site_hle17_ddec_spin_density
 _atom_site_hle17_ddec_sum_bond_order
 _atom_site_hle17_magmom
 _atom_site_hse06_10hf_ddec_charge
 _atom_site_hse06_10hf_ddec_spin_density
 _atom_site_hse06_10hf_ddec_sum_bond_order
 _atom_site_hse06_10hf_magmom
 _atom_site_hse06_ddec_charge
 _atom_site_hse06_ddec_spin_density
 _atom_site_hse06_ddec_sum_bond_order
 _atom_site_hse06_magmom
 _atom_site_pbe_cm5_charge
 _atom_site_pbe_ddec_charge
 _atom_site_pbe_ddec_spin_density
 _atom_site_pbe_ddec_sum_bond_order
 _atom_site_pbe_magmom
Cu  Cu0  1  0.86969054  0.69957304  0.48412254  1  1.051618  -0.738142  1.597851  -0.535  1.056552  -0.834893  1.974292  -0.667  1.138844  -0.903254  1.916469  -0.752  0.715102  0.983595  -0.780569  2.046751  -0.608
Cu  Cu1  1  0.36969210  0.30043691  0.51587703  1  1.051631  0.738145  1.597921  0.535  1.05657  0.834893  1.97438  0.667  1.138835  0.903242  1.916531  0.752  0.7151  0.983618  0.780574  2.046846  0.608
H  H2  1  0.67147631  0.86662992  0.85462951  1  0.101014  0.000112  0.957902  0.0  0.111776  -0.000111  1.021926  0.0  0.114192  -6.4e-05  1.021843  0.0  0.103867  0.109938  -0.000153  1.022298  0.0
H  H3  1  0.17145468  0.13336184  0.14535796  1  0.100904  -0.000115  0.95791  0.0  0.111655  0.000111  1.02198  0.0  0.114046  6.5e-05  1.02193  0.0  0.103842  0.109823  0.000153  1.022348  0.0
H  H4  1  0.66874602  0.92713124  0.05034375  1  0.098014  0.000162  0.956175  0.0  0.110079  4e-06  1.014486  0.0  0.112453  4e-06  1.014871  0.0  0.102053  0.108409  8e-06  1.014245  0.0
H  H5  1  0.16875700  0.07283836  0.94964259  1  0.098038  -0.000163  0.956257  0.0  0.110154  -4e-06  1.014495  0.0  0.112529  -4e-06  1.014878  0.0  0.102063  0.108484  -8e-06  1.014255  0.0
H  H6  1  0.73149190  0.15009317  0.20599177  1  0.097245  -0.000253  0.946727  0.0  0.107591  -0.000398  1.004688  0.0  0.110908  -0.000288  1.00282  0.0  0.100661  0.105096  -0.000495  1.006393  0.0
H  H7  1  0.23151625  0.84987067  0.79399947  1  0.097299  0.000253  0.946584  0.0  0.107628  0.000398  1.004576  0.0  0.110948  0.000288  1.002701  0.0  0.10067  0.105133  0.000495  1.006279  0.0
H  H8  1  0.85638286  0.49339285  0.18109982  1  0.107655  -0.000113  0.9588  0.0  0.118287  -0.000239  1.015136  0.0  0.121498  -0.000153  1.013927  0.0  0.100579  0.11592  -0.000327  1.01621  0.0
H  H9  1  0.35640380  0.50658161  0.81891032  1  0.107632  0.000111  0.958816  0.0  0.11825  0.000239  1.015171  0.0  0.12146  0.000153  1.013961  0.0  0.100563  0.115879  0.000327  1.016241  0.0
H  H10  1  0.91244018  0.61635406  0.99847996  1  0.090697  9.7e-05  0.968712  0.0  0.101106  9e-06  1.032487  0.0  0.103037  3e-06  1.033275  0.0  0.099205  0.099675  1.6e-05  1.032061  0.0
H  H11  1  0.41244639  0.38363383  0.00153217  1  0.090471  -9.7e-05  0.968938  0.0  0.100888  -9e-06  1.032678  0.0  0.102819  -3e-06  1.033467  0.0  0.099115  0.099475  -1.6e-05  1.03224  0.0
H  H12  1  0.89817271  0.55994965  0.80204559  1  0.104518  -9e-06  0.948594  0.0  0.113937  -7.9e-05  1.013097  0.0  0.117001  -3.6e-05  1.011317  0.0  0.105043  0.111616  -0.000123  1.014712  0.0
H  H13  1  0.39816302  0.44006036  0.19796443  1  0.104532  6e-06  0.948607  0.0  0.113965  7.8e-05  1.013094  0.0  0.117034  3.6e-05  1.0113  0.0  0.105074  0.111637  0.000123  1.014731  0.0
H  H14  1  0.86982802  0.99588938  0.37124684  1  0.420824  0.00037  0.886331  0.001  0.394274  -0.000147  0.94437  0.0  0.40601  -1.4e-05  0.927713  0.0  0.292013  0.385807  -0.000251  0.956305  0.0
H  H15  1  0.36983958  0.00412796  0.62875284  1  0.420841  -0.00037  0.886337  -0.001  0.394295  0.000147  0.944382  0.0  0.40603  1.4e-05  0.927726  0.0  0.291971  0.385829  0.000251  0.956316  0.0
H  H16  1  0.63206685  0.96327185  0.39716972  1  0.430949  0.000103  0.863663  0.0  0.404949  -0.000359  0.921407  -0.001  0.417413  -0.000326  0.903607  -0.001  0.296632  0.395928  -0.000349  0.934199  -0.001
H  H17  1  0.13207662  0.03674195  0.60283148  1  0.430995  -0.000104  0.863546  0.0  0.404991  0.000359  0.921347  0.001  0.417456  0.000326  0.903545  0.001  0.296664  0.395959  0.000348  0.934154  0.001
H  H18  1  0.68986497  0.46688196  0.37030080  1  0.429143  0.00054  0.864787  0.001  0.401297  3.1e-05  0.930291  0.0  0.413702  0.000106  0.912262  0.0  0.299702  0.392657  -2.9e-05  0.942663  0.0
H  H19  1  0.18987448  0.53313493  0.62970304  1  0.429069  -0.000539  0.864817  -0.001  0.401209  -3e-05  0.930408  0.0  0.413616  -0.000106  0.912375  0.0  0.299686  0.392569  2.9e-05  0.942781  0.0
H  H20  1  0.91277480  0.37189937  0.38349381  1  0.439717  0.000317  0.843739  0.001  0.411985  -0.000331  0.909279  0.0  0.423026  -0.000203  0.893264  0.0  0.305538  0.404069  -0.000428  0.920621  0.0
H  H21  1  0.41278126  0.62812102  0.61650687  1  0.439734  -0.000316  0.843681  -0.001  0.411997  0.000331  0.909261  0.0  0.42304  0.000203  0.893244  0.0  0.305533  0.404079  0.000428  0.920607  0.0
C  C22  1  0.73447513  0.94097655  0.64952343  1  0.678991  0.004312  3.857615  0.007  0.627917  0.00048  4.161819  0.003  0.666031  0.000908  4.15145  0.003  0.224207  0.602012  8.3e-05  4.166477  0.003
C  C23  1  0.23446962  0.05904193  0.35047023  1  0.678789  -0.004311  3.857941  -0.007  0.627786  -0.00048  4.162041  -0.003  0.665895  -0.00091  4.151677  -0.003  0.224083  0.601903  -8.3e-05  4.166674  -0.003
C  C24  1  0.81930268  0.36124015  0.61682710  1  0.661229  0.001182  3.874928  0.004  0.620099  -0.001808  4.17253  0.0  0.659724  -0.001074  4.161081  0.0  0.212347  0.592908  -0.002524  4.177006  0.0
C  C25  1  0.31929408  0.63877852  0.38317880  1  0.661022  -0.001177  3.875051  -0.004  0.619912  0.001807  4.172664  0.0  0.659518  0.001072  4.161227  0.0  0.21224  0.592729  0.002524  4.177134  0.0
C  C26  1  0.75471601  0.08466891  0.74181392  1  -0.057992  -0.007292  3.726831  -0.008  -0.046142  -0.004447  3.963841  -0.005  -0.051742  -0.002679  3.985796  -0.003  -0.011414  -0.042466  -0.005912  3.949433  -0.007
C  C27  1  0.25470948  0.91534077  0.25818048  1  -0.058211  0.007277  3.727309  0.008  -0.046356  0.004446  3.964277  0.005  -0.051972  0.002683  3.986221  0.003  -0.011504  -0.042665  0.005911  3.949866  0.007
C  C28  1  0.72184080  0.01805041  0.84319235  1  -0.110601  -0.010654  3.698666  -0.01  -0.143952  -0.002693  3.950462  -0.003  -0.14591  -0.001665  3.971417  -0.002  -0.079795  -0.142506  -0.004033  3.936378  -0.004
C  C29  1  0.22183164  0.98194441  0.15680410  1  -0.110267  0.010678  3.69866  0.01  -0.143613  0.002693  3.950389  0.003  -0.145553  0.001665  3.971358  0.002  -0.079673  -0.142166  0.004031  3.936302  0.004
C  C30  1  0.75372294  0.14332004  0.93411730  1  0.053842  0.00065  3.797376  0.001  0.071678  -0.000348  4.026008  0.0  0.072385  -6e-05  4.049346  0.0  -0.005195  0.071188  -0.00059  4.010128  -0.001
C  C31  1  0.25370172  0.85666305  0.06587908  1  0.053854  -0.000672  3.79743  -0.001  0.071685  0.000348  4.026051  0.0  0.072396  6.1e-05  4.049382  0.0  -0.005204  0.071193  0.000591  4.010174  0.001
C  C32  1  0.72085549  0.07798300  0.03906854  1  -0.116455  -0.005931  3.73557  -0.005  -0.138618  -0.000682  3.988561  -0.001  -0.14201  -0.000443  4.009703  0.0  -0.0883  -0.136181  -0.001156  3.974039  -0.001
C  C33  1  0.22085289  0.92200148  0.96092935  1  -0.116711  0.005954  3.735759  0.005  -0.138912  0.000683  3.988713  0.001  -0.142307  0.000442  4.009853  0.0  -0.088384  -0.136473  0.001156  3.974189  0.001
C  C34  1  0.75621530  0.20303926  0.12576848  1  -0.060553  0.000326  3.754867  0.001  -0.076056  -0.000419  4.015949  0.0  -0.07662  -0.000131  4.035335  0.0  -0.08932  -0.075564  -0.000657  4.002701  -0.001
C  C35  1  0.25623593  0.79693793  0.87422942  1  -0.060258  -0.000341  3.75458  -0.001  -0.075749  0.000418  4.015664  0.0  -0.076311  0.000133  4.035053  0.0  -0.089216  -0.075255  0.000657  4.002407  0.001
C  C36  1  0.82745616  0.39794173  0.11142090  1  -0.072135  -0.004805  3.751371  -0.004  -0.091135  -0.001149  4.011355  -0.001  -0.093796  -0.000735  4.032055  -0.001  -0.093727  -0.08921  -0.001773  3.997167  -0.002
C  C37  1  0.32745974  0.60203710  0.88858364  1  -0.072501  0.004816  3.751771  0.004  -0.091526  0.001148  4.01184  0.001  -0.094191  0.000735  4.032542  0.001  -0.09383  -0.089597  0.001772  3.997654  0.002
C  C38  1  0.85893109  0.46599254  0.01012835  1  -0.109249  -0.001417  3.74696  -0.001  -0.129459  1.8e-05  3.999405  0.0  -0.13173  0.000191  4.022203  0.0  -0.087331  -0.127731  -0.000215  3.983779  0.0
C  C39  1  0.35892811  0.53398193  0.98988101  1  -0.108641  0.001405  3.746754  0.001  -0.128813  -1.8e-05  3.999086  0.0  -0.13108  -0.000191  4.021884  0.0  -0.087167  -0.127109  0.000215  3.983464  0.0
C  C40  1  0.82350991  0.34159143  0.91935012  1  0.044503  -0.001874  3.796923  -0.002  0.060534  -0.000642  4.025799  -0.001  0.058815  -0.000429  4.049818  0.0  -0.007288  0.061642  -0.000941  4.009488  -0.001
C  C41  1  0.32350074  0.65840068  0.08065540  1  0.04427  0.001876  3.797055  0.002  0.060355  0.000641  4.025849  0.001  0.058629  0.000429  4.049875  0.0  -0.007266  0.061471  0.00094  4.009541  0.001
C  C42  1  0.85266686  0.40740820  0.81424838  1  -0.08461  -0.002049  3.673997  -0.002  -0.115566  -0.00038  3.922839  0.0  -0.113216  4.9e-05  3.940835  0.0  -0.072947  -0.117107  -0.000875  3.911106  -0.001
C  C43  1  0.35265578  0.59259432  0.18575500  1  -0.08458  0.002067  3.673897  0.002  -0.115555  0.000381  3.922729  0.0  -0.113221  -4.9e-05  3.940713  0.0  -0.072957  -0.117087  0.000876  3.911007  0.001
C  C44  1  0.81812208  0.28374533  0.72685963  1  -0.065976  -0.011846  3.728846  -0.012  -0.05621  -0.00551  3.964209  -0.006  -0.0657  -0.003557  3.98742  -0.004  -0.016887  -0.050048  -0.007294  3.949217  -0.008
C  C45  1  0.31810616  0.71626301  0.27314213  1  -0.065862  0.011839  3.728585  0.012  -0.056159  0.00551  3.963997  0.006  -0.065598  0.003559  3.987148  0.004  -0.016894  -0.050031  0.007294  3.949049  0.008
O  O46  1  0.89988306  0.90686671  0.59596652  1  -0.604695  -0.090985  2.118958  -0.122  -0.567158  -0.056439  2.386488  -0.083  -0.611183  -0.042948  2.378674  -0.066  -0.307714  -0.53478  -0.064262  2.39236  -0.09
O  O47  1  0.39988440  0.09315218  0.40403011  1  -0.604527  0.090983  2.118872  0.122  -0.567049  0.056443  2.386403  0.083  -0.611059  0.042955  2.378562  0.066  -0.307658  -0.534701  0.064263  2.392281  0.09
O  O48  1  0.56762807  0.85173065  0.63138574  1  -0.635815  0.001647  2.014256  0.001  -0.589818  0.000937  2.251433  0.0  -0.61514  0.001173  2.236908  0.001  -0.304561  -0.570647  0.000832  2.259704  0.0
O  O49  1  0.06763674  0.14828004  0.36860644  1  -0.635694  -0.001649  2.014485  -0.001  -0.589772  -0.000938  2.251709  0.0  -0.615085  -0.001174  2.23718  -0.001  -0.304512  -0.570607  -0.000834  2.259968  0.0
O  O50  1  0.93194497  0.51616393  0.60078459  1  -0.657574  -0.082067  2.134411  -0.109  -0.626297  -0.05132  2.421186  -0.075  -0.666028  -0.038105  2.407057  -0.058  -0.326377  -0.595106  -0.060141  2.429534  -0.084
O  O51  1  0.43194699  0.48385355  0.39922088  1  -0.657617  0.082081  2.134374  0.109  -0.626322  0.051326  2.421117  0.075  -0.666053  0.038112  2.406996  0.058  -0.326331  -0.595133  0.060145  2.429465  0.084
O  O52  1  0.70900088  0.27858180  0.54714704  1  -0.634511  -0.001191  2.072084  -0.001  -0.603326  -0.001103  2.338903  -0.001  -0.630499  -0.000466  2.324484  0.0  -0.318581  -0.580625  -0.00182  2.347533  -0.002
O  O53  1  0.20899940  0.72142924  0.45285199  1  -0.634354  0.001182  2.072284  0.001  -0.603154  0.001103  2.339069  0.001  -0.630319  0.000465  2.324655  0.0  -0.318521  -0.580467  0.001819  2.34772  0.002
O  O54  1  0.76126092  0.89198659  0.37874153  1  -0.804301  -0.057449  1.920063  -0.075  -0.771257  -0.043451  2.124922  -0.061  -0.802573  -0.034204  2.088023  -0.051  -0.579564  -0.746487  -0.049014  2.15288  -0.066
O  O55  1  0.26127258  0.10802900  0.62125855  1  -0.804358  0.057444  1.920006  0.075  -0.771345  0.043447  2.124884  0.061  -0.802657  0.034202  2.087975  0.051  -0.579585  -0.746572  0.04901  2.152847  0.066
O  O56  1  0.83994382  0.49558450  0.36728814  1  -0.795511  -0.057985  1.962335  -0.075  -0.757059  -0.044268  2.174082  -0.062  -0.788891  -0.034832  2.140128  -0.051  -0.567928  -0.731976  -0.05014  2.199311  -0.067
O  O57  1  0.33995484  0.50443277  0.63270825  1  -0.795475  0.05798  1.962323  0.075  -0.757022  0.044265  2.174137  0.062  -0.788848  0.034831  2.140168  0.051  -0.567923  -0.731942  0.050137  2.199368  0.067
