# generated using pymatgen
data_KH5C6NO3
_symmetry_space_group_name_H-M   'P 1'
_cell_length_a   3.73154364
_cell_length_b   7.91620543
_cell_length_c   26.54222423
_cell_angle_alpha   89.99901254
_cell_angle_beta   93.66806351
_cell_angle_gamma   90.00054814
_symmetry_Int_Tables_number   1
_chemical_formula_structural   KH5C6NO3
_chemical_formula_sum   'K4 H20 C24 N4 O12'
_cell_volume   782.44226331
_cell_formula_units_Z   4
loop_
 _symmetry_equiv_pos_site_id
 _symmetry_equiv_pos_as_xyz
  1  'x, y, z'
loop_
 _atom_site_type_symbol
 _atom_site_label
 _atom_site_symmetry_multiplicity
 _atom_site_fract_x
 _atom_site_fract_y
 _atom_site_fract_z
 _atom_site_occupancy
 _atom_site_hle17_bader_spin_density
 _atom_site_hle17_ddec_charge
 _atom_site_hle17_ddec_spin_density
 _atom_site_hle17_ddec_sum_bond_order
 _atom_site_hle17_magmom
 _atom_site_hse06_10hf_bader_spin_density
 _atom_site_hse06_10hf_ddec_charge
 _atom_site_hse06_10hf_ddec_spin_density
 _atom_site_hse06_10hf_ddec_sum_bond_order
 _atom_site_hse06_10hf_magmom
 _atom_site_hse06_bader_spin_density
 _atom_site_hse06_ddec_charge
 _atom_site_hse06_ddec_spin_density
 _atom_site_hse06_ddec_sum_bond_order
 _atom_site_hse06_magmom
 _atom_site_pbe_bader_spin_density
 _atom_site_pbe_cm5_charge
 _atom_site_pbe_ddec_charge
 _atom_site_pbe_ddec_spin_density
 _atom_site_pbe_ddec_sum_bond_order
 _atom_site_pbe_magmom
K  K0  1  0.06813746  0.72569374  0.22261150  1  0  0.933559  0  0.459688  0  0  0.8894  0  0.640494  0  0  0.903737  0  0.617533  0  0  0.777131  0.878494  0  0.657074  0
K  K1  1  0.93194533  0.22569944  0.27738333  1  0  0.933555  0  0.459753  0  0  0.889368  0  0.640603  0  0  0.903697  0  0.61765  0  0  0.77715  0.878467  0  0.657187  0
K  K2  1  0.93186948  0.27429428  0.77738528  1  0  0.93355  0  0.459731  0  0  0.889402  0  0.640517  0  0  0.903731  0  0.617568  0  0  0.777161  0.878508  0  0.657095  0
K  K3  1  0.06811012  0.77428858  0.72261760  1  0  0.933556  0  0.459705  0  0  0.889402  0  0.640492  0  0  0.903733  0  0.617542  0  0  0.777132  0.878503  0  0.657071  0
H  H4  1  0.49128197  0.42817977  0.17374823  1  0  0.428602  0  0.88209  0  0  0.395839  0  0.94985  0  0  0.407387  0  0.932917  0  0  0.28721  0.38772  0  0.961739  0
H  H5  1  0.50873763  0.92817889  0.32624805  1  0  0.428579  0  0.882104  0  0  0.395823  0  0.949858  0  0  0.40737  0  0.932927  0  0  0.28719  0.387704  0  0.961742  0
H  H6  1  0.50874110  0.57182214  0.82624905  1  0  0.42855  0  0.882155  0  0  0.395795  0  0.949906  0  0  0.407343  0  0.932974  0  0  0.287177  0.387677  0  0.961789  0
H  H7  1  0.49126390  0.07181797  0.67374793  1  0  0.428641  0  0.882023  0  0  0.395882  0  0.949779  0  0  0.407427  0  0.93285  0  0  0.287223  0.387765  0  0.96166  0
H  H8  1  0.51769560  0.54488863  0.12599216  1  0  0.408768  0  0.852366  0  0  0.398065  0  0.898364  0  0  0.404525  0  0.888774  0  0  0.31389  0.393462  0  0.905232  0
H  H9  1  0.48229788  0.04487927  0.37400363  1  0  0.40859  0  0.852695  0  0  0.397972  0  0.898509  0  0  0.404433  0  0.888918  0  0  0.313849  0.393362  0  0.905388  0
H  H10  1  0.48230858  0.45511076  0.87400308  1  0  0.40868  0  0.85262  0  0  0.398079  0  0.898369  0  0  0.404539  0  0.88878  0  0  0.313902  0.393471  0  0.905246  0
H  H11  1  0.51770107  0.95510496  0.62599459  1  0  0.408729  0  0.852476  0  0  0.398054  0  0.898391  0  0  0.404515  0  0.888801  0  0  0.313865  0.393449  0  0.905263  0
H  H12  1  0.47983274  0.32889395  0.38032434  1  0  0.067516  0  0.962394  0  0  0.075094  0  1.03126  0  0  0.078281  0  1.0281  0  0  0.114885  0.072764  0  1.03355  0
H  H13  1  0.52015837  0.82890747  0.11967713  1  0  0.067519  0  0.962598  0  0  0.075096  0  1.031461  0  0  0.078291  0  1.028273  0  0  0.11487  0.072757  0  1.033766  0
H  H14  1  0.52013685  0.67109533  0.61967741  1  0  0.067502  0  0.962462  0  0  0.075063  0  1.031339  0  0  0.078263  0  1.028151  0  0  0.114847  0.072731  0  1.03362  0
H  H15  1  0.47983541  0.17109824  0.88032519  1  0  0.067556  0  0.962512  0  0  0.075116  0  1.031401  0  0  0.078319  0  1.028213  0  0  0.114873  0.072772  0  1.033723  0
H  H16  1  0.94746855  0.82390730  0.38316938  1  0  0.089476  0  0.961944  0  0  0.100147  0  1.025143  0  0  0.103887  0  1.021673  0  0  0.108028  0.097353  0  1.027755  0
H  H17  1  0.05253045  0.32391206  0.11683067  1  0  0.089433  0  0.961937  0  0  0.100132  0  1.025117  0  0  0.103876  0  1.021637  0  0  0.108017  0.097339  0  1.027739  0
H  H18  1  0.05246864  0.17608325  0.61682834  1  0  0.089494  0  0.961738  0  0  0.100207  0  1.024912  0  0  0.103956  0  1.02142  0  0  0.108056  0.09741  0  1.027541  0
H  H19  1  0.94748767  0.67609111  0.88317561  1  0  0.089386  0  0.961933  0  0  0.100096  0  1.025123  0  0  0.103844  0  1.021633  0  0  0.107984  0.097299  0  1.027747  0
H  H20  1  0.15613152  0.77006657  0.47467006  1  0  0.109537  0  0.949432  0  0  0.114868  0  1.013536  0  0  0.119548  0  1.010581  0  0  0.103715  0.111482  0  1.015851  0
H  H21  1  0.84383154  0.27007241  0.02532961  1  0  0.10957  0  0.94937  0  0  0.114862  0  1.013494  0  0  0.119542  0  1.010538  0  0  0.103698  0.111476  0  1.015812  0
H  H22  1  0.84383250  0.22993156  0.52532750  1  0  0.109536  0  0.949311  0  0  0.114844  0  1.013437  0  0  0.119523  0  1.010484  0  0  0.103703  0.111459  0  1.015754  0
H  H23  1  0.15613823  0.72994087  0.97467591  1  0  0.109541  0  0.9494  0  0  0.114855  0  1.013518  0  0  0.119536  0  1.010563  0  0  0.103697  0.111464  0  1.015836  0
C  C24  1  0.93485219  0.51922461  0.47368543  1  0  0.189273  0  3.737327  0  0  0.186501  0  3.986425  0  0  0.19313  0  4.005219  0  0  0.123057  0.182169  0  3.97353  0
C  C25  1  0.06515439  0.01923335  0.02631400  1  0  0.189332  0  3.737526  0  0  0.186541  0  3.986586  0  0  0.193166  0  4.005389  0  0  0.12302  0.182206  0  3.973695  0
C  C26  1  0.06515219  0.48077351  0.52631396  1  0  0.189217  0  3.737697  0  0  0.186466  0  3.986757  0  0  0.193094  0  4.005552  0  0  0.12305  0.182138  0  3.973857  0
C  C27  1  0.93485555  0.98078120  0.97368959  1  0  0.1892  0  3.737584  0  0  0.186468  0  3.986605  0  0  0.1931  0  4.005396  0  0  0.123011  0.182135  0  3.973713  0
C  C28  1  0.63417889  0.42804728  0.40035599  1  0  0.113857  0  3.737439  0  0  0.079805  0  3.998133  0  0  0.086579  0  4.014581  0  0  0.051026  0.075595  0  3.986842  0
C  C29  1  0.36583554  0.92805748  0.09964440  1  0  0.113743  0  3.737596  0  0  0.079685  0  3.998284  0  0  0.086456  0  4.014723  0  0  0.051051  0.075491  0  3.986992  0
C  C30  1  0.36580403  0.57194453  0.59964360  1  0  0.113959  0  3.73741  0  0  0.079952  0  3.998071  0  0  0.086726  0  4.014526  0  0  0.0511  0.075757  0  3.986786  0
C  C31  1  0.63416352  0.07195075  0.90035608  1  0  0.113761  0  3.737544  0  0  0.079704  0  3.998229  0  0  0.086476  0  4.014692  0  0  0.051008  0.075503  0  3.98693  0
C  C32  1  0.69477052  0.57984434  0.37505463  1  0  -0.118953  0  3.742073  0  0  -0.093666  0  3.975448  0  0  -0.10474  0  4.000066  0  0  -0.015204  -0.086672  0  3.958967  0
C  C33  1  0.30524521  0.07986616  0.12494343  1  0  -0.118824  0  3.74225  0  0  -0.09356  0  3.975638  0  0  -0.104602  0  4.000211  0  0  -0.015247  -0.086621  0  3.959229  0
C  C34  1  0.30520165  0.42014115  0.62494488  1  0  -0.118989  0  3.742059  0  0  -0.093789  0  3.975584  0  0  -0.10487  0  4.000202  0  0  -0.01525  -0.086851  0  3.959178  0
C  C35  1  0.69477273  0.92014586  0.87505909  1  0  -0.118753  0  3.742177  0  0  -0.093447  0  3.975532  0  0  -0.104531  0  4.000162  0  0  -0.015191  -0.086487  0  3.959088  0
C  C36  1  0.88691533  0.70592586  0.40208214  1  0  -0.030652  0  3.733842  0  0  -0.054842  0  3.977017  0  0  -0.052214  0  3.997302  0  0  -0.070499  -0.056096  0  3.963105  0
C  C37  1  0.11310028  0.20593702  0.09791941  1  0  -0.030644  0  3.733809  0  0  -0.054872  0  3.976987  0  0  -0.052252  0  3.997262  0  0  -0.070505  -0.056108  0  3.963098  0
C  C38  1  0.11306219  0.29407353  0.59791703  1  0  -0.030822  0  3.733705  0  0  -0.055039  0  3.976929  0  0  -0.052409  0  3.99722  0  0  -0.070572  -0.05627  0  3.96303  0
C  C39  1  0.88690970  0.79408005  0.90208493  1  0  -0.030782  0  3.734041  0  0  -0.055052  0  3.977252  0  0  -0.052422  0  3.997555  0  0  -0.070541  -0.056287  0  3.963335  0
C  C40  1  0.00433176  0.67673555  0.45202121  1  0  -0.136655  0  3.705276  0  0  -0.1538  0  3.953587  0  0  -0.161153  0  3.97495  0  0  -0.082526  -0.149015  0  3.939116  0
C  C41  1  0.99565901  0.17674708  0.04797765  1  0  -0.136756  0  3.704797  0  0  -0.153823  0  3.953055  0  0  -0.161179  0  3.974423  0  0  -0.082497  -0.149035  0  3.938587  0
C  C42  1  0.99565378  0.32326636  0.54797727  1  0  -0.13653  0  3.70498  0  0  -0.153633  0  3.953227  0  0  -0.160987  0  3.974591  0  0  -0.08247  -0.148852  0  3.93876  0
C  C43  1  0.00434023  0.82326873  0.95202660  1  0  -0.136448  0  3.704835  0  0  -0.153556  0  3.95306  0  0  -0.160906  0  3.974408  0  0  -0.082374  -0.148769  0  3.938586  0
C  C44  1  0.55800283  0.60330128  0.32096181  1  0  0.657583  0  3.968174  0  0  0.608225  0  4.270735  0  0  0.641462  0  4.263304  0  0  0.187252  0.585792  0  4.274916  0
C  C45  1  0.44205626  0.10328269  0.17903535  1  0  0.657523  0  3.968033  0  0  0.608168  0  4.270596  0  0  0.641395  0  4.263165  0  0  0.187359  0.585755  0  4.274769  0
C  C46  1  0.44199341  0.39669937  0.67903564  1  0  0.657856  0  3.967739  0  0  0.608484  0  4.270342  0  0  0.641726  0  4.262901  0  0  0.187432  0.586066  0  4.27453  0
C  C47  1  0.55798575  0.89671038  0.82096510  1  0  0.657623  0  3.968064  0  0  0.608257  0  4.270642  0  0  0.641497  0  4.263214  0  0  0.187391  0.58583  0  4.274823  0
N  N48  1  0.75152087  0.39604472  0.44794643  1  0  -0.345457  0  3.057919  0  0  -0.314304  0  3.327034  0  0  -0.325213  0  3.340103  0  0  -0.319341  -0.306904  0  3.318009  0
N  N49  1  0.24848221  0.89606094  0.05205404  1  0  -0.345372  0  3.057901  0  0  -0.314202  0  3.327013  0  0  -0.325117  0  3.340089  0  0  -0.319282  -0.306795  0  3.317972  0
N  N50  1  0.24846736  0.60394203  0.55205208  1  0  -0.345504  0  3.058171  0  0  -0.314359  0  3.32727  0  0  -0.32527  0  3.340345  0  0  -0.319374  -0.306953  0  3.318229  0
N  N51  1  0.75151692  0.10395614  0.94794795  1  0  -0.345517  0  3.057909  0  0  -0.31437  0  3.32701  0  0  -0.325284  0  3.340084  0  0  -0.31934  -0.30696  0  3.317972  0
O  O52  1  0.59848008  0.74872389  0.30088687  1  0  -0.72319  0  2.003159  0  0  -0.66485  0  2.23494  0  0  -0.689721  0  2.223668  0  0  -0.430652  -0.647355  0  2.242154  0
O  O53  1  0.40159801  0.24873429  0.19911308  1  0  -0.723317  0  2.002542  0  0  -0.664935  0  2.234257  0  0  -0.689813  0  2.222991  0  0  -0.430838  -0.64744  0  2.241469  0
O  O54  1  0.40153237  0.25126034  0.69911297  1  0  -0.723377  0  2.00277  0  0  -0.665007  0  2.234535  0  0  -0.68988  0  2.223258  0  0  -0.430809  -0.647513  0  2.241751  0
O  O55  1  0.59846557  0.75127646  0.80088943  1  0  -0.723311  0  2.002952  0  0  -0.664953  0  2.234709  0  0  -0.689827  0  2.223436  0  0  -0.430795  -0.647451  0  2.241922  0
O  O56  1  0.41395476  0.47857774  0.29755845  1  0  -0.742195  0  1.954347  0  0  -0.701025  0  2.1994  0  0  -0.72446  0  2.190054  0  0  -0.466397  -0.684506  0  2.205292  0
O  O57  1  0.58605498  0.97858428  0.20243599  1  0  -0.742015  0  1.954802  0  0  -0.700869  0  2.199895  0  0  -0.724301  0  2.190555  0  0  -0.466326  -0.684336  0  2.205746  0
O  O58  1  0.58603610  0.52140776  0.70243895  1  0  -0.742197  0  1.954416  0  0  -0.701019  0  2.199467  0  0  -0.724456  0  2.190119  0  0  -0.466372  -0.684496  0  2.205347  0
O  O59  1  0.41395472  0.02142269  0.79756232  1  0  -0.742073  0  1.954544  0  0  -0.700911  0  2.1996  0  0  -0.724346  0  2.190258  0  0  -0.466368  -0.684386  0  2.205479  0
O  O60  1  0.55801900  0.54538665  0.16248630  1  0  -0.901113  0  1.762771  0  0  -0.865514  0  1.930245  0  0  -0.881097  0  1.900451  0  0  -0.681594  -0.854342  0  1.951131  0
O  O61  1  0.44200139  0.04538805  0.33751046  1  0  -0.900859  0  1.763064  0  0  -0.865331  0  1.930371  0  0  -0.880906  0  1.900578  0  0  -0.681511  -0.854166  0  1.951264  0
O  O62  1  0.44198794  0.45461400  0.83751048  1  0  -0.900961  0  1.763047  0  0  -0.865481  0  1.930312  0  0  -0.881062  0  1.900521  0  0  -0.681578  -0.854311  0  1.9512  0
O  O63  1  0.55801905  0.95461008  0.66248793  1  0  -0.901084  0  1.762823  0  0  -0.865509  0  1.930198  0  0  -0.881092  0  1.900409  0  0  -0.681558  -0.854344  0  1.951081  0
