# generated using pymatgen
data_TmH8C8NO9
_symmetry_space_group_name_H-M   'P 1'
_cell_length_a   9.38381710
_cell_length_b   9.90965265
_cell_length_c   14.10980000
_cell_angle_alpha   90.00000000
_cell_angle_beta   90.00000000
_cell_angle_gamma   92.84182150
_symmetry_Int_Tables_number   1
_chemical_formula_structural   TmH8C8NO9
_chemical_formula_sum   'Tm4 H32 C32 N4 O36'
_cell_volume   1310.46192343
_cell_formula_units_Z   4
loop_
 _symmetry_equiv_pos_site_id
 _symmetry_equiv_pos_as_xyz
  1  'x, y, z'
loop_
 _atom_site_type_symbol
 _atom_site_label
 _atom_site_symmetry_multiplicity
 _atom_site_fract_x
 _atom_site_fract_y
 _atom_site_fract_z
 _atom_site_occupancy
 _atom_site_hle17_bader_spin_density
 _atom_site_hle17_ddec_charge
 _atom_site_hle17_ddec_spin_density
 _atom_site_hle17_ddec_sum_bond_order
 _atom_site_hle17_magmom
 _atom_site_hse06_10hf_bader_spin_density
 _atom_site_hse06_10hf_ddec_charge
 _atom_site_hse06_10hf_ddec_spin_density
 _atom_site_hse06_10hf_ddec_sum_bond_order
 _atom_site_hse06_10hf_magmom
 _atom_site_hse06_bader_spin_density
 _atom_site_hse06_ddec_charge
 _atom_site_hse06_ddec_spin_density
 _atom_site_hse06_ddec_sum_bond_order
 _atom_site_hse06_magmom
 _atom_site_pbe_bader_charge
 _atom_site_pbe_bader_spin_density
 _atom_site_pbe_cm5_charge
 _atom_site_pbe_ddec_charge
 _atom_site_pbe_ddec_spin_density
 _atom_site_pbe_ddec_sum_bond_order
 _atom_site_pbe_magmom
Tm  Tm0  1  0.38282387  0.41851319  0.85471091  1  0  2.240804  0  1.633565  0  0  2.07852  0  2.132702  0  0  2.222746  0  1.91165  0  2.177174  0  1.541693  2.044444  0  2.161994  0
Tm  Tm1  1  0.61717481  0.08148752  0.35470878  1  0  2.240759  0  1.633609  0  0  2.07854  0  2.132636  0  0  2.222703  0  1.911694  0  2.177197  0  1.541721  2.04443  0  2.161982  0
Tm  Tm2  1  0.61717175  0.58148116  0.14528767  1  0  2.240722  0  1.633588  0  0  2.078347  0  2.132845  0  0  2.222664  0  1.911664  0  2.177109  0  1.54166  2.044304  0  2.162078  0
Tm  Tm3  1  0.38282763  0.91851491  0.64529051  1  0  2.240787  0  1.633592  0  0  2.078528  0  2.132666  0  0  2.222716  0  1.911676  0  2.177214  0  1.54165  2.044443  0  2.161972  0
H  H4  1  0.29756493  0.44132105  0.65687749  1  0  0.439761  0  0.854979  0  0  0.410467  0  0.915489  0  0  0.422119  0  0.898429  0  0.652407  0  0.297143  0.402278  0  0.9277  0
H  H5  1  0.70243450  0.05867360  0.15687607  1  0  0.43975  0  0.855007  0  0  0.410476  0  0.915473  0  0  0.422124  0  0.898421  0  0.652514  0  0.297135  0.402287  0  0.927684  0
H  H6  1  0.70243649  0.55868240  0.34312109  1  0  0.43967  0  0.855108  0  0  0.410411  0  0.915547  0  0  0.42206  0  0.898496  0  0.652412  0  0.297129  0.402223  0  0.927756  0
H  H7  1  0.29757199  0.94132479  0.84312393  1  0  0.439681  0  0.855083  0  0  0.410447  0  0.915472  0  0  0.422091  0  0.898429  0  0.652503  0  0.297133  0.402261  0  0.927678  0
H  H8  1  0.29228674  0.59214349  0.69593758  1  0  0.450156  0  0.846788  0  0  0.419446  0  0.908167  0  0  0.432029  0  0.890321  0  0.640587  0  0.297628  0.410837  0  0.920535  0
H  H9  1  0.70771056  0.90785359  0.19593899  1  0  0.45015  0  0.846781  0  0  0.419445  0  0.908154  0  0  0.432027  0  0.89031  0  0.640514  0  0.297637  0.410832  0  0.920532  0
H  H10  1  0.70770920  0.40785692  0.30406172  1  0  0.450159  0  0.846776  0  0  0.419436  0  0.908178  0  0  0.432019  0  0.890331  0  0.6406  0  0.297629  0.410823  0  0.920555  0
H  H11  1  0.29228730  0.09214278  0.80406242  1  0  0.450155  0  0.84679  0  0  0.419434  0  0.908188  0  0  0.432017  0  0.890342  0  0.640621  0  0.297625  0.410821  0  0.920567  0
H  H12  1  0.46219070  0.24252167  0.68813449  1  0  0.442909  0  0.851539  0  0  0.411628  0  0.914502  0  0  0.423166  0  0.898028  0  0.635297  0  0.304982  0.403477  0  0.926526  0
H  H13  1  0.53781000  0.25747702  0.18813661  1  0  0.442944  0  0.851479  0  0  0.411675  0  0.914424  0  0  0.423213  0  0.89795  0  0.635307  0  0.30498  0.403523  0  0.92645  0
H  H14  1  0.53780656  0.75748379  0.31185913  1  0  0.442973  0  0.851456  0  0  0.411709  0  0.914392  0  0  0.423248  0  0.897917  0  0.635318  0  0.305014  0.403561  0  0.926414  0
H  H15  1  0.46219100  0.74251834  0.81186197  1  0  0.442939  0  0.851493  0  0  0.411661  0  0.914454  0  0  0.423199  0  0.897979  0  0.635307  0  0.304998  0.403509  0  0.926478  0
H  H16  1  0.58242885  0.35549099  0.71320855  1  0  0.439989  0  0.804981  0  0  0.425126  0  0.8523  0  0  0.433784  0  0.84382  0  0.620422  0  0.334166  0.419054  0  0.859332  0
H  H17  1  0.41757052  0.14450264  0.21320430  1  0  0.44011  0  0.804898  0  0  0.425229  0  0.852234  0  0  0.433888  0  0.843745  0  0.620406  0  0.33419  0.419152  0  0.859275  0
H  H18  1  0.41757529  0.64450336  0.28679287  1  0  0.440011  0  0.804841  0  0  0.425116  0  0.852231  0  0  0.433778  0  0.843743  0  0.620447  0  0.334143  0.419039  0  0.859275  0
H  H19  1  0.58242733  0.85549373  0.78679570  1  0  0.440027  0  0.804847  0  0  0.425138  0  0.852212  0  0  0.433798  0  0.843724  0  0.620431  0  0.33415  0.419059  0  0.859258  0
H  H20  1  0.57773043  0.19325250  0.90052375  1  0  0.454283  0  0.791811  0  0  0.438429  0  0.838425  0  0  0.447321  0  0.825681  0  0.636838  0  0.337857  0.432309  0  0.847443  0
H  H21  1  0.42227028  0.30674619  0.40052091  1  0  0.454308  0  0.791752  0  0  0.438428  0  0.838424  0  0  0.447321  0  0.825679  0  0.636995  0  0.337873  0.432307  0  0.847433  0
H  H22  1  0.42226839  0.80674185  0.09947909  1  0  0.454327  0  0.791766  0  0  0.438422  0  0.838439  0  0  0.447317  0  0.825693  0  0.63701  0  0.337878  0.432302  0  0.847468  0
H  H23  1  0.57773546  0.69325826  0.59947767  1  0  0.454342  0  0.791707  0  0  0.438424  0  0.838432  0  0  0.447316  0  0.825688  0  0.636969  0  0.337858  0.432302  0  0.847444  0
H  H24  1  0.55513946  0.27096431  0.99827496  1  0  0.448133  0  0.837819  0  0  0.41458  0  0.904456  0  0  0.426291  0  0.887215  0  0.63711  0  0.308106  0.40656  0  0.916504  0
H  H25  1  0.44486359  0.22903842  0.49827071  1  0  0.44806  0  0.837936  0  0  0.414514  0  0.904557  0  0  0.426222  0  0.887322  0  0.637177  0  0.308054  0.406494  0  0.916604  0
H  H26  1  0.44486298  0.72903813  0.00172788  1  0  0.448126  0  0.837861  0  0  0.414556  0  0.904523  0  0  0.426269  0  0.887281  0  0.637157  0  0.308096  0.406535  0  0.916572  0
H  H27  1  0.55513874  0.77096199  0.50172575  1  0  0.448116  0  0.837841  0  0  0.414562  0  0.904481  0  0  0.426274  0  0.88724  0  0.637139  0  0.308112  0.406541  0  0.91653  0
H  H28  1  0.81326286  0.32264824  0.84147685  1  0  0.121679  0  0.934754  0  0  0.128716  0  0.998322  0  0  0.133562  0  0.994365  0  0.125778  0  0.118004  0.124833  0  1.001629  0
H  H29  1  0.18673294  0.17735853  0.34147472  1  0  0.121731  0  0.934654  0  0  0.128697  0  0.998281  0  0  0.133578  0  0.994287  0  0.12562  0  0.11802  0.124816  0  1.001586  0
H  H30  1  0.18673084  0.67735015  0.15853166  1  0  0.12177  0  0.934579  0  0  0.128701  0  0.998234  0  0  0.133609  0  0.994208  0  0.125696  0  0.118008  0.124819  0  1.00154  0
H  H31  1  0.81326581  0.82265502  0.65853166  1  0  0.121798  0  0.934662  0  0  0.128767  0  0.998288  0  0  0.133633  0  0.994307  0  0.125842  0  0.118035  0.124885  0  1.001594  0
H  H32  1  0.93565062  0.73227734  0.92933280  1  0  0.136479  0  0.904264  0  0  0.147354  0  0.957047  0  0  0.15151  0  0.954485  0  0.130314  0  0.126964  0.144094  0  0.959021  0
H  H33  1  0.06434806  0.76772581  0.42932926  1  0  0.136546  0  0.904189  0  0  0.147434  0  0.956951  0  0  0.151591  0  0.954388  0  0.12989  0  0.126979  0.144175  0  0.958924  0
H  H34  1  0.06434916  0.26771499  0.07067216  1  0  0.136498  0  0.904109  0  0  0.147415  0  0.956862  0  0  0.151571  0  0.954301  0  0.130009  0  0.126954  0.144154  0  0.95884  0
H  H35  1  0.93565022  0.23227865  0.57066294  1  0  0.136495  0  0.904161  0  0  0.147383  0  0.956927  0  0  0.151539  0  0.954366  0  0.130313  0  0.126978  0.144123  0  0.958903  0
C  C36  1  0.10182435  0.60033751  0.89055267  1  0  0.123229  0  3.744929  0  0  0.126838  0  3.998117  0  0  0.12719  0  4.020625  0  0.545923  0  0.12177  0.126103  0  3.985912  0
C  C37  1  0.89817124  0.89966766  0.39054558  1  0  0.123433  0  3.745323  0  0  0.127036  0  3.998455  0  0  0.127391  0  4.020957  0  0.545656  0  0.12177  0.1263  0  3.986244  0
C  C38  1  0.89817233  0.39965685  0.10945230  1  0  0.123293  0  3.745345  0  0  0.126979  0  3.998392  0  0  0.127339  0  4.020886  0  0.545748  0  0.121798  0.126247  0  3.986184  0
C  C39  1  0.10182177  0.10033780  0.60944875  1  0  0.123354  0  3.745177  0  0  0.126978  0  3.998338  0  0  0.127329  0  4.020845  0  0.545692  0  0.121755  0.126246  0  3.986128  0
C  C40  1  0.03667332  0.37879595  0.84959390  1  0  0.131484  0  3.752704  0  0  0.135424  0  4.0  0  0  0.13666  0  4.021487  0  0.599576  0  0.125368  0.134313  0  3.988572  0
C  C41  1  0.96332536  0.12120476  0.34958894  1  0  0.13155  0  3.752461  0  0  0.135616  0  3.999571  0  0  0.136852  0  4.021063  0  0.599729  0  0.12543  0.134479  0  3.988186  0
C  C42  1  0.96332443  0.62119840  0.15040681  1  0  0.131476  0  3.752759  0  0  0.135397  0  4.00007  0  0  0.136632  0  4.021575  0  0.599565  0  0.125255  0.134266  0  3.988681  0
C  C43  1  0.03667372  0.87879464  0.65041602  1  0  0.131624  0  3.752519  0  0  0.135562  0  3.999809  0  0  0.1368  0  4.021296  0  0.599636  0  0.125321  0.134422  0  3.988433  0
C  C44  1  0.89258222  0.40346994  0.85695899  1  0  -0.088956  0  3.626833  0  0  -0.124516  0  3.874723  0  0  -0.12589  0  3.889954  0  -0.048901  0  -0.056252  -0.123377  0  3.863697  0
C  C45  1  0.10741870  0.09653279  0.35695970  1  0  -0.08894  0  3.62673  0  0  -0.124458  0  3.874541  0  0  -0.125866  0  3.88976  0  -0.049011  0  -0.0562  -0.123312  0  3.863524  0
C  C46  1  0.10741628  0.59651835  0.14304597  1  0  -0.089006  0  3.626613  0  0  -0.124439  0  3.874513  0  0  -0.125869  0  3.889718  0  -0.048717  0  -0.056195  -0.123295  0  3.863492  0
C  C47  1  0.89258267  0.90346964  0.64304455  1  0  -0.088993  0  3.626623  0  0  -0.124489  0  3.874523  0  0  -0.125882  0  3.889743  0  -0.049124  0  -0.056198  -0.123343  0  3.863507  0
C  C48  1  0.85376309  0.53045396  0.88813591  1  0  0.007901  0  3.666674  0  0  0.02575  0  3.907606  0  0  0.024311  0  3.922029  0  0.018264  0  0.01569  0.027045  0  3.895877  0
C  C49  1  0.14622925  0.96955019  0.38814370  1  0  0.007862  0  3.666747  0  0  0.025756  0  3.907621  0  0  0.02432  0  3.922058  0  0.018191  0  0.015713  0.02705  0  3.89589  0
C  C50  1  0.14622619  0.46954140  0.11185913  1  0  0.007834  0  3.666767  0  0  0.025684  0  3.907704  0  0  0.024248  0  3.922149  0  0.018206  0  0.015694  0.026979  0  3.895972  0
C  C51  1  0.85376599  0.03045729  0.61186197  1  0  0.007795  0  3.666663  0  0  0.025659  0  3.907601  0  0  0.024225  0  3.922037  0  0.018357  0  0.015649  0.026954  0  3.895866  0
C  C52  1  0.96014126  0.63137474  0.90573289  1  0  -0.079957  0  3.598658  0  0  -0.118207  0  3.852066  0  0  -0.118885  0  3.867387  0  -0.062077  0  -0.0527  -0.116845  0  3.84113  0
C  C53  1  0.03984554  0.86862537  0.40573006  1  0  -0.080201  0  3.599024  0  0  -0.118479  0  3.852427  0  0  -0.119154  0  3.867729  0  -0.061529  0  -0.052785  -0.117117  0  3.841493  0
C  C54  1  0.03984573  0.36861759  0.09427207  1  0  -0.080129  0  3.598952  0  0  -0.118461  0  3.852401  0  0  -0.119139  0  3.867709  0  -0.0619  0  -0.052818  -0.117101  0  3.84147  0
C  C55  1  0.96014507  0.13137504  0.59426923  1  0  -0.08009  0  3.598934  0  0  -0.118337  0  3.852333  0  0  -0.119015  0  3.867649  0  -0.062109  0  -0.052773  -0.116978  0  3.841398  0
C  C56  1  0.22679848  0.70136236  0.89974769  1  0  0.631409  0  3.885791  0  0  0.57566  0  4.193169  0  0  0.607977  0  4.188429  0  1.575051  0  0.220883  0.554067  0  4.196987  0
C  C57  1  0.77320238  0.79864180  0.39974061  1  0  0.631058  0  3.88627  0  0  0.575365  0  4.193564  0  0  0.607681  0  4.188815  0  1.575446  0  0.220782  0.553775  0  4.197378  0
C  C58  1  0.77320007  0.29862694  0.10025443  1  0  0.631198  0  3.886508  0  0  0.575486  0  4.193762  0  0  0.607805  0  4.189016  0  1.57535  0  0.220839  0.553892  0  4.197579  0
C  C59  1  0.22679489  0.20136366  0.60025443  1  0  0.631345  0  3.885922  0  0  0.575552  0  4.193334  0  0  0.607874  0  4.188585  0  1.575238  0  0.220853  0.553957  0  4.197151  0
C  C60  1  0.09026568  0.24151131  0.82616975  1  0  0.628128  0  3.904602  0  0  0.579504  0  4.203619  0  0  0.61132  0  4.199454  0  1.59405  0  0.215325  0.558019  0  4.207673  0
C  C61  1  0.90973417  0.25849142  0.32616763  1  0  0.6281  0  3.904649  0  0  0.579391  0  4.203739  0  0  0.611207  0  4.199573  0  1.594641  0  0.21525  0.557913  0  4.207787  0
C  C62  1  0.90973186  0.75847900  0.17383095  1  0  0.628232  0  3.90476  0  0  0.579594  0  4.203814  0  0  0.611417  0  4.199642  0  1.594086  0  0.215353  0.558113  0  4.207868  0
C  C63  1  0.09026970  0.74151809  0.67383450  1  0  0.628119  0  3.90466  0  0  0.57948  0  4.203697  0  0  0.611294  0  4.199531  0  1.594308  0  0.215278  0.558003  0  4.20775  0
C  C64  1  0.69810713  0.54757754  0.90650683  1  0  0.725638  0  3.862456  0  0  0.678167  0  4.153516  0  0  0.714956  0  4.145725  0  1.635335  0  0.240068  0.653808  0  4.161932  0
C  C65  1  0.30189522  0.95243470  0.40649761  1  0  0.725724  0  3.861865  0  0  0.678204  0  4.153005  0  0  0.71498  0  4.145243  0  1.63511  0  0.240098  0.653848  0  4.161412  0
C  C66  1  0.30189445  0.45242894  0.09350664  1  0  0.725661  0  3.861994  0  0  0.678194  0  4.153032  0  0  0.714962  0  4.145292  0  1.635118  0  0.240056  0.653838  0  4.16144  0
C  C67  1  0.69810492  0.04758491  0.59349317  1  0  0.725588  0  3.862393  0  0  0.678058  0  4.153562  0  0  0.714825  0  4.145808  0  1.63525  0  0.240038  0.653703  0  4.161968  0
N  N68  1  0.13768595  0.47599356  0.86575359  1  0  -0.452893  0  3.389472  0  0  -0.411056  0  3.647753  0  0  -0.434356  0  3.669776  0  -1.285072  0  -0.409272  -0.403391  0  3.635147  0
N  N69  1  0.86231608  0.02401019  0.36574579  1  0  -0.452985  0  3.389595  0  0  -0.411193  0  3.647815  0  0  -0.434488  0  3.669837  0  -1.285395  0  -0.409328  -0.403515  0  3.635214  0
N  N70  1  0.86231510  0.52400282  0.13425350  1  0  -0.452896  0  3.389748  0  0  -0.411053  0  3.647983  0  0  -0.434372  0  3.67001  0  -1.2852  0  -0.40919  -0.403387  0  3.635382  0
N  N71  1  0.13768464  0.97600033  0.63425208  1  0  -0.453057  0  3.389467  0  0  -0.411224  0  3.647738  0  0  -0.43452  0  3.669762  0  -1.285226  0  -0.409189  -0.40355  0  3.635138  0
O  O72  1  0.20625244  0.82277222  0.91402075  1  0  -0.556733  0  1.911424  0  0  -0.511095  0  2.11575  0  0  -0.531368  0  2.10489  0  -1.144222  0  -0.295264  -0.496675  0  2.1224  0
O  O73  1  0.79374661  0.67723800  0.41400516  1  0  -0.556506  0  1.911799  0  0  -0.51087  0  2.116099  0  0  -0.531141  0  2.105235  0  -1.144322  0  -0.29509  -0.496452  0  2.122748  0
O  O74  1  0.79375399  0.17722516  0.08598917  1  0  -0.556628  0  1.911963  0  0  -0.510994  0  2.116277  0  0  -0.531268  0  2.105412  0  -1.14446  0  -0.295203  -0.496572  0  2.122926  0
O  O75  1  0.20625529  0.32277454  0.58597925  1  0  -0.556693  0  1.911642  0  0  -0.511021  0  2.116008  0  0  -0.531297  0  2.105139  0  -1.144275  0  -0.295249  -0.496599  0  2.122658  0
O  O76  1  0.35267906  0.65090601  0.89069583  1  0  -0.770989  0  2.077999  0  0  -0.702962  0  2.319149  0  0  -0.741523  0  2.305498  0  -1.198945  0  -0.378235  -0.684273  0  2.326951  0
O  O77  1  0.64732825  0.84909916  0.39068591  1  0  -0.770923  0  2.078189  0  0  -0.702954  0  2.319303  0  0  -0.741525  0  2.3057  0  -1.198955  0  -0.378299  -0.684258  0  2.327101  0
O  O78  1  0.64732919  0.34908531  0.10930913  1  0  -0.77082  0  2.078141  0  0  -0.702834  0  2.319287  0  0  -0.741416  0  2.305647  0  -1.198912  0  -0.378178  -0.684147  0  2.327086  0
O  O79  1  0.35267664  0.15090934  0.60930346  1  0  -0.770971  0  2.077914  0  0  -0.702932  0  2.319044  0  0  -0.741487  0  2.305398  0  -1.198885  0  -0.378218  -0.684243  0  2.326851  0
O  O80  1  0.23029924  0.24045145  0.82147656  1  0  -0.765366  0  2.059094  0  0  -0.70013  0  2.304024  0  0  -0.742037  0  2.289361  0  -1.176229  0  -0.415214  -0.68058  0  2.310486  0
O  O81  1  0.76970462  0.25954623  0.32147231  1  0  -0.765334  0  2.059104  0  0  -0.700085  0  2.304034  0  0  -0.741981  0  2.289374  0  -1.176545  0  -0.415116  -0.680531  0  2.310492  0
O  O82  1  0.76970150  0.75953886  0.17851848  1  0  -0.765362  0  2.059111  0  0  -0.70016  0  2.304103  0  0  -0.74208  0  2.289433  0  -1.176188  0  -0.415219  -0.680616  0  2.310562  0
O  O83  1  0.23030000  0.74045721  0.67852060  1  0  -0.765381  0  2.059216  0  0  -0.700166  0  2.304185  0  0  -0.742062  0  2.289522  0  -1.17629  0  -0.415206  -0.680614  0  2.310644  0
O  O84  1  0.00590416  0.14376609  0.81384215  1  0  -0.534792  0  1.872848  0  0  -0.501123  0  2.073517  0  0  -0.520408  0  2.067067  0  -1.153006  0  -0.305663  -0.486974  0  2.077076  0
O  O85  1  0.99410065  0.35622957  0.31383932  1  0  -0.534768  0  1.872971  0  0  -0.501077  0  2.073658  0  0  -0.520365  0  2.067214  0  -1.153021  0  -0.305654  -0.486928  0  2.077211  0
O  O86  1  0.99410287  0.85622220  0.18615430  1  0  -0.53483  0  1.872977  0  0  -0.501141  0  2.073628  0  0  -0.52043  0  2.067177  0  -1.15281  0  -0.305647  -0.486992  0  2.077184  0
O  O87  1  0.00590578  0.64376781  0.68616281  1  0  -0.534793  0  1.872753  0  0  -0.501101  0  2.073397  0  0  -0.520387  0  2.066951  0  -1.152873  0  -0.305626  -0.486951  0  2.07695  0
O  O88  1  0.61180287  0.51081156  0.84121745  1  0  -0.724812  0  2.029016  0  0  -0.674215  0  2.281543  0  0  -0.712559  0  2.263318  0  -1.194421  0  -0.393295  -0.655957  0  2.29  0
O  O89  1  0.38819395  0.98919664  0.34121178  1  0  -0.724836  0  2.029069  0  0  -0.674252  0  2.281652  0  0  -0.712581  0  2.263442  0  -1.194295  0  -0.393366  -0.655992  0  2.29011  0
O  O90  1  0.38818977  0.48918683  0.15879176  1  0  -0.724793  0  2.029205  0  0  -0.674175  0  2.281738  0  0  -0.712528  0  2.263531  0  -1.194372  0  -0.393323  -0.655924  0  2.29019  0
O  O91  1  0.61180151  0.01081489  0.65878255  1  0  -0.724789  0  2.02905  0  0  -0.674163  0  2.281607  0  0  -0.712496  0  2.263396  0  -1.194415  0  -0.393273  -0.655904  0  2.290062  0
O  O92  1  0.66214625  0.59017733  0.98720322  1  0  -0.737095  0  2.07923  0  0  -0.687743  0  2.346339  0  0  -0.730478  0  2.332857  0  -1.204448  0  -0.39284  -0.668787  0  2.354368  0
O  O93  1  0.33786330  0.90982986  0.48720818  1  0  -0.737126  0  2.078546  0  0  -0.687786  0  2.345688  0  0  -0.730493  0  2.33219  0  -1.204193  0  -0.392825  -0.668817  0  2.353708  0
O  O94  1  0.33786300  0.40983319  0.01279394  1  0  -0.737064  0  2.07847  0  0  -0.687772  0  2.345664  0  0  -0.730477  0  2.332159  0  -1.204148  0  -0.392793  -0.668803  0  2.353682  0
O  O95  1  0.66214463  0.09017561  0.51279182  1  0  -0.736998  0  2.07916  0  0  -0.687689  0  2.346372  0  0  -0.730392  0  2.332902  0  -1.204507  0  -0.39281  -0.668721  0  2.354397  0
O  O96  1  0.33962729  0.50387948  0.70585196  1  0  -0.950036  0  1.851829  0  0  -0.900937  0  2.049073  0  0  -0.935397  0  2.005911  0  -1.285044  0  -0.664292  -0.886105  0  2.072659  0
O  O97  1  0.66036569  0.99611659  0.20584913  1  0  -0.949994  0  1.851909  0  0  -0.900919  0  2.049143  0  0  -0.935363  0  2.00599  0  -1.285177  0  -0.664287  -0.886084  0  2.072729  0
O  O98  1  0.66035996  0.49611790  0.29415300  1  0  -0.949957  0  1.851927  0  0  -0.900848  0  2.049152  0  0  -0.935321  0  2.005984  0  -1.285093  0  -0.664274  -0.886024  0  2.072729  0
O  O99  1  0.33963878  0.00388382  0.79415158  1  0  -0.949949  0  1.851951  0  0  -0.900876  0  2.049187  0  0  -0.935328  0  2.006034  0  -1.285176  0  -0.664261  -0.886048  0  2.072769  0
O  O100  1  0.51329488  0.29070370  0.74121816  1  0  -0.871096  0  1.858753  0  0  -0.822881  0  2.050547  0  0  -0.852457  0  2.016479  0  -1.230719  0  -0.619821  -0.809491  0  2.070262  0
O  O101  1  0.48670439  0.20928791  0.24121674  1  0  -0.871267  0  1.85871  0  0  -0.823053  0  2.050485  0  0  -0.852615  0  2.016412  0  -1.230729  0  -0.619848  -0.809657  0  2.070209  0
O  O102  1  0.48670004  0.70929772  0.25877971  1  0  -0.871175  0  1.85858  0  0  -0.822917  0  2.050304  0  0  -0.852502  0  2.016236  0  -1.230781  0  -0.619816  -0.809534  0  2.070007  0
O  O103  1  0.51329650  0.79070543  0.75878113  1  0  -0.871161  0  1.85863  0  0  -0.822923  0  2.050392  0  0  -0.852495  0  2.016326  0  -1.230744  0  -0.619815  -0.809528  0  2.070115  0
O  O104  1  0.51620327  0.25288998  0.93430665  1  0  -0.889274  0  1.866941  0  0  -0.840755  0  2.055556  0  0  -0.86961  0  2.015299  0  -1.241018  0  -0.622836  -0.828797  0  2.077985  0
O  O105  1  0.48380218  0.24711780  0.43430736  1  0  -0.889198  0  1.866966  0  0  -0.840646  0  2.055603  0  0  -0.869496  0  2.015351  0  -1.24126  0  -0.622795  -0.828682  0  2.078026  0
O  O106  1  0.48380146  0.74711548  0.06569122  1  0  -0.889286  0  1.866904  0  0  -0.840688  0  2.055575  0  0  -0.869557  0  2.015306  0  -1.241246  0  -0.62284  -0.828732  0  2.078015  0
O  O107  1  0.51620031  0.75288564  0.56569193  1  0  -0.889285  0  1.866852  0  0  -0.840702  0  2.055542  0  0  -0.869553  0  2.015286  0  -1.241194  0  -0.622825  -0.828744  0  2.077967  0
