# generated using pymatgen
data_H10PbC14N8O
_symmetry_space_group_name_H-M   'P 1'
_cell_length_a   8.28066994
_cell_length_b   9.57699886
_cell_length_c   10.65037877
_cell_angle_alpha   73.23473323
_cell_angle_beta   77.19411768
_cell_angle_gamma   81.93311690
_symmetry_Int_Tables_number   1
_chemical_formula_structural   H10PbC14N8O
_chemical_formula_sum   'H20 Pb2 C28 N16 O2'
_cell_volume   785.95678743
_cell_formula_units_Z   2
loop_
 _symmetry_equiv_pos_site_id
 _symmetry_equiv_pos_as_xyz
  1  'x, y, z'
loop_
 _atom_site_type_symbol
 _atom_site_label
 _atom_site_symmetry_multiplicity
 _atom_site_fract_x
 _atom_site_fract_y
 _atom_site_fract_z
 _atom_site_occupancy
 _atom_site_hle17_bader_spin_density
 _atom_site_hle17_ddec_charge
 _atom_site_hle17_ddec_spin_density
 _atom_site_hle17_ddec_sum_bond_order
 _atom_site_hle17_magmom
 _atom_site_hse06_10hf_bader_spin_density
 _atom_site_hse06_10hf_ddec_charge
 _atom_site_hse06_10hf_ddec_spin_density
 _atom_site_hse06_10hf_ddec_sum_bond_order
 _atom_site_hse06_10hf_magmom
 _atom_site_hse06_bader_spin_density
 _atom_site_hse06_ddec_charge
 _atom_site_hse06_ddec_spin_density
 _atom_site_hse06_ddec_sum_bond_order
 _atom_site_hse06_magmom
 _atom_site_pbe_bader_spin_density
 _atom_site_pbe_cm5_charge
 _atom_site_pbe_ddec_charge
 _atom_site_pbe_ddec_spin_density
 _atom_site_pbe_ddec_sum_bond_order
 _atom_site_pbe_magmom
H  H0  1  0.02012277  0.41318673  0.14638545  1  0  0.404473  0  0.910153  0  0  0.371845  0  0.979145  0  0  0.382304  0  0.964023  0  0  0.282736  0.364502  0  0.989737  0
H  H1  1  0.97987855  0.58681669  0.85361378  1  0  0.40444  0  0.910193  0  0  0.371817  0  0.979179  0  0  0.382275  0  0.964058  0  0  0.282733  0.364474  0  0.989771  0
H  H2  1  0.84038219  0.45894179  0.11680670  1  0  0.410021  0  0.89864  0  0  0.380359  0  0.961431  0  0  0.390378  0  0.947076  0  0  0.284893  0.373351  0  0.971479  0
H  H3  1  0.15961913  0.54106163  0.88319254  1  0  0.410044  0  0.89861  0  0  0.380371  0  0.961429  0  0  0.390393  0  0.947067  0  0  0.284869  0.37336  0  0.97148  0
H  H4  1  0.72287226  0.04439352  0.20160913  1  0  0.076225  0  0.980004  0  0  0.080584  0  1.054262  0  0  0.082748  0  1.052699  0  0  0.111666  0.079426  0  1.054611  0
H  H5  1  0.27714011  0.95561105  0.79838229  1  0  0.076193  0  0.980064  0  0  0.080557  0  1.054316  0  0  0.082724  0  1.052753  0  0  0.111628  0.079395  0  1.054668  0
H  H6  1  0.60156763  0.14172537  0.39946200  1  0  0.100777  0  0.953716  0  0  0.110126  0  1.013946  0  0  0.113168  0  1.013619  0  0  0.105199  0.108039  0  1.014277  0
H  H7  1  0.39843293  0.85827363  0.60053478  1  0  0.100778  0  0.953607  0  0  0.110102  0  1.013868  0  0  0.113143  0  1.013543  0  0  0.105184  0.108015  0  1.014201  0
H  H8  1  0.70058871  0.01783216  0.61718108  1  0  0.097497  0  0.96111  0  0  0.103304  0  1.028053  0  0  0.106461  0  1.02623  0  0  0.103966  0.101705  0  1.028197  0
H  H9  1  0.29941320  0.98216576  0.38281670  1  0  0.097458  0  0.961121  0  0  0.103275  0  1.028084  0  0  0.106441  0  1.026237  0  0  0.103953  0.101672  0  1.028217  0
H  H10  1  0.91599307  0.81120620  0.62290279  1  0  0.109382  0  0.972081  0  0  0.119926  0  1.031666  0  0  0.122765  0  1.031189  0  0  0.106302  0.117876  0  1.032267  0
H  H11  1  0.08400538  0.18878948  0.37709430  1  0  0.109354  0  0.972145  0  0  0.119953  0  1.03167  0  0  0.122794  0  1.03119  0  0  0.106336  0.117903  0  1.032273  0
H  H12  1  0.10652856  0.65867656  0.61484094  1  0  0.111827  0  0.976389  0  0  0.121544  0  1.037862  0  0  0.125205  0  1.035769  0  0  0.106109  0.119089  0  1.039092  0
H  H13  1  0.89346072  0.34132349  0.38516405  1  0  0.11182  0  0.976419  0  0  0.121504  0  1.03792  0  0  0.125161  0  1.035839  0  0  0.1061  0.11905  0  1.03915  0
H  H14  1  0.32485246  0.46003842  0.59967065  1  0  0.106914  0  0.959669  0  0  0.116349  0  1.021417  0  0  0.11933  0  1.019289  0  0  0.106969  0.114207  0  1.022877  0
H  H15  1  0.67514360  0.53995619  0.40033089  1  0  0.106916  0  0.959721  0  0  0.116336  0  1.021461  0  0  0.119316  0  1.019333  0  0  0.106944  0.114193  0  1.022921  0
H  H16  1  0.41644531  0.38951916  0.38068069  1  0  0.100745  0  0.948735  0  0  0.11156  0  1.007221  0  0  0.114564  0  1.006811  0  0  0.1067  0.109324  0  1.007886  0
H  H17  1  0.58355591  0.61048534  0.61931640  1  0  0.100707  0  0.94876  0  0  0.111566  0  1.007213  0  0  0.114571  0  1.006798  0  0  0.106679  0.109331  0  1.007877  0
H  H18  1  0.27035928  0.52148353  0.19219243  1  0  0.071393  0  0.985869  0  0  0.078863  0  1.054349  0  0  0.080132  0  1.054048  0  0  0.111414  0.078025  0  1.054321  0
H  H19  1  0.72964137  0.47852643  0.80780235  1  0  0.07142  0  0.985861  0  0  0.078881  0  1.05435  0  0  0.080141  0  1.054075  0  0  0.111412  0.078043  0  1.054324  0
Pb  Pb20  1  0.95590111  0.76074370  0.09528965  1  0  1.305665  0  1.451907  0  0  1.111758  0  1.855176  0  0  1.163988  0  1.821405  0  0  0.651657  1.074199  0  1.878559  0
Pb  Pb21  1  0.04410132  0.23926087  0.90471191  1  0  1.305688  0  1.451877  0  0  1.111788  0  1.855133  0  0  1.164019  0  1.821357  0  0  0.651672  1.074234  0  1.87852  0
C  C22  1  0.76354815  0.99668980  0.29670208  1  0  0.131802  0  3.71692  0  0  0.103062  0  3.965597  0  0  0.109414  0  3.985031  0  0  0.050363  0.099446  0  3.951546  0
C  C23  1  0.23645703  0.00331253  0.70329304  1  0  0.131853  0  3.717032  0  0  0.103122  0  3.965699  0  0  0.10947  0  3.985137  0  0  0.050415  0.09951  0  3.951643  0
C  C24  1  0.69642843  0.05016669  0.40753991  1  0  -0.118114  0  3.727056  0  0  -0.128608  0  3.974359  0  0  -0.135403  0  3.995907  0  0  -0.083066  -0.124546  0  3.959511  0
C  C25  1  0.30357292  0.94983670  0.59245558  1  0  -0.118173  0  3.727149  0  0  -0.128634  0  3.974466  0  0  -0.13543  0  3.99602  0  0  -0.083064  -0.124571  0  3.959612  0
C  C26  1  0.75118771  0.98170742  0.52693296  1  0  -0.002647  0  3.722279  0  0  -0.020276  0  3.973234  0  0  -0.017257  0  3.991773  0  0  -0.067855  -0.021795  0  3.960376  0
C  C27  1  0.24881296  0.01829050  0.47306503  1  0  -0.002521  0  3.722281  0  0  -0.020181  0  3.973242  0  0  -0.017163  0  3.991787  0  0  -0.067843  -0.021692  0  3.960379  0
C  C28  1  0.87277874  0.86517458  0.53003091  1  0  -0.140436  0  3.69904  0  0  -0.158787  0  3.943788  0  0  -0.165996  0  3.965955  0  0  -0.080608  -0.154597  0  3.930636  0
C  C29  1  0.12722193  0.13482334  0.46996802  1  0  -0.140449  0  3.699205  0  0  -0.158845  0  3.943952  0  0  -0.166055  0  3.96612  0  0  -0.080625  -0.154658  0  3.930799  0
C  C30  1  0.93645618  0.81856810  0.41402685  1  0  0.175236  0  3.760708  0  0  0.172529  0  4.000543  0  0  0.179138  0  4.021019  0  0  0.123088  0.168035  0  3.98713  0
C  C31  1  0.06354586  0.18142872  0.58596933  1  0  0.175225  0  3.760825  0  0  0.172511  0  4.00064  0  0  0.17912  0  4.021117  0  0  0.123077  0.168017  0  3.987227  0
C  C32  1  0.06878024  0.69698405  0.41100796  1  0  0.175237  0  3.766975  0  0  0.169245  0  4.011418  0  0  0.17621  0  4.032074  0  0  0.121995  0.164222  0  3.997485  0
C  C33  1  0.93121299  0.30301385  0.58899600  1  0  0.175175  0  3.766874  0  0  0.169267  0  4.011202  0  0  0.176239  0  4.031857  0  0  0.121971  0.164246  0  3.997269  0
C  C34  1  0.14451619  0.62861091  0.52101171  1  0  -0.135548  0  3.685411  0  0  -0.154674  0  3.932764  0  0  -0.161538  0  3.953577  0  0  -0.079501  -0.150032  0  3.918263  0
C  C35  1  0.85548126  0.37138255  0.47898426  1  0  -0.135484  0  3.685027  0  0  -0.154627  0  3.93236  0  0  -0.161496  0  3.953171  0  0  -0.079515  -0.149985  0  3.917859  0
C  C36  1  0.26938305  0.51608799  0.51259816  1  0  -0.001021  0  3.698495  0  0  -0.017984  0  3.945309  0  0  -0.014815  0  3.963391  0  0  -0.06543  -0.019671  0  3.932647  0
C  C37  1  0.73060602  0.48391420  0.48740160  1  0  -0.001061  0  3.698359  0  0  -0.017987  0  3.945158  0  0  -0.014816  0  3.963237  0  0  -0.065385  -0.019672  0  3.932497  0
C  C38  1  0.31830239  0.47565790  0.39325201  1  0  -0.113299  0  3.728583  0  0  -0.126834  0  3.982033  0  0  -0.133536  0  4.003674  0  0  -0.082162  -0.122342  0  3.967473  0
C  C39  1  0.68169027  0.52434545  0.60674871  1  0  -0.113284  0  3.728528  0  0  -0.126868  0  3.981945  0  0  -0.133572  0  4.003586  0  0  -0.082155  -0.122374  0  3.967379  0
C  C40  1  0.23725372  0.54798190  0.28806915  1  0  0.132288  0  3.719291  0  0  0.101974  0  3.971462  0  0  0.108164  0  3.99206  0  0  0.048254  0.098007  0  3.957222  0
C  C41  1  0.76274548  0.45201820  0.71192945  1  0  0.132308  0  3.719332  0  0  0.101996  0  3.971505  0  0  0.108184  0  3.992108  0  0  0.04828  0.098032  0  3.957266  0
C  C42  1  0.68062955  0.73052787  0.86291873  1  0  0.518418  0  3.98946  0  0  0.471345  0  4.284477  0  0  0.497228  0  4.29625  0  0  0.309299  0.453272  0  4.277051  0
C  C43  1  0.31937562  0.26947446  0.13707639  1  0  0.51843  0  3.989059  0  0  0.471334  0  4.284096  0  0  0.497214  0  4.295878  0  0  0.309256  0.453258  0  4.276671  0
C  C44  1  0.40404131  0.67716222  0.90878860  1  0  0.507312  0  3.99197  0  0  0.46715  0  4.274928  0  0  0.492644  0  4.287436  0  0  0.30495  0.449923  0  4.266068  0
C  C45  1  0.59596321  0.32283461  0.09120622  1  0  0.507326  0  3.99184  0  0  0.467132  0  4.274839  0  0  0.492626  0  4.287343  0  0  0.305032  0.449904  0  4.265981  0
C  C46  1  0.52424146  0.80810066  0.18542312  1  0  0.50107  0  3.983922  0  0  0.460922  0  4.269747  0  0  0.486521  0  4.282677  0  0  0.305186  0.442977  0  4.260636  0
C  C47  1  0.47575564  0.19189518  0.81459012  1  0  0.501196  0  3.983822  0  0  0.461045  0  4.269626  0  0  0.486644  0  4.282556  0  0  0.305286  0.443101  0  4.260516  0
C  C48  1  0.29752825  0.93022210  0.09656152  1  0  0.526739  0  3.983259  0  0  0.475341  0  4.276307  0  0  0.502484  0  4.288751  0  0  0.310951  0.456534  0  4.267419  0
C  C49  1  0.70246750  0.06977484  0.90345353  1  0  0.526606  0  3.983305  0  0  0.475211  0  4.276337  0  0  0.502357  0  4.288785  0  0  0.310836  0.456407  0  4.26745  0
N  N50  1  0.11527181  0.65464927  0.29672458  1  0  -0.372623  0  3.20687  0  0  -0.301065  0  3.452465  0  0  -0.321087  0  3.475166  0  0  -0.293882  -0.287047  0  3.436843  0
N  N51  1  0.88472380  0.34534969  0.70327399  1  0  -0.372601  0  3.207087  0  0  -0.301095  0  3.452693  0  0  -0.3211  0  3.475347  0  0  -0.293899  -0.287078  0  3.437074  0
N  N52  1  0.87971391  0.88379243  0.29973717  1  0  -0.363653  0  3.189432  0  0  -0.29301  0  3.4297  0  0  -0.312349  0  3.451751  0  0  -0.290962  -0.279869  0  3.414371  0
N  N53  1  0.12028992  0.11621097  0.70025695  1  0  -0.363662  0  3.189397  0  0  -0.293043  0  3.429679  0  0  -0.312384  0  3.451732  0  0  -0.290969  -0.279902  0  3.414349  0
N  N54  1  0.64151924  0.72375389  0.20192999  1  0  -0.608829  0  2.718121  0  0  -0.559993  0  2.969476  0  0  -0.582956  0  2.978889  0  0  -0.357563  -0.544098  0  2.963233  0
N  N55  1  0.35848518  0.27624311  0.79808170  1  0  -0.608843  0  2.718283  0  0  -0.560016  0  2.969639  0  0  -0.582974  0  2.979049  0  0  -0.357589  -0.54412  0  2.963395  0
N  N56  1  0.39645771  0.90262921  0.18014014  1  0  -0.448494  0  3.296396  0  0  -0.390401  0  3.562011  0  0  -0.414786  0  3.567187  0  0  -0.300073  -0.372911  0  3.557389  0
N  N57  1  0.60353714  0.09736443  0.81987594  1  0  -0.448511  0  3.296213  0  0  -0.390419  0  3.561833  0  0  -0.414815  0  3.567015  0  0  -0.300052  -0.372938  0  3.557212  0
N  N58  1  0.19826158  0.96339270  0.02596970  1  0  -0.680306  0  2.786659  0  0  -0.618632  0  3.054488  0  0  -0.64498  0  3.064762  0  0  -0.354549  -0.599923  0  3.047211  0
N  N59  1  0.80173987  0.03660870  0.97404601  1  0  -0.68031  0  2.786709  0  0  -0.618604  0  3.054465  0  0  -0.644949  0  3.06474  0  0  -0.354522  -0.599892  0  3.047187  0
N  N60  1  0.82130340  0.72917819  0.87066658  1  0  -0.643368  0  2.727739  0  0  -0.591083  0  2.974829  0  0  -0.612696  0  2.981267  0  0  -0.363244  -0.576191  0  2.971037  0
N  N61  1  0.17869152  0.27082735  0.12933130  1  0  -0.643464  0  2.727331  0  0  -0.591169  0  2.974425  0  0  -0.61279  0  2.98087  0  0  -0.363252  -0.576278  0  2.970635  0
N  N62  1  0.53285952  0.74327134  0.83853419  1  0  -0.461912  0  3.321522  0  0  -0.406817  0  3.594578  0  0  -0.431439  0  3.600734  0  0  -0.305822  -0.390217  0  3.590189  0
N  N63  1  0.46714256  0.25672541  0.16145543  1  0  -0.461826  0  3.321487  0  0  -0.406701  0  3.594515  0  0  -0.431319  0  3.600684  0  0  -0.305753  -0.390092  0  3.590125  0
N  N64  1  0.27591443  0.62621340  0.96190470  1  0  -0.643063  0  2.742489  0  0  -0.592847  0  2.985652  0  0  -0.615  0  2.993746  0  0  -0.363298  -0.577777  0  2.979933  0
N  N65  1  0.72409583  0.37377584  0.03809398  1  0  -0.643088  0  2.742515  0  0  -0.592866  0  2.985706  0  0  -0.615021  0  2.993799  0  0  -0.363392  -0.577803  0  2.979989  0
O  O66  1  0.92090373  0.48200405  0.16319466  1  0  -0.829694  0  1.866263  0  0  -0.76675  0  2.042787  0  0  -0.788987  0  2.014189  0  0  -0.563677  -0.751125  0  2.062131  0
O  O67  1  0.07909499  0.51800046  0.83680567  1  0  -0.829674  0  1.866247  0  0  -0.766735  0  2.042757  0  0  -0.788973  0  2.014158  0  0  -0.563651  -0.75111  0  2.062107  0
