# generated using pymatgen
data_Zn4H18C32N4O23
_symmetry_space_group_name_H-M   'P 1'
_cell_length_a   10.85665374
_cell_length_b   19.20460038
_cell_length_c   19.19397489
_cell_angle_alpha   94.67356072
_cell_angle_beta   95.73344053
_cell_angle_gamma   92.34074315
_symmetry_Int_Tables_number   1
_chemical_formula_structural   Zn4H18C32N4O23
_chemical_formula_sum   'Zn4 H18 C32 N4 O23'
_cell_volume   3963.79644226
_cell_formula_units_Z   1
loop_
 _symmetry_equiv_pos_site_id
 _symmetry_equiv_pos_as_xyz
  1  'x, y, z'
loop_
 _atom_site_type_symbol
 _atom_site_label
 _atom_site_symmetry_multiplicity
 _atom_site_fract_x
 _atom_site_fract_y
 _atom_site_fract_z
 _atom_site_occupancy
 _atom_site_pbe_bader_charge
 _atom_site_pbe_bader_spin_density
 _atom_site_pbe_cm5_charge
 _atom_site_pbe_ddec_charge
 _atom_site_pbe_ddec_spin_density
 _atom_site_pbe_ddec_sum_bond_order
 _atom_site_pbe_magmom
Zn  Zn0  1  0.61013198  0.56446432  0.56472210  1  1.326891  0  0.683954  0.976196  0  2.317795  0
Zn  Zn1  1  0.38606886  0.55324794  0.44190763  1  1.316454  0  0.678713  0.97076  0  2.334641  0
Zn  Zn2  1  0.41087880  0.43624717  0.55121533  1  1.316128  0  0.677214  0.967803  0  2.390609  0
Zn  Zn3  1  0.59606334  0.44097564  0.43794291  1  1.326949  0  0.683393  0.969879  0  2.376791  0
H  H4  1  0.99873317  0.58123464  0.49239774  1  0.13483  0  0.118696  0.160285  0  0.985437  0
H  H5  1  0.48448412  0.22869512  0.59739695  1  0.091148  0  0.117752  0.144056  0  0.97539  0
H  H6  1  0.07730526  0.38293575  0.50505004  1  0.633222  0  0.328963  0.362695  0  0.901095  0
H  H7  1  0.64959419  0.46389515  0.23070512  1  0.12662  0  0.11881  0.145745  0  0.973651  0
H  H8  1  0.65045726  0.47208569  0.04557928  1  0.603485  0  0.293545  0.275225  0  1.091412  0
H  H9  1  0.74360404  0.52405792  0.96740298  1  0.607216  0  0.337196  0.36861  0  0.890163  0
H  H10  1  0.81081739  0.53302189  0.81983801  1  0.607994  0  0.33938  0.374862  0  0.875025  0
H  H11  1  0.26779500  0.53171855  0.27279895  1  0.626329  0  0.307528  0.355869  0  0.961126  0
H  H12  1  0.33366369  0.47140408  0.89225852  1  0.110141  0  0.114443  0.144949  0  0.996552  0
H  H13  1  0.26792202  0.52577179  0.08753069  1  0.115548  0  0.1203  0.144765  0  0.972488  0
H  H14  1  0.31992354  0.46641412  0.70758345  1  0.647616  0  0.304198  0.355327  0  0.975879  0
H  H15  1  0.45004543  0.71288329  0.39224717  1  0.62574  0  0.309295  0.35566  0  0.959278  0
H  H16  1  0.50069096  0.95467236  0.40925586  1  0.613489  0  0.300938  0.285886  0  1.066404  0
H  H17  1  0.54172521  0.09177966  0.37212986  1  0.089053  0  0.113645  0.119172  0  0.979799  0
H  H18  1  0.54455488  0.22302324  0.37807992  1  0.102001  0  0.109764  0.121087  0  0.992172  0
H  H19  1  0.52515487  0.77411070  0.62587407  1  0.09189  0  0.107083  0.131842  0  1.003721  0
H  H20  1  0.50013711  0.04269099  0.59300771  1  0.621349  0  0.301005  0.299161  0  1.049697  0
H  H21  1  0.53329869  0.88590872  0.68414358  1  0.618703  0  0.346709  0.376658  0  0.857481  0
C  C22  1  0.46800741  0.49364353  0.30966377  1  1.509252  0  0.229088  0.617465  0  4.13588  0
C  C23  1  0.46115807  0.49481797  0.23244263  1  -0.060849  0  -0.026114  -0.152327  0  3.985569  0
C  C24  1  0.35148781  0.51333014  0.19212692  1  0.556498  0  0.084395  0.296003  0  4.086477  0
C  C25  1  0.51855404  0.50307140  0.68660772  1  1.49643  0  0.227228  0.634704  0  4.122445  0
C  C26  1  0.35096766  0.51274569  0.11958452  1  0.00505  0  -0.089878  -0.245097  0  3.9256  0
C  C27  1  0.51371866  0.23303769  0.48804642  1  0.060453  0  -0.012255  -0.008618  0  3.992982  0
C  C28  1  0.49826446  0.19894331  0.54826863  1  -0.010259  0  -0.090777  -0.20773  0  3.913015  0
C  C29  1  0.50255484  0.12603629  0.54670577  1  0.575674  0  0.100722  0.27213  0  4.031888  0
C  C30  1  0.51655394  0.08713264  0.48131608  1  0.391942  0  0.086137  0.060223  0  4.045706  0
C  C31  1  0.53065364  0.12294752  0.42099354  1  0.026132  0  -0.081709  -0.131296  0  4.007822  0
C  C32  1  0.53166286  0.19503748  0.42408530  1  -0.06525  0  -0.095463  -0.122542  0  4.014936  0
C  C33  1  0.41444051  0.48340057  0.79588868  1  0.552568  0  0.086879  0.328369  0  4.087653  0
C  C34  1  0.49445540  0.87096696  0.45376980  1  0.645825  0  0.096583  0.182099  0  4.008722  0
C  C35  1  0.48245685  0.79679266  0.44967029  1  0.549967  0  0.07962  0.190314  0  4.052252  0
C  C36  1  0.50915314  0.91016710  0.52057546  1  0.514461  0  0.079055  -0.028416  0  4.021813  0
C  C37  1  0.49399160  0.68630079  0.51004819  1  1.469788  0  0.225433  0.616785  0  4.123643  0
C  C38  1  0.49620649  0.76323658  0.51247200  1  0.038417  0  -0.03511  -0.143722  0  4.037271  0
C  C39  1  0.51480150  0.80247476  0.57885452  1  0.061572  0  -0.125419  -0.273793  0  4.064931  0
C  C40  1  0.51780147  0.87444241  0.58334693  1  0.414855  0  0.073967  0.242451  0  4.133008  0
C  C41  1  0.51024693  0.31068461  0.49132616  1  1.515427  0  0.23004  0.606484  0  4.144583  0
C  C42  1  0.17301749  0.48623785  0.49092044  1  1.578227  0  0.229564  0.553958  0  4.179615  0
C  C43  1  0.82499016  0.51953928  0.49832432  1  1.541417  0  0.22406  0.680798  0  4.140166  0
C  C44  1  0.41790267  0.48319062  0.86836584  1  0.085216  0  -0.11732  -0.303141  0  3.977211  0
C  C45  1  0.95862031  0.52847548  0.49269280  1  0.073945  0  -0.109334  -0.347144  0  3.868525  0
C  C46  1  0.03563777  0.47474660  0.49281279  1  0.47541  0  0.085518  0.199709  0  4.064088  0
C  C47  1  0.52466401  0.49979524  0.76321680  1  0.036204  0  -0.041834  -0.284817  0  3.924718  0
C  C48  1  0.53089678  0.49598866  0.91050866  1  0.45069  0  0.078523  0.105205  0  4.147164  0
C  C49  1  0.64053359  0.50991606  0.87977119  1  0.41692  0  0.062255  0.087128  0  4.082879  0
C  C50  1  0.63779921  0.51290996  0.80677868  1  0.578225  0  0.086289  0.234787  0  4.056869  0
C  C51  1  0.56816459  0.48009434  0.12711385  1  0.561617  0  0.088154  0.2533  0  4.0406  0
C  C52  1  0.56663675  0.47778047  0.19921387  1  0.063816  0  -0.093144  -0.187494  0  3.949731  0
C  C53  1  0.45744499  0.49741747  0.08625127  1  0.410906  0  0.085771  0.070771  0  4.067989  0
N  N54  1  0.54503289  0.49502270  0.98360644  1  -0.645255  0  -0.166237  -0.155984  0  3.405879  0
N  N55  1  0.44513782  0.50051689  0.01396059  1  -0.52978  0  -0.149817  -0.095543  0  3.260211  0
N  N56  1  0.51623228  0.01488587  0.47260719  1  -0.622733  0  -0.164485  -0.130289  0  3.38098  0
N  N57  1  0.51343279  0.98213614  0.52889029  1  -0.624799  0  -0.158238  -0.085685  0  3.373332  0
O  O58  1  0.49984937  0.50014159  0.49851427  1  -1.237943  0  -0.577973  -1.039372  0  2.567572  0
O  O59  1  0.21596797  0.54295141  0.47098356  1  -1.160506  0  -0.30202  -0.512385  0  2.302066  0
O  O60  1  0.76993695  0.46272422  0.46981920  1  -1.160408  0  -0.315046  -0.542969  0  2.322789  0
O  O61  1  0.23485552  0.43396128  0.50921960  1  -1.182717  0  -0.314964  -0.556925  0  2.337068  0
O  O62  1  0.77471218  0.56990597  0.53157520  1  -1.162587  0  -0.323479  -0.558913  0  2.25098  0
O  O63  1  0.30342440  0.46876701  0.75791997  1  -1.156245  0  -0.364087  -0.446727  0  2.243632  0
O  O64  1  0.46223529  0.76327128  0.38472165  1  -1.116364  0  -0.349198  -0.409783  0  2.2716  0
O  O65  1  0.48837170  0.90225054  0.39391620  1  -1.083694  0  -0.326845  -0.366989  0  2.308379  0
O  O66  1  0.49189553  0.09470547  0.60588809  1  -1.110928  0  -0.336453  -0.402305  0  2.285261  0
O  O67  1  0.53041098  0.91581905  0.64546864  1  -1.133755  0  -0.350128  -0.440049  0  2.261474  0
O  O68  1  0.99967349  0.40768218  0.49887551  1  -1.119961  0  -0.33406  -0.386475  0  2.285978  0
O  O69  1  0.53514353  0.65738109  0.56444886  1  -1.171181  0  -0.309477  -0.531331  0  2.293939  0
O  O70  1  0.67234270  0.46541788  0.09692492  1  -1.123818  0  -0.354053  -0.413645  0  2.291048  0
O  O71  1  0.75446865  0.52314001  0.91738371  1  -1.116652  0  -0.354434  -0.441027  0  2.300453  0
O  O72  1  0.74610319  0.52739746  0.78008765  1  -1.080484  0  -0.334662  -0.399312  0  2.271277  0
O  O73  1  0.24711692  0.53080716  0.22113199  1  -1.133656  0  -0.363134  -0.443649  0  2.241873  0
O  O74  1  0.55126237  0.34127563  0.44101371  1  -1.16752  0  -0.309221  -0.539738  0  2.321611  0
O  O75  1  0.37734796  0.52006232  0.34086162  1  -1.17594  0  -0.314316  -0.567639  0  2.333954  0
O  O76  1  0.41843804  0.47507543  0.64961627  1  -1.177699  0  -0.321869  -0.57636  0  2.359148  0
O  O77  1  0.56139528  0.46751691  0.34108909  1  -1.171278  0  -0.304985  -0.528009  0  2.336019  0
O  O78  1  0.60685816  0.53257546  0.65958133  1  -1.160812  0  -0.301649  -0.515078  0  2.333029  0
O  O79  1  0.44933918  0.65179095  0.45104364  1  -1.177373  0  -0.315275  -0.567955  0  2.342055  0
O  O80  1  0.46512418  0.34098946  0.54442852  1  -1.169245  0  -0.317344  -0.548903  0  2.326972  0
