# generated using pymatgen
data_MnH15C20N5O7
_symmetry_space_group_name_H-M   'P 1'
_cell_length_a   7.35765881
_cell_length_b   10.63217177
_cell_length_c   13.69839210
_cell_angle_alpha   80.18395316
_cell_angle_beta   74.42939178
_cell_angle_gamma   69.76739240
_symmetry_Int_Tables_number   1
_chemical_formula_structural   MnH15C20N5O7
_chemical_formula_sum   'Mn2 H30 C40 N10 O14'
_cell_volume   964.99307875
_cell_formula_units_Z   2
loop_
 _symmetry_equiv_pos_site_id
 _symmetry_equiv_pos_as_xyz
  1  'x, y, z'
loop_
 _atom_site_type_symbol
 _atom_site_label
 _atom_site_symmetry_multiplicity
 _atom_site_fract_x
 _atom_site_fract_y
 _atom_site_fract_z
 _atom_site_occupancy
 _atom_site_hle17_ddec_charge
 _atom_site_hle17_ddec_spin_density
 _atom_site_hle17_ddec_sum_bond_order
 _atom_site_hle17_magmom
 _atom_site_hse06_10hf_ddec_charge
 _atom_site_hse06_10hf_ddec_spin_density
 _atom_site_hse06_10hf_ddec_sum_bond_order
 _atom_site_hse06_10hf_magmom
 _atom_site_hse06_ddec_charge
 _atom_site_hse06_ddec_spin_density
 _atom_site_hse06_ddec_sum_bond_order
 _atom_site_hse06_magmom
 _atom_site_pbe_cm5_charge
 _atom_site_pbe_ddec_charge
 _atom_site_pbe_ddec_spin_density
 _atom_site_pbe_ddec_sum_bond_order
 _atom_site_pbe_magmom
Mn  Mn0  1  0.60077948  0.65172416  0.42000250  1  1.077203  4.807279  1.807385  4.67  0.890571  4.73461  2.308344  4.524  0.949044  4.777859  2.244982  4.589  0.605973  0.84598  4.689198  2.353895  4.459
Mn  Mn1  1  0.32743064  0.15169926  0.92005927  1  1.077674  4.801173  1.808442  4.67  0.891033  4.728437  2.309709  4.523  0.949719  4.771637  2.246099  4.588  0.606623  0.846641  4.682735  2.3558  4.458
H  H2  1  0.04785790  0.56897526  0.24425801  1  0.400227  -0.000315  0.892348  0.0  0.366975  -0.00023  0.973801  0.0  0.380559  -0.000316  0.959189  0.0  0.298935  0.357349  -0.000135  0.984069  0.0
H  H3  1  0.13777729  0.06917581  0.74441810  1  0.398944  -0.000314  0.893682  0.0  0.366058  -0.00023  0.974614  0.0  0.379561  -0.000316  0.960184  0.0  0.298722  0.356507  -0.000132  0.984712  0.0
H  H4  1  0.67275233  0.42470282  0.31462705  1  0.424155  -0.000172  0.81353  0.0  0.41056  0.00065  0.861908  0.001  0.418478  0.000289  0.853073  0.001  0.329323  0.404934  0.000799  0.868073  0.001
H  H5  1  0.58770334  0.92477264  0.81468777  1  0.424235  -0.000252  0.812667  0.0  0.410742  0.000471  0.860827  0.001  0.418595  0.000166  0.852115  0.001  0.329147  0.405039  0.000795  0.867211  0.001
H  H6  1  0.45477692  0.44882266  0.38321119  1  0.443213  -0.000145  0.85117  0.0  0.409987  0.000453  0.918586  0.001  0.421169  0.000209  0.902111  0.001  0.299689  0.402134  0.000579  0.930055  0.001
H  H7  1  0.71323557  0.94891917  0.88315865  1  0.443355  -0.000192  0.851066  0.0  0.410642  0.000354  0.917653  0.001  0.42173  0.000135  0.901315  0.001  0.29938  0.402723  0.000582  0.929313  0.001
H  H8  1  0.57587538  0.12039938  0.23795126  1  0.320997  0.000134  0.930646  0.0  0.301282  0.00029  0.989934  0.0  0.311146  0.0002  0.981876  0.0  0.306331  0.29444  0.000308  0.995441  0.0
H  H9  1  0.06573242  0.62049833  0.73820471  1  0.320481  0.00011  0.931714  0.0  0.300821  0.000236  0.99055  0.0  0.310646  0.000161  0.982599  0.0  0.306367  0.293947  0.000308  0.996124  0.0
H  H10  1  0.54245660  0.98384931  0.09914848  1  0.314339  -0.000427  0.920962  0.0  0.290642  -0.000205  0.985764  0.0  0.300712  -0.00034  0.977787  0.0  0.309948  0.283559  -6.8e-05  0.991375  0.0
H  H11  1  0.37435382  0.48402495  0.59934505  1  0.313138  -0.000427  0.922635  0.0  0.289912  -0.000209  0.986703  0.0  0.299947  -0.000341  0.97881  0.0  0.310117  0.282842  -6.2e-05  0.992249  0.0
H  H12  1  0.50337571  0.65636069  0.66395904  1  0.097365  -6.7e-05  0.967278  0.0  0.101876  0.000391  1.037551  0.0  0.105289  0.00024  1.033804  0.0  0.120231  0.099273  0.000545  1.040547  0.001
H  H13  1  0.17643471  0.15627796  0.16397393  1  0.097893  -6.9e-05  0.967508  0.0  0.102798  0.000398  1.037513  0.0  0.106129  0.000245  1.033913  0.0  0.120789  0.100037  0.000545  1.04075  0.001
H  H14  1  0.96798684  0.31161245  0.75389366  1  0.10486  -0.000531  0.951117  0.0  0.11579  -0.000372  1.011165  0.0  0.118752  -0.000397  1.008868  0.0  0.112893  0.113447  -0.000338  1.013288  0.0
H  H15  1  0.96680199  0.81138131  0.25377692  1  0.105867  -0.000528  0.9507  0.0  0.1166  -0.000376  1.010635  0.0  0.119562  -0.000399  1.008363  0.0  0.112676  0.114183  -0.00034  1.012999  0.0
H  H16  1  0.16341624  0.32124514  0.57483909  1  0.113139  0.000287  0.951772  0.0  0.120551  0.000265  1.016504  0.0  0.124523  0.000206  1.013986  0.0  0.111528  0.117558  0.000334  1.018601  0.0
H  H17  1  0.94106954  0.82090766  0.07471552  1  0.114181  0.00028  0.951496  0.0  0.120449  0.000267  1.017565  0.0  0.124475  0.000208  1.014981  0.0  0.111475  0.117493  0.000334  1.019672  0.0
H  H18  1  0.73904928  0.27296887  0.86701550  1  0.107482  -0.000143  0.944129  0.0  0.117928  -9.3e-05  1.00526  0.0  0.121119  -0.000135  1.003806  0.0  0.108946  0.115572  -4.4e-05  1.006535  0.0
H  H19  1  0.12067947  0.77288507  0.36711996  1  0.107807  -0.000146  0.944543  0.0  0.117729  -9.5e-05  1.006283  0.0  0.120978  -0.000137  1.00475  0.0  0.108822  0.115341  -4.5e-05  1.007668  0.0
H  H20  1  0.22181904  0.68852837  0.99574477  1  0.09335  -4e-05  0.976534  0.0  0.102512  -1.8e-05  1.042153  0.0  0.104702  -3.2e-05  1.041763  0.0  0.102291  0.100836  -7e-06  1.042672  0.0
H  H21  1  0.09449087  0.18842882  0.49563561  1  0.093933  -4.7e-05  0.976906  0.0  0.10242  -3e-05  1.0432  0.0  0.104724  -4.3e-05  1.042649  0.0  0.102399  0.100787  -6e-06  1.04365  0.0
H  H22  1  0.42728681  0.69790087  0.82168519  1  0.108832  -3.1e-05  0.946637  0.0  0.119263  2.3e-05  1.006613  0.0  0.123084  -3e-06  1.003763  0.0  0.106175  0.116482  5.6e-05  1.008812  0.0
H  H23  1  0.05401960  0.19769798  0.32153194  1  0.108397  -2.3e-05  0.947505  0.0  0.119308  4.2e-05  1.006888  0.0  0.123152  7e-06  1.004045  0.0  0.105913  0.116321  5.7e-05  1.009463  0.0
H  H24  1  0.62046729  0.93590171  0.53644554  1  0.107114  -0.000188  0.938495  0.0  0.116834  4.9e-05  0.996212  0.0  0.119439  -1.5e-05  0.995374  0.0  0.12001  0.115023  0.000113  0.996891  0.0
H  H25  1  0.90726704  0.43600191  0.03669824  1  0.10705  -0.000181  0.939557  0.0  0.116987  4.6e-05  0.996941  0.0  0.119565  -1.9e-05  0.996141  0.0  0.120001  0.115133  0.000117  0.997649  0.0
H  H26  1  0.58948743  0.17524385  0.41114090  1  0.103395  0.000581  0.967936  0.0  0.111179  0.001099  1.033976  0.0  0.114294  0.000804  1.031937  0.0  0.119098  0.109304  0.000898  1.034817  0.0
H  H27  1  0.82432459  0.67539403  0.91144162  1  0.103744  0.000369  0.96688  0.0  0.111562  0.0007  1.032642  0.0  0.114665  0.000508  1.030683  0.0  0.119312  0.109236  0.000897  1.034197  0.0
H  H28  1  0.52013996  0.79060837  0.02244763  1  0.109825  4.9e-05  0.978248  0.0  0.117867  0.000154  1.042366  0.0  0.120435  5.7e-05  1.04158  0.0  0.119255  0.115986  0.000276  1.043021  0.0
H  H29  1  0.66650417  0.29074404  0.52265109  1  0.110155  6.4e-05  0.976331  0.0  0.118138  0.000192  1.040549  0.0  0.120788  8e-05  1.039653  0.0  0.119431  0.116186  0.000288  1.041267  0.0
H  H30  1  0.53283926  0.58129746  0.17640108  1  0.101457  -0.000235  0.953114  0.0  0.109798  -6.5e-05  1.014679  0.0  0.112626  -0.000112  1.01283  0.0  0.117628  0.107608  -1.6e-05  1.016364  0.0
H  H31  1  0.70902069  0.08147115  0.67664418  1  0.100565  -0.000248  0.954319  0.0  0.109256  -8.3e-05  1.015596  0.0  0.112094  -0.000124  1.013694  0.0  0.117698  0.107231  -2.9e-05  1.017016  0.0
C  C32  1  0.04016520  0.49717284  0.41647608  1  0.632879  0.000471  3.890112  0.001  0.580958  0.002995  4.184238  0.003  0.614119  0.001771  4.176667  0.002  0.220802  0.558223  0.004327  4.189016  0.004
C  C33  1  0.04642765  0.99711815  0.91643283  1  0.632643  0.0006  3.893823  0.001  0.580811  0.003215  4.188331  0.003  0.613928  0.001945  4.180753  0.002  0.22137  0.558207  0.004385  4.192641  0.004
C  C34  1  0.93217636  0.48831119  0.52619631  1  0.085476  0.005159  3.750541  0.005  0.089121  0.00734  3.992284  0.006  0.090693  0.00637  4.011105  0.006  0.10955  0.087308  0.009245  3.98046  0.008
C  C35  1  0.05353644  0.98817880  0.02614383  1  0.085322  0.005184  3.749772  0.005  0.08849  0.007456  3.991877  0.006  0.090195  0.00645  4.010535  0.006  0.108738  0.086577  0.009343  3.98012  0.008
C  C36  1  0.64888531  0.57964576  0.64865563  1  0.104779  0.006642  3.630439  0.006  0.0657  0.008754  3.885074  0.007  0.073418  0.007624  3.899177  0.007  0.057429  0.06026  0.010438  3.875997  0.008
C  C37  1  0.12289893  0.07958034  0.14865358  1  0.104096  0.006585  3.63032  0.006  0.064346  0.008712  3.88534  0.007  0.072052  0.007594  3.899457  0.007  0.056472  0.059008  0.010443  3.876319  0.009
C  C38  1  0.72141713  0.48627041  0.72618523  1  0.013774  -0.003995  3.739583  -0.002  0.030804  -0.002633  3.97595  -0.001  0.027332  -0.003686  3.997625  -0.002  0.003218  0.032724  -0.001988  3.961918  -0.001
C  C39  1  0.06630041  0.98612323  0.22617257  1  0.013474  -0.003963  3.738124  -0.002  0.030306  -0.002643  3.974412  -0.001  0.026879  -0.00369  3.996047  -0.002  0.002667  0.032243  -0.002028  3.960282  -0.001
C  C40  1  0.90698282  0.38882744  0.69771794  1  -0.034316  0.005425  3.669617  0.005  -0.064669  0.006786  3.928676  0.005  -0.060748  0.00599  3.943851  0.005  -0.063703  -0.067818  0.008723  3.91946  0.007
C  C41  1  0.00675050  0.88861528  0.19763856  1  -0.035674  0.005381  3.669384  0.005  -0.065532  0.006781  3.92776  0.005  -0.061564  0.005985  3.94282  0.005  -0.063806  -0.06866  0.008803  3.918627  0.007
C  C42  1  0.01595333  0.39258152  0.59792825  1  -0.102262  -0.004981  3.726168  -0.003  -0.131392  -0.003262  3.991833  -0.002  -0.134994  -0.004326  4.009219  -0.003  -0.078143  -0.129259  -0.002809  3.981201  -0.002
C  C43  1  0.99390417  0.89234544  0.09784003  1  -0.103058  -0.004889  3.727445  -0.003  -0.131427  -0.003249  3.993014  -0.002  -0.135051  -0.004313  4.010271  -0.003  -0.077417  -0.129242  -0.002838  3.982387  -0.002
C  C44  1  0.60150711  0.48605894  0.83135720  1  0.062328  0.000504  3.794712  0.001  0.07163  0.00039  4.036027  0.001  0.073496  0.000336  4.059633  0.001  -0.004805  0.070584  0.000497  4.020072  0.001
C  C45  1  0.08115078  0.98595069  0.33134422  1  0.06239  0.000487  3.79378  0.001  0.07253  0.000374  4.034361  0.001  0.074313  0.00032  4.058097  0.001  -0.004616  0.071515  0.000481  4.018264  0.001
C  C46  1  0.62853583  0.36567523  0.89500679  1  -0.12222  -7.7e-05  3.703644  0.0  -0.154566  0.000833  3.960582  0.0  -0.157846  0.000485  3.980512  0.0  -0.081361  -0.152468  0.001359  3.947353  0.0
C  C47  1  0.11052808  0.86561410  0.39509201  1  -0.123483  -4e-05  3.702843  0.0  -0.155756  0.000854  3.95996  0.0  -0.159  0.000498  3.979784  0.0  -0.081872  -0.153586  0.001398  3.946693  0.001
C  C48  1  0.51072604  0.36047250  0.99290463  1  -0.060503  0.001293  3.758939  0.0  -0.047052  0.001951  3.996952  0.0  -0.049909  0.00163  4.016372  0.0  -0.005619  -0.045322  0.002258  3.984264  0.0
C  C49  1  0.13549089  0.86047890  0.49301482  1  -0.057476  0.001292  3.754368  0.0  -0.044763  0.001981  3.992549  0.0  -0.047625  0.001647  4.011905  0.0  -0.004841  -0.042832  0.002256  3.979556  0.0
C  C50  1  0.54551311  0.22872975  0.05728915  1  0.682836  0.002069  3.876976  0.002  0.624441  0.004736  4.186596  0.004  0.65954  0.003374  4.176534  0.003  0.222684  0.600192  0.006095  4.192693  0.005
C  C51  1  0.16823854  0.72872617  0.55738588  1  0.679904  0.002075  3.879382  0.002  0.623411  0.00474  4.186448  0.004  0.658531  0.003377  4.176376  0.003  0.223212  0.599249  0.006094  4.192475  0.005
C  C52  1  0.36231503  0.47747855  0.03008649  1  -0.086075  -0.000284  3.746011  0.0  -0.071485  0.000501  3.975843  0.001  -0.079195  8.7e-05  3.998392  0.0  -0.012327  -0.066594  0.000874  3.961074  0.001
C  C53  1  0.12976928  0.97751451  0.53019298  1  -0.088766  -0.000278  3.744022  0.0  -0.074264  0.000471  3.974228  0.001  -0.081903  5.9e-05  3.996673  0.0  -0.013183  -0.06945  0.000896  3.959392  0.001
C  C54  1  0.21835842  0.46810959  0.12922761  1  0.647743  -3.8e-05  3.844557  0.0  0.598311  3.1e-05  4.14652  0.0  0.632271  -3.1e-05  4.135856  0.0  0.226499  0.575068  0.000106  4.153496  0.0
C  C55  1  0.18363137  0.96837561  0.62935799  1  0.650462  -5.8e-05  3.839348  0.0  0.601309  2.2e-05  4.141205  0.0  0.635232  -4.2e-05  4.130515  0.0  0.226822  0.578076  0.000108  4.148133  0.0
C  C56  1  0.33827121  0.59831319  0.96772577  1  -0.051598  0.000188  3.733611  0.0  -0.075617  0.000245  3.984948  0.0  -0.074407  0.000168  4.005396  0.0  -0.0812  -0.076198  0.00031  3.971112  0.0
C  C57  1  0.09596657  0.09824319  0.46768036  1  -0.051606  0.00018  3.733191  0.0  -0.074899  0.000235  3.984476  0.0  -0.073784  0.000168  4.004921  0.0  -0.080938  -0.075523  0.000275  3.970732  0.0
C  C58  1  0.45438946  0.60299115  0.86937415  1  -0.113818  2.6e-05  3.709173  0.0  -0.137866  0.00085  3.967108  0.001  -0.140745  0.000413  3.98525  0.0  -0.088802  -0.136189  0.001329  3.954939  0.001
C  C59  1  0.07372595  0.10285395  0.36928884  1  -0.11346  3.6e-05  3.70718  0.0  -0.138324  0.000854  3.964974  0.001  -0.141224  0.000408  3.98318  0.0  -0.088405  -0.13656  0.001274  3.953045  0.001
C  C60  1  0.60307000  0.95926517  0.45865434  1  0.019429  0.00242  3.729407  0.003  -0.015505  0.004074  4.004545  0.005  -0.014773  0.003195  4.026648  0.004  0.006067  -0.016124  0.004912  3.989181  0.005
C  C61  1  0.97899508  0.45933516  0.95889111  1  0.01992  0.002469  3.730703  0.003  -0.015102  0.004155  4.005894  0.005  -0.014407  0.003266  4.028096  0.004  0.006271  -0.015627  0.004904  3.990368  0.005
C  C62  1  0.58859054  0.07817928  0.39743368  1  0.006429  0.00046  3.670899  0.0  -0.033561  0.001248  3.938675  0.001  -0.032156  0.000546  3.957983  0.0  0.008393  -0.034131  0.001841  3.92492  0.001
C  C63  1  0.93584346  0.57829157  0.89771028  1  0.006455  0.000436  3.669323  0.0  -0.033631  0.001185  3.936794  0.001  -0.032284  0.000506  3.956116  0.0  0.00847  -0.034177  0.001839  3.923508  0.001
C  C64  1  0.57284764  0.92600201  0.31227512  1  0.244079  0.003444  3.829997  0.003  0.21721  0.00658  4.09439  0.006  0.22807  0.005589  4.111123  0.005  0.216033  0.21002  0.007747  4.082499  0.007
C  C65  1  0.18872508  0.42612330  0.81249615  1  0.243949  0.003433  3.828789  0.003  0.217751  0.006592  4.092415  0.006  0.228602  0.005599  4.109191  0.005  0.21617  0.210534  0.007733  4.080604  0.007
C  C66  1  0.56017327  0.85169822  0.23732719  1  0.251354  0.003239  3.806577  0.003  0.224615  0.006131  4.067534  0.005  0.235972  0.005199  4.083353  0.005  0.21703  0.217047  0.007126  4.056398  0.006
C  C67  1  0.35056814  0.35187518  0.73752558  1  0.252479  0.003238  3.807255  0.003  0.224882  0.006149  4.069019  0.005  0.236248  0.005212  4.084871  0.005  0.217296  0.217395  0.007144  4.057763  0.006
C  C68  1  0.53544756  0.78256534  0.09988502  1  0.00049  9.1e-05  3.66847  0.0  -0.04004  0.000812  3.934282  0.001  -0.039048  0.000171  3.954865  0.0  0.004334  -0.040317  0.001376  3.920076  0.001
C  C69  1  0.58176457  0.28271566  0.60008132  1  -0.000142  7.5e-05  3.665875  0.0  -0.040895  0.000812  3.932398  0.001  -0.04005  0.000168  3.952995  0.0  0.00461  -0.041201  0.001352  3.918343  0.001
C  C70  1  0.54292382  0.68044283  0.17720168  1  0.011641  0.002423  3.737304  0.003  -0.020783  0.003923  4.00672  0.005  -0.018981  0.003136  4.026482  0.004  0.003077  -0.022065  0.004772  3.993052  0.005
C  C71  1  0.59907400  0.18060985  0.67740899  1  0.014047  0.002478  3.737108  0.003  -0.018567  0.004001  4.006309  0.005  -0.016717  0.003193  4.026101  0.004  0.003719  -0.019971  0.004816  3.992694  0.005
N  N72  1  0.74764969  0.57727167  0.55102951  1  -0.331578  0.02446  3.244068  0.012  -0.267316  0.028598  3.515547  0.013  -0.284806  0.024246  3.530291  0.009  -0.319564  -0.255002  0.033286  3.50574  0.017
N  N73  1  0.12404747  0.07725218  0.05104349  1  -0.331051  0.024541  3.241895  0.013  -0.266126  0.028671  3.513106  0.013  -0.283632  0.024316  3.527842  0.009  -0.319108  -0.253836  0.033266  3.503489  0.017
N  N74  1  0.59271534  0.86467194  0.40509420  1  -0.427464  0.030558  3.190056  0.016  -0.366511  0.034988  3.484439  0.015  -0.38715  0.030794  3.499769  0.012  -0.343095  -0.350929  0.03976  3.472798  0.019
N  N75  1  0.13736466  0.36473034  0.90529440  1  -0.42678  0.030805  3.189387  0.016  -0.36655  0.035434  3.484004  0.016  -0.387175  0.031148  3.499327  0.012  -0.342794  -0.351207  0.039774  3.47277  0.019
N  N76  1  0.57007526  0.05521060  0.30531228  1  -0.302274  0.001046  3.408273  0.001  -0.23691  0.002551  3.634103  0.002  -0.252825  0.001898  3.649031  0.002  -0.366715  -0.22615  0.003185  3.623658  0.003
N  N77  1  0.06933984  0.55534032  0.80557385  1  -0.303467  0.001034  3.408244  0.001  -0.237411  0.00249  3.63285  0.002  -0.25332  0.001858  3.647785  0.002  -0.367612  -0.226683  0.003174  3.622625  0.003
N  N78  1  0.54735169  0.88968012  0.13908079  1  -0.306073  0.000974  3.42668  0.001  -0.239051  0.002465  3.656022  0.003  -0.255331  0.001766  3.671079  0.002  -0.368607  -0.228128  0.003195  3.645866  0.003
N  N79  1  0.42368103  0.38986464  0.63928924  1  -0.306246  0.000984  3.427816  0.001  -0.239292  0.00248  3.657461  0.003  -0.2555  0.001778  3.672476  0.002  -0.369171  -0.228311  0.003213  3.647125  0.003
N  N80  1  0.55912200  0.72394793  0.26259174  1  -0.426234  0.02717  3.196465  0.014  -0.361344  0.030259  3.479726  0.013  -0.381237  0.026957  3.493825  0.01  -0.344908  -0.346811  0.033738  3.469338  0.015
N  N81  1  0.45400944  0.22410957  0.76278093  1  -0.427503  0.027365  3.197584  0.014  -0.362408  0.030644  3.48088  0.013  -0.382307  0.02725  3.495022  0.01  -0.345959  -0.347694  0.033782  3.470612  0.015
O  O82  1  0.92791968  0.56445593  0.35414810  1  -0.641574  0.028529  2.069714  0.021  -0.569824  0.035011  2.322032  0.026  -0.600887  0.03119  2.309757  0.022  -0.302608  -0.547101  0.038856  2.329863  0.029
O  O83  1  0.15418522  0.06410513  0.85410634  1  -0.641233  0.028606  2.072163  0.021  -0.569955  0.03502  2.324827  0.026  -0.601  0.031213  2.312632  0.022  -0.303137  -0.547165  0.038922  2.332341  0.029
O  O84  1  0.22406925  0.44184417  0.39185547  1  -0.601188  0.003092  1.942157  0.004  -0.553765  0.005748  2.162025  0.007  -0.575672  0.004107  2.151119  0.005  -0.314229  -0.538509  0.007659  2.169109  0.009
O  O85  1  0.94214232  0.94210651  0.89174143  1  -0.601397  0.003029  1.944847  0.004  -0.553997  0.005626  2.164366  0.007  -0.57585  0.004006  2.153581  0.005  -0.314427  -0.538685  0.007832  2.171512  0.009
O  O86  1  0.61626395  0.21626663  0.13332976  1  -0.590386  0.002926  1.934968  0.004  -0.550275  0.004607  2.153572  0.005  -0.573685  0.003427  2.145083  0.004  -0.316591  -0.533281  0.005845  2.158721  0.007
O  O87  1  0.03412103  0.71613892  0.63348388  1  -0.59025  0.00291  1.937214  0.004  -0.550639  0.004541  2.154801  0.005  -0.574108  0.003384  2.146356  0.004  -0.317021  -0.533982  0.005849  2.1602  0.007
O  O88  1  0.50758829  0.13407100  0.02623147  1  -0.660777  0.031309  2.078433  0.018  -0.581043  0.037435  2.338275  0.021  -0.613892  0.033892  2.326214  0.018  -0.308265  -0.556759  0.040626  2.345729  0.023
O  O89  1  0.33199014  0.63419935  0.52628756  1  -0.657489  0.031076  2.076145  0.018  -0.578547  0.037139  2.334889  0.021  -0.611394  0.033637  2.322844  0.018  -0.307974  -0.554462  0.040503  2.342345  0.023
O  O90  1  0.17900622  0.36339885  0.16521101  1  -0.560261  -0.000158  1.926425  0.0  -0.523515  8.3e-05  2.146588  0.0  -0.543679  -4.2e-05  2.1369  0.0  -0.295954  -0.509486  0.000212  2.153225  0.0
O  O91  1  0.29258963  0.86399979  0.66522117  1  -0.560788  -0.00015  1.923596  0.0  -0.524062  8.9e-05  2.143491  0.0  -0.544295  -3.7e-05  2.133895  0.0  -0.295445  -0.509836  0.000242  2.149812  0.0
O  O92  1  0.13388366  0.58366354  0.17234762  1  -0.565105  0.000212  2.123759  0.0  -0.51322  0.000418  2.351684  0.001  -0.536609  0.000215  2.338126  0.001  -0.334549  -0.496701  0.000646  2.360727  0.001
O  O93  1  0.10814503  0.08379861  0.67270313  1  -0.564875  0.000224  2.121637  0.0  -0.513446  0.000422  2.349352  0.001  -0.536742  0.00022  2.33583  0.001  -0.33467  -0.496951  0.000669  2.358256  0.001
O  O94  1  0.59159759  0.44828075  0.38180565  1  -0.807263  0.022231  1.837988  0.014  -0.751772  0.031462  2.031016  0.02  -0.772386  0.027944  2.001557  0.018  -0.552464  -0.735885  0.034993  2.050745  0.023
O  O95  1  0.57835391  0.94829393  0.88185019  1  -0.807036  0.02242  1.837082  0.014  -0.752023  0.031707  2.029579  0.021  -0.772695  0.028157  2.00051  0.018  -0.552151  -0.736499  0.035008  2.049851  0.023
