# generated using pymatgen
data_Cu2H8C14N6O
_symmetry_space_group_name_H-M   'P 1'
_cell_length_a   9.25008991
_cell_length_b   9.24995568
_cell_length_c   9.43400191
_cell_angle_alpha   100.66735426
_cell_angle_beta   100.67000076
_cell_angle_gamma   115.98961348
_symmetry_Int_Tables_number   1
_chemical_formula_structural   Cu2H8C14N6O
_chemical_formula_sum   'Cu4 H16 C28 N12 O2'
_cell_volume   679.86742060
_cell_formula_units_Z   2
loop_
 _symmetry_equiv_pos_site_id
 _symmetry_equiv_pos_as_xyz
  1  'x, y, z'
loop_
 _atom_site_type_symbol
 _atom_site_label
 _atom_site_symmetry_multiplicity
 _atom_site_fract_x
 _atom_site_fract_y
 _atom_site_fract_z
 _atom_site_occupancy
 _atom_site_hle17_bader_spin_density
 _atom_site_hle17_ddec_charge
 _atom_site_hle17_ddec_spin_density
 _atom_site_hle17_ddec_sum_bond_order
 _atom_site_hle17_magmom
 _atom_site_hse06_10hf_bader_spin_density
 _atom_site_hse06_10hf_ddec_charge
 _atom_site_hse06_10hf_ddec_spin_density
 _atom_site_hse06_10hf_ddec_sum_bond_order
 _atom_site_hse06_10hf_magmom
 _atom_site_hse06_bader_spin_density
 _atom_site_hse06_ddec_charge
 _atom_site_hse06_ddec_spin_density
 _atom_site_hse06_ddec_sum_bond_order
 _atom_site_hse06_magmom
 _atom_site_pbe_bader_spin_density
 _atom_site_pbe_cm5_charge
 _atom_site_pbe_ddec_charge
 _atom_site_pbe_ddec_spin_density
 _atom_site_pbe_ddec_sum_bond_order
 _atom_site_pbe_magmom
Cu  Cu0  1  0.24454853  0.15390928  0.15334191  1  0  0.400871  0  2.214856  0  0  0.296414  0  2.714162  0  0  0.286487  0  2.676323  0  0  0.491577  0.306955  0  2.735348  0
Cu  Cu1  1  0.84607644  0.75541934  0.34665316  1  0  0.400805  0  2.214524  0  0  0.296336  0  2.713822  0  0  0.286395  0  2.675968  0  0  0.491551  0.306885  0  2.735011  0
Cu  Cu2  1  0.75544633  0.84608514  0.84665968  1  0  0.400835  0  2.2149  0  0  0.296382  0  2.714218  0  0  0.286447  0  2.676352  0  0  0.491581  0.306923  0  2.735402  0
Cu  Cu3  1  0.15392080  0.24457762  0.65335248  1  0  0.400719  0  2.214739  0  0  0.296251  0  2.71405  0  0  0.286281  0  2.676187  0  0  0.491523  0.306794  0  2.735239  0
H  H4  1  0.06087400  0.76361363  0.04549123  1  0  0.083585  0  0.959225  0  0  0.092354  0  1.02711  0  0  0.094803  0  1.02464  0  0  0.112857  0.090382  0  1.028889  0
H  H5  1  0.23637116  0.93912315  0.45450612  1  0  0.083608  0  0.959222  0  0  0.092368  0  1.027094  0  0  0.094817  0  1.024625  0  0  0.112879  0.090377  0  1.028892  0
H  H6  1  0.93912428  0.23638327  0.95450822  1  0  0.083587  0  0.959217  0  0  0.09238  0  1.027075  0  0  0.09483  0  1.024603  0  0  0.112853  0.090392  0  1.028871  0
H  H7  1  0.76362506  0.06087627  0.54549130  1  0  0.083631  0  0.959188  0  0  0.092389  0  1.027058  0  0  0.094841  0  1.024587  0  0  0.112891  0.0904  0  1.028855  0
H  H8  1  0.14286723  0.53492793  0.01966549  1  0  0.102284  0  0.952758  0  0  0.114129  0  1.013091  0  0  0.116118  0  1.014007  0  0  0.107209  0.112936  0  1.012233  0
H  H9  1  0.46506792  0.85714603  0.48033126  1  0  0.102276  0  0.952773  0  0  0.114067  0  1.013159  0  0  0.11606  0  1.014068  0  0  0.107191  0.112874  0  1.012304  0
H  H10  1  0.85713606  0.46507020  0.98033401  1  0  0.102333  0  0.952748  0  0  0.114164  0  1.013088  0  0  0.116144  0  1.014027  0  0  0.107217  0.112971  0  1.012231  0
H  H11  1  0.53493187  0.14285842  0.51966556  1  0  0.10227  0  0.952768  0  0  0.114086  0  1.013124  0  0  0.116073  0  1.014047  0  0  0.107203  0.112893  0  1.012268  0
H  H12  1  0.44924827  0.61782478  0.09836052  1  0  0.114364  0  0.913693  0  0  0.127794  0  0.965142  0  0  0.130663  0  0.963366  0  0  0.117919  0.125542  0  0.966783  0
H  H13  1  0.38217557  0.55076577  0.40163925  1  0  0.114286  0  0.91388  0  0  0.127764  0  0.965276  0  0  0.130642  0  0.963499  0  0  0.117913  0.125512  0  0.966918  0
H  H14  1  0.55075860  0.38217837  0.90163945  1  0  0.114341  0  0.913808  0  0  0.127788  0  0.965239  0  0  0.13066  0  0.963462  0  0  0.117938  0.125536  0  0.96688  0
H  H15  1  0.61782271  0.44924001  0.59836390  1  0  0.114299  0  0.913825  0  0  0.127741  0  0.965261  0  0  0.130611  0  0.963488  0  0  0.117926  0.12549  0  0.966902  0
H  H16  1  0.66297477  0.92417981  0.19637247  1  0  0.125825  0  0.962109  0  0  0.132266  0  1.028418  0  0  0.136666  0  1.025166  0  0  0.112259  0.129262  0  1.029997  0
H  H17  1  0.07582237  0.33702602  0.30362733  1  0  0.125825  0  0.96212  0  0  0.132252  0  1.028455  0  0  0.136651  0  1.025205  0  0  0.112261  0.129249  0  1.030026  0
H  H18  1  0.33702724  0.07582465  0.80362793  1  0  0.125837  0  0.962045  0  0  0.132269  0  1.028352  0  0  0.136668  0  1.0251  0  0  0.112241  0.129262  0  1.029934  0
H  H19  1  0.92418140  0.66297086  0.69637415  1  0  0.125815  0  0.96209  0  0  0.132238  0  1.028423  0  0  0.136637  0  1.02517  0  0  0.112255  0.129233  0  1.030005  0
C  C20  1  0.19260293  0.79315781  0.07656806  1  0  0.126816  0  3.664695  0  0  0.094488  0  3.920774  0  0  0.100512  0  3.935641  0  0  0.043613  0.09069  0  3.912773  0
C  C21  1  0.20684143  0.80740765  0.42343028  1  0  0.126869  0  3.664182  0  0  0.094556  0  3.920271  0  0  0.100583  0  3.935117  0  0  0.043578  0.09077  0  3.912281  0
C  C22  1  0.80739880  0.20684162  0.92343457  1  0  0.126815  0  3.664669  0  0  0.094474  0  3.920726  0  0  0.100499  0  3.935594  0  0  0.043621  0.090688  0  3.912732  0
C  C23  1  0.79315917  0.19259175  0.57656791  1  0  0.126804  0  3.664186  0  0  0.094496  0  3.920287  0  0  0.100528  0  3.935123  0  0  0.043562  0.09071  0  3.912298  0
C  C24  1  0.23886168  0.66751559  0.06298304  1  0  -0.117118  0  3.725894  0  0  -0.135342  0  3.982177  0  0  -0.141117  0  4.004681  0  0  -0.085664  -0.13271  0  3.970203  0
C  C25  1  0.33248127  0.76113877  0.43701394  1  0  -0.117116  0  3.726003  0  0  -0.135294  0  3.98233  0  0  -0.141076  0  4.004851  0  0  -0.085608  -0.132665  0  3.970353  0
C  C26  1  0.76113908  0.33248635  0.93701669  1  0  -0.117151  0  3.725861  0  0  -0.135354  0  3.982145  0  0  -0.141134  0  4.00465  0  0  -0.085657  -0.132725  0  3.970172  0
C  C27  1  0.66751947  0.23886315  0.56298366  1  0  -0.117099  0  3.726064  0  0  -0.135298  0  3.982386  0  0  -0.141083  0  4.004904  0  0  -0.085614  -0.132671  0  3.970414  0
C  C28  1  0.40930895  0.71304051  0.10687471  1  0  0.006526  0  3.689475  0  0  -0.010081  0  3.938888  0  0  -0.006479  0  3.956039  0  0  -0.061107  -0.012626  0  3.92934  0
C  C29  1  0.28696292  0.59070127  0.39312387  1  0  0.006628  0  3.689668  0  0  -0.009999  0  3.939005  0  0  -0.006415  0  3.956191  0  0  -0.061133  -0.012545  0  3.929457  0
C  C30  1  0.59069121  0.28696019  0.89312681  1  0  0.006583  0  3.689585  0  0  -0.010051  0  3.939007  0  0  -0.006442  0  3.956141  0  0  -0.061109  -0.012596  0  3.929458  0
C  C31  1  0.71303565  0.40930067  0.60687441  1  0  0.006615  0  3.689631  0  0  -0.009973  0  3.938979  0  0  -0.006379  0  3.956155  0  0  -0.061122  -0.012519  0  3.929431  0
C  C32  1  0.52882802  0.88374155  0.16212867  1  0  -0.120199  0  3.679672  0  0  -0.146722  0  3.935763  0  0  -0.15139  0  3.95432  0  0  -0.076134  -0.143529  0  3.922673  0
C  C33  1  0.11625436  0.47117002  0.33786839  1  0  -0.120202  0  3.679681  0  0  -0.146745  0  3.93579  0  0  -0.15141  0  3.954351  0  0  -0.076139  -0.143551  0  3.922703  0
C  C34  1  0.47117370  0.11625786  0.83787184  1  0  -0.120212  0  3.679696  0  0  -0.146716  0  3.935813  0  0  -0.151379  0  3.954367  0  0  -0.076128  -0.143522  0  3.922719  0
C  C35  1  0.88374843  0.52882936  0.66212912  1  0  -0.120157  0  3.679655  0  0  -0.146697  0  3.935769  0  0  -0.151359  0  3.954324  0  0  -0.07613  -0.143504  0  3.922678  0
C  C36  1  0.47191972  0.00131516  0.16891226  1  0  0.111568  0  3.818345  0  0  0.109725  0  4.063863  0  0  0.112357  0  4.08376  0  0  0.104143  0.108597  0  4.049971  0
C  C37  1  0.99868290  0.52807551  0.33108711  1  0  0.111559  0  3.818532  0  0  0.10975  0  4.064006  0  0  0.11237  0  4.083906  0  0  0.104186  0.108603  0  4.050095  0
C  C38  1  0.52807932  0.99868552  0.83108587  1  0  0.111522  0  3.818341  0  0  0.109651  0  4.063883  0  0  0.112283  0  4.083776  0  0  0.104119  0.10852  0  4.049986  0
C  C39  1  0.00131693  0.47192010  0.66891027  1  0  0.111539  0  3.818598  0  0  0.10973  0  4.064085  0  0  0.112348  0  4.083985  0  0  0.104202  0.108578  0  4.050168  0
C  C40  1  0.58722462  0.18086045  0.21624676  1  0  0.313673  0  3.725254  0  0  0.281018  0  4.00049  0  0  0.296464  0  4.00973  0  0  0.223475  0.269482  0  3.997102  0
C  C41  1  0.81913734  0.41276805  0.28374849  1  0  0.31362  0  3.725286  0  0  0.280988  0  4.00049  0  0  0.296437  0  4.009729  0  0  0.223461  0.269525  0  3.997003  0
C  C42  1  0.41277377  0.81913894  0.78374891  1  0  0.313592  0  3.725353  0  0  0.280977  0  4.000538  0  0  0.296419  0  4.009781  0  0  0.223472  0.269456  0  3.997129  0
C  C43  1  0.18086309  0.58722880  0.71624710  1  0  0.313597  0  3.725452  0  0  0.280965  0  4.000627  0  0  0.296415  0  4.009866  0  0  0.223434  0.269521  0  3.997115  0
C  C44  1  0.19375017  0.19908060  0.97210208  1  0  -0.135335  0  3.522021  0  0  -0.140435  0  3.913644  0  0  -0.123589  0  3.903228  0  0  -0.063275  -0.150808  0  3.917635  0
C  C45  1  0.80090416  0.80624554  0.52791709  1  0  -0.135077  0  3.521803  0  0  -0.14014  0  3.913346  0  0  -0.123299  0  3.902928  0  0  -0.063059  -0.150506  0  3.917333  0
C  C46  1  0.80625078  0.80092389  0.02790131  1  0  -0.135116  0  3.521984  0  0  -0.1402  0  3.913583  0  0  -0.123347  0  3.903161  0  0  -0.063184  -0.150573  0  3.917577  0
C  C47  1  0.19909433  0.19375395  0.47208922  1  0  -0.135004  0  3.522039  0  0  -0.140076  0  3.913558  0  0  -0.123224  0  3.903132  0  0  -0.062992  -0.15044  0  3.917548  0
N  N48  1  0.30627711  0.95832984  0.12804910  1  0  -0.276593  0  3.251924  0  0  -0.213679  0  3.529831  0  0  -0.220657  0  3.537545  0  0  -0.329799  -0.210632  0  3.524826  0
N  N49  1  0.04166362  0.69371124  0.37195048  1  0  -0.276638  0  3.251894  0  0  -0.21375  0  3.529824  0  0  -0.220715  0  3.537541  0  0  -0.32983  -0.210708  0  3.524828  0
N  N50  1  0.69372477  0.04167211  0.87195295  1  0  -0.276584  0  3.251872  0  0  -0.213671  0  3.529797  0  0  -0.220651  0  3.537517  0  0  -0.329821  -0.210623  0  3.524788  0
N  N51  1  0.95833635  0.30628688  0.62804525  1  0  -0.276617  0  3.251999  0  0  -0.213739  0  3.529937  0  0  -0.220699  0  3.537643  0  0  -0.329863  -0.210697  0  3.524942  0
N  N52  1  0.54799570  0.30203750  0.22859527  1  0  -0.226941  0  3.009076  0  0  -0.194376  0  3.300389  0  0  -0.200279  0  3.305066  0  0  -0.212316  -0.191833  0  3.2998  0
N  N53  1  0.69795831  0.45199971  0.27140801  1  0  -0.226867  0  3.009099  0  0  -0.19433  0  3.300442  0  0  -0.200223  0  3.305109  0  0  -0.212246  -0.191808  0  3.299819  0
N  N54  1  0.45200510  0.69796446  0.77140765  1  0  -0.226872  0  3.009075  0  0  -0.194351  0  3.300415  0  0  -0.200247  0  3.305083  0  0  -0.212348  -0.191813  0  3.299822  0
N  N55  1  0.30204623  0.54800094  0.72859323  1  0  -0.226865  0  3.009161  0  0  -0.19433  0  3.300511  0  0  -0.20022  0  3.305169  0  0  -0.212208  -0.191812  0  3.29988  0
N  N56  1  0.17806758  0.21817552  0.85097636  1  0  -0.388962  0  3.329061  0  0  -0.32753  0  3.665586  0  0  -0.341002  0  3.669487  0  0  -0.442071  -0.317887  0  3.660436  0
N  N57  1  0.78182784  0.82194062  0.64902526  1  0  -0.389103  0  3.329255  0  0  -0.327692  0  3.665793  0  0  -0.341157  0  3.669672  0  0  -0.442195  -0.318045  0  3.66064  0
N  N58  1  0.82193224  0.78182896  0.14902471  1  0  -0.389146  0  3.32896  0  0  -0.327729  0  3.665513  0  0  -0.341201  0  3.669401  0  0  -0.442119  -0.318086  0  3.660371  0
N  N59  1  0.21816688  0.17806016  0.35098061  1  0  -0.389114  0  3.329359  0  0  -0.327705  0  3.66592  0  0  -0.341158  0  3.669762  0  0  -0.44221  -0.318059  0  3.660771  0
O  O60  1  0.75763136  0.24235972  0.24999340  1  0  -0.240828  0  2.332672  0  0  -0.160145  0  2.537439  0  0  -0.179211  0  2.543581  0  0  -0.085534  -0.147773  0  2.536253  0
O  O61  1  0.24236625  0.75763587  0.75000041  1  0  -0.240808  0  2.332804  0  0  -0.160101  0  2.537522  0  0  -0.179168  0  2.543667  0  0  -0.085493  -0.147743  0  2.53633  0
