# generated using pymatgen
data_MgH7C13(NO)3
_symmetry_space_group_name_H-M   'P 1'
_cell_length_a   6.84227903
_cell_length_b   41.32999230
_cell_length_c   41.33055728
_cell_angle_alpha   119.69590627
_cell_angle_beta   93.16464825
_cell_angle_gamma   93.16304644
_symmetry_Int_Tables_number   1
_chemical_formula_structural   MgH7C13(NO)3
_chemical_formula_sum   'Mg6 H42 C78 N18 O18'
_cell_volume   10091.43712437
_cell_formula_units_Z   6
loop_
 _symmetry_equiv_pos_site_id
 _symmetry_equiv_pos_as_xyz
  1  'x, y, z'
loop_
 _atom_site_type_symbol
 _atom_site_label
 _atom_site_symmetry_multiplicity
 _atom_site_fract_x
 _atom_site_fract_y
 _atom_site_fract_z
 _atom_site_occupancy
 _atom_site_pbe_bader_charge
 _atom_site_pbe_bader_spin_density
 _atom_site_pbe_cm5_charge
 _atom_site_pbe_ddec_charge
 _atom_site_pbe_ddec_spin_density
 _atom_site_pbe_ddec_sum_bond_order
 _atom_site_pbe_magmom
Mg  Mg0  1  0.11276163  0.68701368  0.32525200  1  1.682676  0  0.909403  1.40874  0  1.330357  0
Mg  Mg1  1  0.42567790  0.63822365  0.31298346  1  1.684361  0  0.909375  1.409081  0  1.329924  0
Mg  Mg2  1  0.78744053  0.67474029  0.36174972  1  1.684628  0  0.909459  1.408891  0  1.330653  0
Mg  Mg3  1  0.28957810  0.30960333  0.66981598  1  1.683724  0  0.906758  1.408312  0  1.328219  0
Mg  Mg4  1  0.97995749  0.36021479  0.69040219  1  1.681777  0  0.90682  1.40804  0  1.329241  0
Mg  Mg5  1  0.61981256  0.33016988  0.63977855  1  1.684383  0  0.906887  1.408786  0  1.327295  0
H  H6  1  0.65677706  0.57090900  0.20841970  1  0.07717  0  0.106771  0.10988  0  1.008815  0
H  H7  1  0.08583077  0.63753187  0.42910556  1  0.092079  0  0.106627  0.109868  0  1.008635  0
H  H8  1  0.44840037  0.79159095  0.36250097  1  0.09265  0  0.10698  0.11043  0  1.008475  0
H  H9  1  0.83850919  0.54093482  0.15111968  1  0.109847  0  0.104961  0.113857  0  1.025682  0
H  H10  1  0.29754370  0.61019765  0.45908102  1  0.11078  0  0.105229  0.114059  0  1.025551  0
H  H11  1  0.68749940  0.84888436  0.38982092  1  0.105313  0  0.105311  0.114161  0  1.025082  0
H  H12  1  0.36802508  0.60772108  0.21762050  1  0.122252  0  0.111869  0.132203  0  1.00855  0
H  H13  1  0.76023665  0.60989252  0.39228200  1  0.099033  0  0.111971  0.131953  0  1.009147  0
H  H14  1  0.15052387  0.78236624  0.39009463  1  0.105631  0  0.1118  0.131569  0  1.009435  0
H  H15  1  0.54490167  0.55518531  0.12587857  1  0.103553  0  0.106661  0.107792  0  1.030917  0
H  H16  1  0.98972499  0.57068467  0.44481661  1  0.108093  0  0.106739  0.108113  0  1.030049  0
H  H17  1  0.41909140  0.87413909  0.42931065  1  0.118112  0  0.106663  0.107802  0  1.030574  0
H  H18  1  0.75748046  0.52738825  0.07265457  1  0.073676  0  0.105813  0.105256  0  1.023724  0
H  H19  1  0.23006142  0.54524476  0.47261087  1  0.10985  0  0.106176  0.10594  0  1.023207  0
H  H20  1  0.68486144  0.92736694  0.45473649  1  0.074753  0  0.106338  0.106181  0  1.023081  0
H  H21  1  0.24847555  0.46249271  0.99680511  1  0.09948  0  0.106546  0.109288  0  1.025679  0
H  H22  1  0.78596564  0.53429189  0.53750678  1  0.098527  0  0.106328  0.108866  0  1.026484  0
H  H23  1  0.25154826  0.00319798  0.46568175  1  0.103686  0  0.106555  0.109185  0  1.025683  0
H  H24  1  0.03601423  0.49040937  0.05003202  1  0.114781  0  0.106294  0.106608  0  1.022552  0
H  H25  1  0.54560073  0.55960640  0.50957380  1  0.083997  0  0.105953  0.106531  0  1.022143  0
H  H26  1  0.98588270  0.94995193  0.44037653  1  0.084876  0  0.106255  0.107303  0  1.02173  0
H  H27  1  0.47243520  0.40212317  0.90551649  1  0.102117  0  0.111351  0.117799  0  0.987164  0
H  H28  1  0.07023891  0.50340535  0.59789643  1  0.107299  0  0.111038  0.117444  0  0.986944  0
H  H29  1  0.56681625  0.09446992  0.49658638  1  0.10551  0  0.111379  0.11798  0  0.986454  0
H  H30  1  0.67763280  0.37867828  0.85047704  1  0.087994  0  0.111081  0.117141  0  0.98838  0
H  H31  1  0.29895602  0.47181007  0.62136032  1  0.09463  0  0.111032  0.117083  0  0.988236  0
H  H32  1  0.82705579  0.14953653  0.52819702  1  0.09261  0  0.110971  0.116747  0  0.988451  0
H  H33  1  0.14826569  0.46248043  0.92012124  1  0.111553  0  0.108215  0.109964  0  1.015548  0
H  H34  1  0.68567460  0.45761839  0.53751846  1  0.128289  0  0.108154  0.110118  0  1.015561  0
H  H35  1  0.22807864  0.07988559  0.54234992  1  0.122186  0  0.108133  0.109893  0  1.015329  0
H  H36  1  0.94635633  0.48519004  0.97510991  1  0.11751  0  0.107903  0.111901  0  1.013164  0
H  H37  1  0.46104966  0.48991233  0.51482520  1  0.089754  0  0.107672  0.111076  0  1.013924  0
H  H38  1  0.97121138  0.02488733  0.51007216  1  0.080969  0  0.107965  0.111402  0  1.013527  0
H  H39  1  0.53796688  0.44477289  0.85114095  1  0.082406  0  0.106472  0.116144  0  1.002346  0
H  H40  1  0.09316587  0.40639194  0.55523418  1  0.082142  0  0.106464  0.116265  0  1.001802  0
H  H41  1  0.68681960  0.14883121  0.59361811  1  0.086323  0  0.106448  0.116377  0  1.001574  0
H  H42  1  0.73120020  0.41987078  0.79493106  1  0.117567  0  0.108085  0.115351  0  0.997574  0
H  H43  1  0.31139879  0.37506664  0.58012339  1  0.104608  0  0.107791  0.115237  0  0.99691  0
H  H44  1  0.93639840  0.20504196  0.62492829  1  0.108738  0  0.107723  0.114561  0  0.997592  0
H  H45  1  0.02850935  0.37362587  0.78051871  1  0.094421  0  0.109679  0.12932  0  1.024201  0
H  H46  1  0.65481472  0.40687835  0.62637254  1  0.109797  0  0.10956  0.129414  0  1.024259  0
H  H47  1  0.24807330  0.21948095  0.59310605  1  0.116131  0  0.109489  0.129226  0  1.024501  0
C  C48  1  0.78703668  0.62223056  0.27702288  1  1.505935  0  0.237969  0.674892  0  4.127405  0
C  C49  1  0.16481439  0.65479646  0.37776662  1  1.502445  0  0.237235  0.674071  0  4.126687  0
C  C50  1  0.51008480  0.72296916  0.34519325  1  1.481675  0  0.237492  0.674827  0  4.126344  0
C  C51  1  0.90645993  0.60661162  0.24494453  1  -0.009946  0  -0.035829  -0.199666  0  3.932334  0
C  C52  1  0.29986582  0.63836106  0.39341018  1  -0.061832  0  -0.036187  -0.199984  0  3.931024  0
C  C53  1  0.66160105  0.75505005  0.36163727  1  0.033312  0  -0.036351  -0.200567  0  3.932745  0
C  C54  1  0.81264367  0.57894210  0.20973910  1  -0.044748  0  -0.081355  -0.053913  0  4.007246  0
C  C55  1  0.23373136  0.63083969  0.42109638  1  0.008422  0  -0.080514  -0.05312  0  4.005286  0
C  C56  1  0.60297947  0.79026320  0.36918821  1  -0.068847  0  -0.0807  -0.053755  0  4.007273  0
C  C57  1  0.91157561  0.56230015  0.17804078  1  -0.02633  0  -0.098746  -0.18075  0  3.976493  0
C  C58  1  0.34930609  0.61578539  0.43774126  1  -0.022775  0  -0.098896  -0.180747  0  3.975666  0
C  C59  1  0.73367419  0.82195517  0.38424090  1  -0.001713  0  -0.09938  -0.180976  0  3.975738  0
C  C60  1  0.11421440  0.57324206  0.18131235  1  0.369862  0  0.09208  0.20207  0  4.067046  0
C  C61  1  0.54095718  0.60809186  0.42677943  1  0.331107  0  0.092227  0.202364  0  4.067921  0
C  C62  1  0.93304557  0.81867548  0.39190138  1  0.27459  0  0.092523  0.202382  0  4.066377  0
C  C63  1  0.21121819  0.60008225  0.21581787  1  -0.062173  0  -0.092274  -0.267703  0  3.884583  0
C  C64  1  0.61110385  0.61573914  0.39992804  1  -0.030151  0  -0.092759  -0.267807  0  3.88485  0
C  C65  1  0.99554702  0.78416998  0.38423925  1  0.00108  0  -0.092428  -0.26709  0  3.88427  0
C  C66  1  0.11196274  0.61778381  0.24825691  1  0.598466  0  0.096254  0.374256  0  4.082732  0
C  C67  1  0.49415852  0.63048231  0.38222564  1  0.602187  0  0.096043  0.373539  0  4.083068  0
C  C68  1  0.86376826  0.75173538  0.36949881  1  0.598319  0  0.096289  0.374322  0  4.08171  0
C  C69  1  0.27922502  0.52396855  0.09103969  1  0.34881  0  0.091567  0.173021  0  4.021611  0
C  C70  1  0.75527080  0.56704293  0.47602021  1  0.328891  0  0.091754  0.173618  0  4.020258  0
C  C71  1  0.18820709  0.90896580  0.43293416  1  0.330177  0  0.091984  0.17377  0  4.020435  0
C  C72  1  0.48303254  0.53474507  0.09761341  1  -0.036906  0  -0.081387  -0.130564  0  3.947027  0
C  C73  1  0.94831117  0.56285149  0.46525295  1  -0.010011  0  -0.081729  -0.131196  0  3.946283  0
C  C74  1  0.38550612  0.90240264  0.43712643  1  -0.022443  0  -0.080996  -0.129498  0  3.945393  0
C  C75  1  0.59945050  0.51946155  0.06821984  1  0.024016  0  -0.075169  -0.122538  0  3.947636  0
C  C76  1  0.07994882  0.54872446  0.48052805  1  -0.073464  0  -0.075563  -0.123591  0  3.946771  0
C  C77  1  0.53127376  0.93180413  0.45124161  1  0.006438  0  -0.075944  -0.124566  0  3.947915  0
C  C78  1  0.51525212  0.49329380  0.03179596  1  0.350309  0  0.092418  0.175441  0  4.027592  0
C  C79  1  0.02188199  0.53846212  0.50669317  1  0.371803  0  0.092674  0.176455  0  4.026353  0
C  C80  1  0.48336803  0.96821956  0.46150829  1  0.354648  0  0.092654  0.176155  0  4.026001  0
C  C81  1  0.31108914  0.48265242  0.02513206  1  -0.014317  0  -0.080669  -0.13001  0  3.932908  0
C  C82  1  0.82838868  0.54243090  0.51732723  1  -0.010902  0  -0.080704  -0.129637  0  3.93386  0
C  C83  1  0.28584587  0.97487506  0.45752933  1  -0.045577  0  -0.081013  -0.129827  0  3.933131  0
C  C84  1  0.19439900  0.49805905  0.05458414  1  -0.074342  0  -0.075991  -0.123837  0  3.941316  0
C  C85  1  0.69632184  0.55648009  0.50191395  1  -0.022919  0  -0.075549  -0.12426  0  3.941136  0
C  C86  1  0.13974217  0.94541620  0.44348792  1  -0.023484  0  -0.075795  -0.125218  0  3.942269  0
C  C87  1  0.69833245  0.44459766  0.94322610  1  0.327779  0  0.093608  0.175341  0  4.035834  0
C  C88  1  0.25368296  0.49862283  0.55543118  1  0.32567  0  0.09351  0.175383  0  4.034945  0
C  C89  1  0.75508196  0.05678194  0.50135891  1  0.346483  0  0.093522  0.175235  0  4.035358  0
C  C90  1  0.62145634  0.41453970  0.90821983  1  -0.011905  0  -0.075642  -0.130208  0  3.95061  0
C  C91  1  0.20690048  0.49369775  0.58550368  1  -0.02808  0  -0.075462  -0.130327  0  3.950818  0
C  C92  1  0.71317688  0.09178642  0.50629819  1  -0.064726  0  -0.075785  -0.131133  0  3.950389  0
C  C93  1  0.73384256  0.40170872  0.87802793  1  -0.030696  0  -0.075444  -0.128206  0  3.960628  0
C  C94  1  0.33208987  0.47632450  0.59832374  1  -0.004074  0  -0.075291  -0.127622  0  3.960465  0
C  C95  1  0.85569023  0.12198249  0.52366449  1  -0.014365  0  -0.075232  -0.126659  0  3.959265  0
C  C96  1  0.92227399  0.41944050  0.88219222  1  0.345066  0  0.092003  0.169768  0  4.029949  0
C  C97  1  0.50271753  0.46273946  0.58057518  1  0.305734  0  0.091605  0.169361  0  4.029922  0
C  C98  1  0.03993883  0.11781085  0.53723325  1  0.389887  0  0.091852  0.169396  0  4.029108  0
C  C99  1  0.00100242  0.44944887  0.91751470  1  0.016161  0  -0.077878  -0.125859  0  3.942982  0
C  C100  1  0.55142706  0.46803501  0.55055043  1  -0.083259  0  -0.078028  -0.126692  0  3.942995  0
C  C101  1  0.08341026  0.08248768  0.53192271  1  -0.070416  0  -0.078125  -0.126332  0  3.942203  0
C  C102  1  0.89037585  0.46183641  0.94772183  1  -0.05607  0  -0.079515  -0.128566  0  3.936541  0
C  C103  1  0.42840722  0.48586546  0.53817363  1  0.053036  0  -0.078882  -0.126832  0  3.935097  0
C  C104  1  0.94261959  0.05227209  0.51409539  1  -0.002971  0  -0.079466  -0.127416  0  3.935169  0
C  C105  1  0.27429151  0.40973807  0.81905304  1  0.281654  0  0.089739  0.198388  0  4.066442  0
C  C106  1  0.86461086  0.40935030  0.59029745  1  0.284063  0  0.089608  0.198571  0  4.067674  0
C  C107  1  0.45526936  0.18092827  0.59066507  1  0.305522  0  0.090064  0.197911  0  4.067958  0
C  C108  1  0.47140760  0.42404779  0.82335671  1  0.041857  0  -0.094002  -0.172694  0  3.988606  0
C  C109  1  0.04745025  0.39936404  0.57598975  1  0.027674  0  -0.094036  -0.173271  0  3.988408  0
C  C110  1  0.64811082  0.17661686  0.60066546  1  0.023172  0  -0.09404  -0.17372  0  3.98753  0
C  C111  1  0.57655758  0.41037180  0.79232780  1  -0.082375  0  -0.082275  -0.059762  0  4.00854  0
C  C112  1  0.16632851  0.38200614  0.58965330  1  -0.056717  0  -0.082051  -0.059558  0  4.007411  0
C  C113  1  0.78436646  0.20763809  0.61801489  1  -0.087413  0  -0.08202  -0.057609  0  4.006237  0
C  C114  1  0.48928453  0.38376893  0.75634887  1  -0.005658  0  -0.033908  -0.193204  0  3.92505  0
C  C115  1  0.10566513  0.37262519  0.61625651  1  -0.011993  0  -0.033994  -0.193444  0  3.92537  0
C  C116  1  0.73310931  0.24362151  0.62738948  1  0.010234  0  -0.033932  -0.194836  0  3.927177  0
C  C117  1  0.61492260  0.37112993  0.72516652  1  1.514429  0  0.238517  0.674244  0  4.121348  0
C  C118  1  0.24379049  0.35405353  0.62888195  1  1.502321  0  0.238426  0.673633  0  4.12239  0
C  C119  1  0.88982914  0.27481173  0.64595391  1  1.508051  0  0.239153  0.675788  0  4.120406  0
C  C120  1  0.28451365  0.37077209  0.75157173  1  0.604756  0  0.094375  0.370737  0  4.081802  0
C  C121  1  0.91385992  0.38082490  0.62925511  1  0.58744  0  0.094061  0.370991  0  4.081769  0
C  C122  1  0.53313803  0.24841554  0.61917783  1  0.580416  0  0.094527  0.371406  0  4.082128  0
C  C123  1  0.18244703  0.38378462  0.78362216  1  -0.002307  0  -0.101051  -0.280399  0  3.899068  0
C  C124  1  0.79868117  0.39985575  0.61623930  1  -0.007424  0  -0.100873  -0.280927  0  3.899249  0
C  C125  1  0.39893485  0.21636773  0.60013898  1  -0.033111  0  -0.101363  -0.280772  0  3.899385  0
N  N126  1  0.23659176  0.55864184  0.15192847  1  -0.501403  0  -0.147234  -0.131814  0  3.283423  0
N  N127  1  0.67792414  0.59328078  0.44135628  1  -0.495933  0  -0.147535  -0.132629  0  3.283293  0
N  N128  1  0.08477881  0.84806572  0.40670363  1  -0.452232  0  -0.147141  -0.13201  0  3.282567  0
N  N129  1  0.14943803  0.53800357  0.11935195  1  -0.465872  0  -0.145995  -0.131219  0  3.251867  0
N  N130  1  0.61145054  0.58134419  0.46199872  1  -0.465378  0  -0.145896  -0.130912  0  3.249636  0
N  N131  1  0.03016419  0.88064101  0.41865207  1  -0.495337  0  -0.146497  -0.131839  0  3.252106  0
N  N132  1  0.64757479  0.48018772  0.00409748  1  -0.518704  0  -0.150695  -0.139207  0  3.278012  0
N  N133  1  0.16736217  0.52388892  0.51981915  1  -0.499848  0  -0.15077  -0.139578  0  3.275979  0
N  N134  1  0.64340140  0.99591730  0.47609312  1  -0.486401  0  -0.151175  -0.139221  0  3.277846  0
N  N135  1  0.57001426  0.45623026  0.97148110  1  -0.476769  0  -0.151744  -0.138988  0  3.287883  0
N  N136  1  0.11375398  0.51524364  0.54378696  1  -0.494645  0  -0.1515  -0.138865  0  3.28657  0
N  N137  1  0.59846678  0.02853219  0.48474744  1  -0.50544  0  -0.151302  -0.139224  0  3.2885  0
N  N138  1  0.01800355  0.40553589  0.84925739  1  -0.513916  0  -0.149403  -0.134159  0  3.290198  0
N  N139  1  0.61241641  0.44371782  0.59448282  1  -0.469198  0  -0.148693  -0.13387  0  3.289852  0
N  N140  1  0.16866903  0.15074565  0.55627440  1  -0.480276  0  -0.149471  -0.135414  0  3.289802  0
N  N141  1  0.18083838  0.42364793  0.85242392  1  -0.468359  0  -0.148671  -0.13607  0  3.260547  0
N  N142  1  0.75714243  0.42878130  0.57636765  1  -0.487178  0  -0.148952  -0.135863  0  3.260136  0
N  N143  1  0.32831875  0.14756845  0.57122057  1  -0.476075  0  -0.148234  -0.134019  0  3.259508  0
O  O144  1  0.60867504  0.60965313  0.27380631  1  -1.242919  0  -0.354138  -0.640101  0  2.148918  0
O  O145  1  0.99898990  0.66414593  0.39033337  1  -1.238428  0  -0.353605  -0.639339  0  2.149253  0
O  O146  1  0.33490810  0.72619798  0.33585685  1  -1.236567  0  -0.354004  -0.639712  0  2.148083  0
O  O147  1  0.86744346  0.64951122  0.30872497  1  -1.299677  0  -0.403492  -0.769553  0  2.417262  0
O  O148  1  0.21793609  0.65922257  0.35048690  1  -1.296867  0  -0.403507  -0.769696  0  2.41718  0
O  O149  1  0.55873658  0.69125914  0.34076456  1  -1.293195  0  -0.403423  -0.770016  0  2.417589  0
O  O150  1  0.21483652  0.64377064  0.28022807  1  -1.303618  0  -0.448772  -0.775714  0  2.304912  0
O  O151  1  0.57100615  0.63644288  0.35621875  1  -1.303051  0  -0.44858  -0.775167  0  2.304733  0
O  O152  1  0.93453184  0.71976071  0.36353928  1  -1.309965  0  -0.448814  -0.775811  0  2.30443  0
O  O153  1  0.79433961  0.38402882  0.73062188  1  -1.235877  0  -0.35083  -0.635482  0  2.150155  0
O  O154  1  0.41033358  0.34660822  0.61599256  1  -1.235774  0  -0.351304  -0.635773  0  2.148786  0
O  O155  1  0.06379109  0.26936625  0.65340839  1  -1.235999  0  -0.351663  -0.636527  0  2.148504  0
O  O156  1  0.53931063  0.34614150  0.69193204  1  -1.309661  0  -0.403133  -0.770411  0  2.413564  0
O  O157  1  0.19305778  0.34578122  0.65384545  1  -1.297149  0  -0.402533  -0.769422  0  2.414451  0
O  O158  1  0.84741628  0.30804998  0.65421311  1  -1.296532  0  -0.402743  -0.770372  0  2.413149  0
O  O159  1  0.18554017  0.34700977  0.71817453  1  -1.317427  0  -0.451238  -0.777209  0  2.29852  0
O  O160  1  0.83866230  0.37117371  0.65300545  1  -1.307859  0  -0.450937  -0.777092  0  2.299482  0
O  O161  1  0.46754138  0.28181491  0.62883323  1  -1.306176  0  -0.45103  -0.777312  0  2.299199  0
