# generated using pymatgen
data_CdH12C16(N2O3)2
_symmetry_space_group_name_H-M   'P 1'
_cell_length_a   7.65898281
_cell_length_b   21.27006285
_cell_length_c   21.26923898
_cell_angle_alpha   118.60117382
_cell_angle_beta   96.89121707
_cell_angle_gamma   96.88852605
_symmetry_Int_Tables_number   1
_chemical_formula_structural   CdH12C16(N2O3)2
_chemical_formula_sum   'Cd6 H72 C96 N24 O36'
_cell_volume   2956.92464843
_cell_formula_units_Z   6
loop_
 _symmetry_equiv_pos_site_id
 _symmetry_equiv_pos_as_xyz
  1  'x, y, z'
loop_
 _atom_site_type_symbol
 _atom_site_label
 _atom_site_symmetry_multiplicity
 _atom_site_fract_x
 _atom_site_fract_y
 _atom_site_fract_z
 _atom_site_occupancy
 _atom_site_pbe_bader_charge
 _atom_site_pbe_bader_spin_density
 _atom_site_pbe_cm5_charge
 _atom_site_pbe_ddec_charge
 _atom_site_pbe_ddec_spin_density
 _atom_site_pbe_ddec_sum_bond_order
 _atom_site_pbe_magmom
Cd  Cd0  1  0.75027029  0.50188530  0.27166210  1  1.27678  0  0.788372  0.818668  0  2.182245  0
Cd  Cd1  1  0.24841788  0.76980837  0.49802870  1  1.276982  0  0.788698  0.81933  0  2.182873  0
Cd  Cd2  1  0.47870337  0.72824732  0.23023547  1  1.275707  0  0.7886  0.819176  0  2.181627  0
Cd  Cd3  1  0.75158022  0.23019167  0.50197146  1  1.276976  0  0.788678  0.819298  0  2.182884  0
Cd  Cd4  1  0.52129632  0.27175326  0.76976549  1  1.275678  0  0.7886  0.819167  0  2.18162  0
Cd  Cd5  1  0.24973017  0.49811420  0.72833743  1  1.276762  0  0.788351  0.818607  0  2.182328  0
H  H6  1  0.37297919  0.36829001  0.59168344  1  0.12841  0  0.11939  0.101741  0  0.993136  0
H  H7  1  0.00502996  0.22352664  0.63185953  1  0.121658  0  0.11917  0.101423  0  0.992643  0
H  H8  1  0.78091857  0.40841931  0.77652087  1  0.14015  0  0.119308  0.10143  0  0.993033  0
H  H9  1  0.99497050  0.77647285  0.36814047  1  0.12166  0  0.119193  0.101506  0  0.992596  0
H  H10  1  0.21908243  0.59158127  0.22348015  1  0.140124  0  0.119284  0.10142  0  0.993024  0
H  H11  1  0.62701863  0.63170948  0.40831644  1  0.128432  0  0.119417  0.10178  0  0.993081  0
H  H12  1  0.40984249  0.33404404  0.46686238  1  0.160769  0  0.111422  0.135154  0  1.042964  0
H  H13  1  0.07586510  0.13298387  0.66617140  1  0.126656  0  0.111661  0.135305  0  1.042909  0
H  H14  1  0.94239720  0.53326408  0.86709544  1  0.139085  0  0.111429  0.135236  0  1.041845  0
H  H15  1  0.92413482  0.86701452  0.33382711  1  0.126617  0  0.111686  0.135381  0  1.04289  0
H  H16  1  0.05760144  0.46673706  0.13290526  1  0.139377  0  0.11143  0.135234  0  1.041846  0
H  H17  1  0.59015347  0.66595436  0.53313690  1  0.16078  0  0.11145  0.135166  0  1.042926  0
H  H18  1  0.17821956  0.51828832  0.49007594  1  0.057014  0  0.105719  0.110846  0  1.027547  0
H  H19  1  0.66002569  0.97185714  0.48194985  1  0.063077  0  0.105817  0.110879  0  1.027476  0
H  H20  1  0.68846682  0.51006332  0.02830497  1  0.09699  0  0.105548  0.111002  0  1.026937  0
H  H21  1  0.33997319  0.02814180  0.51804747  1  0.0631  0  0.105789  0.110845  0  1.027443  0
H  H22  1  0.31153653  0.48993672  0.97169589  1  0.097022  0  0.105555  0.111021  0  1.026893  0
H  H23  1  0.82178090  0.48171117  0.50992406  1  0.057007  0  0.105697  0.110819  0  1.027478  0
H  H24  1  0.14781921  0.54363889  0.61380578  1  0.099838  0  0.11586  0.090672  0  1.027356  0
H  H25  1  0.60455303  0.07018566  0.45654519  1  0.128138  0  0.115998  0.090945  0  1.026382  0
H  H26  1  0.53451680  0.38630512  0.92991964  1  0.117549  0  0.116077  0.091574  0  1.025851  0
H  H27  1  0.39544666  0.92981492  0.54345389  1  0.128139  0  0.116003  0.090993  0  1.026407  0
H  H28  1  0.46548551  0.61369547  0.07008191  1  0.117587  0  0.116045  0.09152  0  1.02588  0
H  H29  1  0.85218256  0.45636061  0.38619381  1  0.09969  0  0.115857  0.090685  0  1.027333  0
H  H30  1  0.39812255  0.30232687  0.36076216  1  0.099159  0  0.101069  0.104102  0  1.049435  0
H  H31  1  0.09582800  0.05857871  0.69790652  1  0.109692  0  0.100687  0.103502  0  1.049741  0
H  H32  1  0.03737071  0.63926407  0.94150304  1  0.107381  0  0.101116  0.103822  0  1.049855  0
H  H33  1  0.90416748  0.94142133  0.30209212  1  0.10978  0  0.100688  0.103474  0  1.049758  0
H  H34  1  0.96263473  0.36073488  0.05849693  1  0.107388  0  0.101135  0.103828  0  1.049819  0
H  H35  1  0.60187528  0.69767262  0.63923773  1  0.099167  0  0.101082  0.104122  0  1.049418  0
H  H36  1  0.44632779  0.27856685  0.24019192  1  0.091772  0  0.107423  0.109953  0  0.986404  0
H  H37  1  0.16828079  0.96168431  0.72144682  1  0.086387  0  0.107234  0.109188  0  0.986983  0
H  H38  1  0.20662179  0.75975116  0.03834222  1  0.074359  0  0.107331  0.109925  0  0.986238  0
H  H39  1  0.83171523  0.03831682  0.27855330  1  0.086459  0  0.107226  0.109155  0  0.986989  0
H  H40  1  0.79338158  0.24024888  0.96165723  1  0.074405  0  0.107333  0.10991  0  0.986209  0
H  H41  1  0.55366899  0.72143319  0.75980866  1  0.091759  0  0.107444  0.110004  0  0.986407  0
H  H42  1  0.31751506  0.48585623  0.28416219  1  0.114777  0  0.104085  0.113852  0  1.006693  0
H  H43  1  0.83197358  0.79837576  0.51414478  1  0.117584  0  0.104382  0.114104  0  1.006695  0
H  H44  1  0.03388950  0.71592113  0.20174344  1  0.107578  0  0.104101  0.114198  0  1.006565  0
H  H45  1  0.16802660  0.20162319  0.48585542  1  0.117603  0  0.104378  0.114111  0  1.006666  0
H  H46  1  0.96611233  0.28408110  0.79825699  1  0.107551  0  0.10408  0.114157  0  1.006527  0
H  H47  1  0.68248436  0.51414381  0.71583756  1  0.114795  0  0.104088  0.113853  0  1.006691  0
H  H48  1  0.27148288  0.51107951  0.40411702  1  0.07928  0  0.096402  0.092306  0  1.059989  0
H  H49  1  0.76040459  0.89318081  0.48914126  1  0.120069  0  0.096799  0.092775  0  1.059054  0
H  H50  1  0.86749156  0.59604369  0.10696038  1  0.083607  0  0.096338  0.092348  0  1.059135  0
H  H51  1  0.23959533  0.10681759  0.51085725  1  0.120116  0  0.096804  0.092801  0  1.059072  0
H  H52  1  0.13250763  0.40395853  0.89304134  1  0.083576  0  0.096335  0.092333  0  1.059114  0
H  H53  1  0.72851467  0.48891944  0.59588213  1  0.079291  0  0.096389  0.092292  0  1.059937  0
H  H54  1  0.23451026  0.26010046  0.12352298  1  0.110643  0  0.11324  0.126984  0  0.986735  0
H  H55  1  0.97420940  0.86344168  0.73975093  1  0.109152  0  0.113259  0.126768  0  0.986886  0
H  H56  1  0.11162892  0.87644146  0.13660911  1  0.097348  0  0.113124  0.127083  0  0.986301  0
H  H57  1  0.02578897  0.13655891  0.26024997  1  0.109215  0  0.113263  0.126757  0  0.986876  0
H  H58  1  0.88837790  0.12356022  0.86339081  1  0.097382  0  0.113128  0.127084  0  0.986247  0
H  H59  1  0.76549019  0.73989903  0.87647702  1  0.110659  0  0.113231  0.126988  0  0.986716  0
H  H60  1  0.27872222  0.23823372  0.99892386  1  0.108922  0  0.110091  0.112105  0  1.002482  0
H  H61  1  0.04013341  0.76071426  0.76162349  1  0.118811  0  0.110115  0.111658  0  1.001447  0
H  H62  1  0.28039670  0.00103325  0.23937378  1  0.116043  0  0.110075  0.111491  0  1.002106  0
H  H63  1  0.95986496  0.23928633  0.23837742  1  0.118837  0  0.110125  0.111653  0  1.001404  0
H  H64  1  0.71960957  0.99896733  0.76062653  1  0.116043  0  0.110071  0.111497  0  1.002098  0
H  H65  1  0.72127796  0.76176523  0.00107587  1  0.108939  0  0.110095  0.112156  0  1.002485  0
H  H66  1  0.47426633  0.33465795  0.99173187  1  0.107739  0  0.10241  0.112046  0  1.06095  0
H  H67  1  0.13999893  0.65716195  0.66531105  1  0.115286  0  0.102564  0.112122  0  1.061033  0
H  H68  1  0.48325798  0.00827393  0.34301202  1  0.120776  0  0.102355  0.111886  0  1.060812  0
H  H69  1  0.85999972  0.34283918  0.33468966  1  0.115255  0  0.102586  0.112136  0  1.061062  0
H  H70  1  0.51674407  0.99172611  0.65698784  1  0.120788  0  0.102362  0.111894  0  1.060818  0
H  H71  1  0.52573282  0.66534154  0.00826760  1  0.107746  0  0.102398  0.112042  0  1.060947  0
H  H72  1  0.62828361  0.45063716  0.10894840  1  0.093534  0  0.110624  0.080898  0  1.012921  0
H  H73  1  0.17823406  0.65834858  0.54934459  1  0.104808  0  0.1106  0.080826  0  1.012887  0
H  H74  1  0.52001314  0.89105569  0.34175585  1  0.093072  0  0.110676  0.080771  0  1.013686  0
H  H75  1  0.82176459  0.34165255  0.45065659  1  0.10475  0  0.110593  0.080804  0  1.012885  0
H  H76  1  0.47998524  0.10894490  0.65824459  1  0.093024  0  0.110682  0.080776  0  1.013721  0
H  H77  1  0.37171394  0.54936179  0.89105121  1  0.093508  0  0.110616  0.080876  0  1.012909  0
C  C78  1  0.33115206  0.40011460  0.56702303  1  0.444057  0  0.048184  0.106602  0  3.928799  0
C  C79  1  0.93128736  0.16703415  0.60005292  1  0.446113  0  0.048066  0.107409  0  3.929704  0
C  C80  1  0.76386592  0.43308077  0.83303480  1  0.419584  0  0.048145  0.107463  0  3.930582  0
C  C81  1  0.06871310  0.83296534  0.39994661  1  0.446467  0  0.048063  0.107346  0  3.929713  0
C  C82  1  0.23613535  0.56692036  0.16696649  1  0.419583  0  0.04813  0.107419  0  3.930609  0
C  C83  1  0.66884522  0.59988380  0.43297631  1  0.444109  0  0.048173  0.106531  0  3.928732  0
C  C84  1  0.35231980  0.38164719  0.49672762  1  -0.011776  0  -0.08107  -0.165504  0  3.883282  0
C  C85  1  0.97074852  0.11523951  0.61857885  1  0.029132  0  -0.081882  -0.167281  0  3.884418  0
C  C86  1  0.85516318  0.50339606  0.88485398  1  0.022797  0  -0.081115  -0.166794  0  3.883809  0
C  C87  1  0.02925140  0.88475889  0.38141919  1  0.029123  0  -0.081938  -0.167408  0  3.884553  0
C  C88  1  0.14483678  0.49660507  0.11514726  1  0.022489  0  -0.081092  -0.166739  0  3.883697  0
C  C89  1  0.64767880  0.61835121  0.50327178  1  -0.011722  0  -0.081129  -0.165528  0  3.88332  0
C  C90  1  0.30204846  0.42422233  0.46608866  1  -0.018801  0  0.016998  0.117182  0  3.965928  0
C  C91  1  0.87789387  0.04200600  0.57604040  1  -0.031408  0  0.017521  0.118997  0  3.962382  0
C  C92  1  0.83587093  0.53404473  0.95812437  1  -0.042138  0  0.017275  0.11974  0  3.962993  0
C  C93  1  0.12210501  0.95799295  0.42395739  1  -0.030889  0  0.017543  0.119088  0  3.962359  0
C  C94  1  0.16413138  0.46595586  0.04187671  1  -0.041883  0  0.017246  0.119676  0  3.962889  0
C  C95  1  0.69795040  0.57577662  0.53391101  1  -0.018908  0  0.016992  0.11718  0  3.966052  0
C  C96  1  0.22481508  0.48323152  0.50970625  1  0.018785  0  -0.086764  -0.180146  0  3.953686  0
C  C97  1  0.74173226  0.02655218  0.51700406  1  0.039179  0  -0.08702  -0.180789  0  3.953342  0
C  C98  1  0.71532277  0.49043350  0.97358819  1  0.006143  0  -0.086481  -0.181296  0  3.952654  0
C  C99  1  0.25826530  0.97344676  0.48299414  1  0.039201  0  -0.086979  -0.180723  0  3.95324  0
C  C100  1  0.28468086  0.50956709  0.02641342  1  0.006116  0  -0.086501  -0.181306  0  3.952496  0
C  C101  1  0.77518406  0.51676797  0.49029369  1  0.018783  0  -0.086747  -0.180146  0  3.953675  0
C  C102  1  0.20678696  0.49808982  0.57926309  1  0.43569  0  0.037782  0.085694  0  3.965787  0
C  C103  1  0.70902922  0.08123005  0.50210956  1  0.383743  0  0.037762  0.085634  0  3.965999  0
C  C104  1  0.62784076  0.42085301  0.91887357  1  0.426297  0  0.037468  0.085387  0  3.967219  0
C  C105  1  0.29097021  0.91876999  0.49788971  1  0.383766  0  0.037747  0.085512  0  3.96614  0
C  C106  1  0.37216183  0.57914812  0.08112778  1  0.426269  0  0.037532  0.085497  0  3.966985  0
C  C107  1  0.79321508  0.50191022  0.42073724  1  0.4359  0  0.037785  0.085685  0  3.965762  0
C  C108  1  0.33013888  0.40875208  0.39292904  1  -0.043605  0  -0.011334  0.046724  0  3.983256  0
C  C109  1  0.92143237  0.98431419  0.59148769  1  0.016652  0  -0.010891  0.047241  0  3.981906  0
C  C110  1  0.93723905  0.60718436  0.01580234  1  -0.065968  0  -0.01153  0.045344  0  3.98365  0
C  C111  1  0.07856519  0.01568475  0.40851098  1  0.016522  0  -0.010885  0.047185  0  3.981851  0
C  C112  1  0.06276195  0.39281623  0.98419821  1  -0.066158  0  -0.011504  0.045342  0  3.983565  0
C  C113  1  0.66985922  0.59124796  0.60707065  1  -0.043594  0  -0.011323  0.046791  0  3.983237  0
C  C114  1  0.38024774  0.34327636  0.34496246  1  -0.110848  0  -0.083788  -0.111367  0  3.947704  0
C  C115  1  0.03704300  0.00181278  0.65693225  1  -0.073771  0  -0.08397  -0.111748  0  3.948798  0
C  C116  1  0.03533552  0.65509581  0.99827163  1  -0.039005  0  -0.084145  -0.111223  0  3.949247  0
C  C117  1  0.96295220  0.99818671  0.34306610  1  -0.073887  0  -0.083972  -0.111718  0  3.948783  0
C  C118  1  0.96466598  0.34490314  0.00172769  1  -0.03898  0  -0.084169  -0.11122  0  3.949264  0
C  C119  1  0.61975008  0.65672313  0.65503742  1  -0.110874  0  -0.083768  -0.11135  0  3.947784  0
C  C120  1  0.40635579  0.32927390  0.27627327  1  0.011558  0  -0.082897  -0.107128  0  3.964128  0
C  C121  1  0.07741078  0.94709027  0.67080843  1  -0.023165  0  -0.082229  -0.104938  0  3.963859  0
C  C122  1  0.13043648  0.72372757  0.05297599  1  -0.07369  0  -0.082864  -0.106887  0  3.964636  0
C  C123  1  0.92258365  0.05291032  0.32919183  1  -0.02329  0  -0.08223  -0.104855  0  3.963809  0
C  C124  1  0.86956612  0.27627356  0.94702348  1  -0.073664  0  -0.082873  -0.106865  0  3.964777  0
C  C125  1  0.59364203  0.67072560  0.72372662  1  0.011566  0  -0.082935  -0.107256  0  3.964221  0
C  C126  1  0.38641490  0.38057926  0.25359417  1  -0.028201  0  -0.008533  0.029707  0  4.016883  0
C  C127  1  0.00620790  0.87308582  0.61943203  1  -0.018947  0  -0.008323  0.028546  0  4.016722  0
C  C128  1  0.13332736  0.74642033  0.12699274  1  0.062388  0  -0.008475  0.029422  0  4.017023  0
C  C129  1  0.99378783  0.12691477  0.38056923  1  -0.019183  0  -0.008302  0.028519  0  4.016739  0
C  C130  1  0.86667525  0.25358080  0.87300673  1  0.062421  0  -0.008445  0.029429  0  4.017046  0
C  C131  1  0.61358424  0.61942024  0.74640577  1  -0.028184  0  -0.008568  0.029705  0  4.017045  0
C  C132  1  0.33774815  0.44591594  0.30114470  1  -0.064565  0  -0.090578  -0.120848  0  3.977243  0
C  C133  1  0.89216394  0.85530494  0.55412514  1  -0.06056  0  -0.091149  -0.120795  0  3.976784  0
C  C134  1  0.03706791  0.69892173  0.14479576  1  -0.087899  0  -0.090752  -0.121648  0  3.978567  0
C  C135  1  0.10783389  0.14469455  0.44587475  1  -0.060449  0  -0.091141  -0.120789  0  3.976819  0
C  C136  1  0.96293468  0.30107940  0.85520465  1  -0.087907  0  -0.090774  -0.121645  0  3.978557  0
C  C137  1  0.66225126  0.55408410  0.69885645  1  -0.06459  0  -0.0906  -0.12089  0  3.977337  0
C  C138  1  0.30872293  0.45939337  0.36937739  1  0.006922  0  -0.087321  -0.105709  0  3.957513  0
C  C139  1  0.84948467  0.91009991  0.54077265  1  -0.114453  0  -0.087741  -0.106754  0  3.956724  0
C  C140  1  0.93956945  0.63073414  0.09001692  1  0.017583  0  -0.086809  -0.104995  0  3.956964  0
C  C141  1  0.15051289  0.08989903  0.45922602  1  -0.114803  0  -0.087745  -0.106779  0  3.956716  0
C  C142  1  0.06043155  0.36926644  0.90998316  1  0.017499  0  -0.086791  -0.104953  0  3.956937  0
C  C143  1  0.69127703  0.54060776  0.63062384  1  0.006926  0  -0.087269  -0.105658  0  3.957313  0
C  C144  1  0.41110437  0.36576534  0.18032774  1  0.510631  0  0.12369  0.215622  0  3.975347  0
C  C145  1  0.04562466  0.81459270  0.63417153  1  0.482388  0  0.124445  0.217678  0  3.972362  0
C  C146  1  0.23138353  0.81966600  0.18546886  1  0.490072  0  0.124375  0.217336  0  3.973516  0
C  C147  1  0.95437267  0.18540843  0.36582959  1  0.482409  0  0.12447  0.21778  0  3.972357  0
C  C148  1  0.76861720  0.18033404  0.81453048  1  0.490123  0  0.124359  0.217297  0  3.973547  0
C  C149  1  0.58889477  0.63423416  0.81967220  1  0.510611  0  0.123712  0.215634  0  3.97539  0
C  C150  1  0.32331489  0.30000028  0.11755017  1  -0.039707  0  -0.076556  -0.159637  0  3.922185  0
C  C151  1  0.02328914  0.81757150  0.69989456  1  -0.058014  0  -0.076806  -0.1602  0  3.920445  0
C  C152  1  0.20644938  0.88242754  0.18248771  1  -0.052088  0  -0.076509  -0.160909  0  3.921612  0
C  C153  1  0.97670713  0.18243018  0.30010771  1  -0.058105  0  -0.076814  -0.160279  0  3.920606  0
C  C154  1  0.79355426  0.11757304  0.81751155  1  -0.052157  0  -0.076514  -0.160882  0  3.921515  0
C  C155  1  0.67668556  0.69999921  0.88245030  1  -0.039682  0  -0.076536  -0.159614  0  3.922157  0
C  C156  1  0.34548789  0.28846441  0.04911176  1  -0.050934  0  -0.060439  -0.004849  0  3.942091  0
C  C157  1  0.05694123  0.76067089  0.71142739  1  -0.06689  0  -0.060227  -0.00352  0  3.939406  0
C  C158  1  0.29711724  0.95086491  0.23941020  1  -0.013855  0  -0.059843  -0.00306  0  3.939568  0
C  C159  1  0.94305610  0.23933024  0.28857373  1  -0.066752  0  -0.06026  -0.00348  0  3.939324  0
C  C160  1  0.70288613  0.04913513  0.76058925  1  -0.013853  0  -0.059829  -0.003073  0  3.93956  0
C  C161  1  0.65451229  0.71153454  0.95088797  1  -0.050914  0  -0.060472  -0.004947  0  3.942184  0
C  C162  1  0.45442895  0.34317243  0.04479226  1  0.007172  0  -0.086887  -0.128785  0  3.96632  0
C  C163  1  0.11160392  0.70168283  0.65677637  1  0.019975  0  -0.087231  -0.129827  0  3.965809  0
C  C164  1  0.41044960  0.95520020  0.29843870  1  -0.02072  0  -0.087461  -0.129492  0  3.965518  0
C  C165  1  0.88839499  0.29831885  0.34322508  1  0.019966  0  -0.08725  -0.129863  0  3.965598  0
C  C166  1  0.58955140  0.04480039  0.70156185  1  -0.020707  0  -0.087459  -0.129458  0  3.965575  0
C  C167  1  0.54556964  0.65682596  0.95520714  1  0.007152  0  -0.086872  -0.128783  0  3.966422  0
C  C168  1  0.53816221  0.40691996  0.10908864  1  0.466145  0  0.037126  0.094222  0  3.973613  0
C  C169  1  0.13172010  0.70221058  0.59304216  1  0.44791  0  0.037556  0.095548  0  3.972168  0
C  C170  1  0.42982407  0.89091223  0.29787881  1  0.448784  0  0.037236  0.094473  0  3.974325  0
C  C171  1  0.86827750  0.29779110  0.40695970  1  0.448311  0  0.037624  0.095627  0  3.972038  0
C  C172  1  0.57017535  0.10908781  0.70212094  1  0.448816  0  0.037206  0.094399  0  3.974449  0
C  C173  1  0.46183693  0.59307954  0.89091130  1  0.466096  0  0.037124  0.094245  0  3.973642  0
N  N174  1  0.72611496  0.61862692  0.24092526  1  0.836366  0  0.094328  0.694861  0  4.422418  0
N  N175  1  0.10724121  0.62230821  0.38132274  1  0.823964  0  0.094471  0.696457  0  4.424459  0
N  N176  1  0.48531526  0.75901626  0.37772279  1  0.852648  0  0.093376  0.69388  0  4.424647  0
N  N177  1  0.89275821  0.37769183  0.61867748  1  0.823897  0  0.094348  0.696291  0  4.424448  0
N  N178  1  0.51468443  0.24098432  0.62227723  1  0.852642  0  0.093374  0.693883  0  4.424639  0
N  N179  1  0.27388419  0.38137257  0.75907421  1  0.836372  0  0.094352  0.69494  0  4.422329  0
N  N180  1  0.90067279  0.37102739  0.20654462  1  0.828701  0  0.098181  0.723198  0  4.395271  0
N  N181  1  0.52972021  0.83548207  0.62884376  1  0.852125  0  0.098173  0.710128  0  4.414774  0
N  N182  1  0.69409806  0.79330426  0.16441952  1  0.802794  0  0.097686  0.722396  0  4.39864  0
N  N183  1  0.47028080  0.16451852  0.37115585  1  0.852121  0  0.098163  0.71015  0  4.414867  0
N  N184  1  0.30590080  0.20669468  0.83558062  1  0.802732  0  0.09768  0.722402  0  4.398591  0
N  N185  1  0.09932663  0.62897265  0.79345513  1  0.828729  0  0.098217  0.723287  0  4.395145  0
N  N186  1  0.26122950  0.45811142  0.60861820  1  -1.235161  0  -0.340649  -0.251438  0  3.552977  0
N  N187  1  0.80341920  0.15058502  0.54205149  1  -1.216149  0  -0.340562  -0.251833  0  3.554648  0
N  N188  1  0.65265504  0.39147054  0.84948831  1  -1.250924  0  -0.340791  -0.25212  0  3.555999  0
N  N189  1  0.19657995  0.84941447  0.45794798  1  -1.216529  0  -0.340589  -0.251808  0  3.554592  0
N  N190  1  0.34734464  0.60853005  0.15051265  1  -1.250955  0  -0.34077  -0.252107  0  3.555979  0
N  N191  1  0.73876936  0.54188753  0.39138194  1  -1.235242  0  -0.340657  -0.251419  0  3.553014  0
N  N192  1  0.51815251  0.41829456  0.17560186  1  -1.232829  0  -0.333384  -0.298431  0  3.497669  0
N  N193  1  0.10022040  0.75732177  0.58165588  1  -1.203731  0  -0.334329  -0.300671  0  3.497806  0
N  N194  1  0.34312842  0.82440673  0.24274369  1  -1.225164  0  -0.334036  -0.299221  0  3.497878  0
N  N195  1  0.89977666  0.24267881  0.41834497  1  -1.204084  0  -0.334405  -0.30077  0  3.497881  0
N  N196  1  0.65687100  0.17559331  0.75725605  1  -1.225201  0  -0.334016  -0.29916  0  3.497944  0
N  N197  1  0.48184664  0.58170493  0.82439761  1  -1.232796  0  -0.333361  -0.298377  0  3.497653  0
O  O198  1  0.81264656  0.56778616  0.20939305  1  -0.553337  0  -0.189601  -0.423968  0  2.025296  0
O  O199  1  0.24457130  0.64162770  0.43218129  1  -0.555901  0  -0.189376  -0.424364  0  2.026558  0
O  O200  1  0.60336719  0.79057787  0.35845722  1  -0.5635  0  -0.189306  -0.42364  0  2.025457  0
O  O201  1  0.75542839  0.35837288  0.56781920  1  -0.555903  0  -0.189307  -0.424278  0  2.026555  0
O  O202  1  0.39663382  0.20942272  0.64154286  1  -0.56348  0  -0.189286  -0.423593  0  2.025447  0
O  O203  1  0.18735127  0.43221333  0.79060636  1  -0.553334  0  -0.189627  -0.423992  0  2.025257  0
O  O204  1  0.74229515  0.67170072  0.22933689  1  -0.53829  0  -0.170137  -0.404384  0  2.081036  0
O  O205  1  0.07041179  0.55762782  0.32823008  1  -0.512296  0  -0.170061  -0.404697  0  2.080106  0
O  O206  1  0.51299247  0.77060461  0.44239384  1  -0.539057  0  -0.170004  -0.40398  0  2.08024  0
O  O207  1  0.92958790  0.44237276  0.67176994  1  -0.512222  0  -0.170017  -0.404633  0  2.080024  0
O  O208  1  0.48700590  0.22939598  0.55760612  1  -0.539082  0  -0.170002  -0.404017  0  2.080299  0
O  O209  1  0.25770399  0.32829877  0.77066258  1  -0.538253  0  -0.170151  -0.40442  0  2.080988  0
O  O210  1  0.62644485  0.61424314  0.28257745  1  -0.522915  0  -0.181487  -0.428882  0  1.99999  0
O  O211  1  0.01198283  0.66836180  0.38571673  1  -0.535285  0  -0.181968  -0.430478  0  2.002827  0
O  O212  1  0.34408759  0.71732019  0.33162395  1  -0.529801  0  -0.181048  -0.428763  0  2.002809  0
O  O213  1  0.98801658  0.33163824  0.61428396  1  -0.535291  0  -0.181959  -0.430423  0  2.002776  0
O  O214  1  0.65591106  0.28268095  0.66837629  1  -0.529796  0  -0.181056  -0.428778  0  2.002789  0
O  O215  1  0.37355429  0.38575635  0.71742203  1  -0.522918  0  -0.181461  -0.428878  0  1.999999  0
O  O216  1  0.82500984  0.38932459  0.26216419  1  -0.588261  0  -0.205211  -0.46948  0  2.03323  0
O  O217  1  0.43573234  0.87280675  0.61057326  1  -0.584979  0  -0.205209  -0.465111  0  2.038649  0
O  O218  1  0.56252530  0.73779627  0.12718409  1  -0.57436  0  -0.205004  -0.469524  0  2.035473  0
O  O219  1  0.56427103  0.12719329  0.38942572  1  -0.584983  0  -0.205226  -0.46512  0  2.038616  0
O  O220  1  0.43747356  0.26220268  0.87281558  1  -0.574313  0  -0.204961  -0.46948  0  2.035463  0
O  O221  1  0.17499194  0.61067490  0.73783493  1  -0.588289  0  -0.205206  -0.469508  0  2.033204  0
O  O222  1  0.94920471  0.31159712  0.17665401  1  -0.485937  0  -0.170443  -0.409453  0  1.909845  0
O  O223  1  0.63767728  0.86505225  0.68827456  1  -0.498206  0  -0.170376  -0.404757  0  1.914549  0
O  O224  1  0.77253212  0.82305612  0.13478137  1  -0.485178  0  -0.170138  -0.408942  0  1.910021  0
O  O225  1  0.36232213  0.13494779  0.31172519  1  -0.498203  0  -0.170392  -0.404813  0  1.914559  0
O  O226  1  0.22746674  0.17694282  0.86521877  1  -0.485166  0  -0.170144  -0.408962  0  1.910034  0
O  O227  1  0.05079340  0.68840292  0.82334521  1  -0.485942  0  -0.170478  -0.409493  0  1.909777  0
O  O228  1  0.92157397  0.41651985  0.18349534  1  -0.568457  0  -0.195515  -0.453056  0  2.01597  0
O  O229  1  0.50516990  0.76692620  0.58333249  1  -0.584891  0  -0.195461  -0.448818  0  2.022287  0
O  O230  1  0.73833456  0.81638568  0.23296304  1  -0.557268  0  -0.195294  -0.452882  0  2.018058  0
O  O231  1  0.49483056  0.23307329  0.41666704  1  -0.584885  0  -0.19542  -0.448748  0  2.022358  0
O  O232  1  0.26166326  0.18361381  0.76703684  1  -0.557268  0  -0.195333  -0.452908  0  2.017988  0
O  O233  1  0.07842386  0.58347964  0.81650408  1  -0.568446  0  -0.195505  -0.453066  0  2.015943  0
