# generated using pymatgen
data_ZnH7C5N5O2
_symmetry_space_group_name_H-M   'P 1'
_cell_length_a   6.77473324
_cell_length_b   15.85434798
_cell_length_c   15.85174049
_cell_angle_alpha   87.38632201
_cell_angle_beta   77.65562762
_cell_angle_gamma   77.66027695
_symmetry_Int_Tables_number   1
_chemical_formula_structural   ZnH7C5N5O2
_chemical_formula_sum   'Zn8 H56 C40 N40 O16'
_cell_volume   1624.83008947
_cell_formula_units_Z   8
loop_
 _symmetry_equiv_pos_site_id
 _symmetry_equiv_pos_as_xyz
  1  'x, y, z'
loop_
 _atom_site_type_symbol
 _atom_site_label
 _atom_site_symmetry_multiplicity
 _atom_site_fract_x
 _atom_site_fract_y
 _atom_site_fract_z
 _atom_site_occupancy
 _atom_site_pbe_bader_charge
 _atom_site_pbe_bader_spin_density
 _atom_site_pbe_cm5_charge
 _atom_site_pbe_ddec_charge
 _atom_site_pbe_ddec_spin_density
 _atom_site_pbe_ddec_sum_bond_order
 _atom_site_pbe_magmom
Zn  Zn0  1  0.07566775  0.98217303  0.74434597  1  1.250086  0  0.701919  0.727268  0  2.351435  0
Zn  Zn1  1  0.30224047  0.51785244  0.75565809  1  1.24989  0  0.701982  0.726542  0  2.351568  0
Zn  Zn2  1  0.05742874  0.24441773  0.01783229  1  1.249963  0  0.701889  0.727541  0  2.351256  0
Zn  Zn3  1  0.82017502  0.25562852  0.48220534  1  1.253056  0  0.701427  0.725845  0  2.35209  0
Zn  Zn4  1  0.92432618  0.01782839  0.25565486  1  1.249996  0  0.701875  0.727189  0  2.351559  0
Zn  Zn5  1  0.69776150  0.48214768  0.24434142  1  1.249969  0  0.701998  0.726568  0  2.351504  0
Zn  Zn6  1  0.94257428  0.75558174  0.98216799  1  1.249933  0  0.701885  0.727518  0  2.351277  0
Zn  Zn7  1  0.17982092  0.74437160  0.51779563  1  1.252979  0  0.701461  0.725921  0  2.352015  0
H  H8  1  0.66199944  0.01104388  0.77036322  1  0.448278  0  0.288341  0.221385  0  1.022319  0
H  H9  1  0.94329850  0.48902750  0.72977544  1  0.450514  0  0.288458  0.221247  0  1.023472  0
H  H10  1  0.67257501  0.27025041  0.98901810  1  0.451785  0  0.288277  0.221434  0  1.023256  0
H  H11  1  0.43244387  0.22969542  0.51110883  1  0.448625  0  0.288707  0.221505  0  1.02207  0
H  H12  1  0.33799697  0.98895624  0.22963432  1  0.448268  0  0.288368  0.221459  0  1.02224  0
H  H13  1  0.05670620  0.51097262  0.27022436  1  0.450514  0  0.288446  0.221219  0  1.023507  0
H  H14  1  0.32742897  0.72974971  0.01098093  1  0.451765  0  0.288311  0.221495  0  1.023178  0
H  H15  1  0.56754812  0.77030728  0.48889326  1  0.448574  0  0.288731  0.221527  0  1.02207  0
H  H16  1  0.84256681  0.83508759  0.70876291  1  0.117704  0  0.117225  0.129296  0  0.995026  0
H  H17  1  0.88638066  0.66502886  0.79123086  1  0.114769  0  0.117247  0.129508  0  0.994947  0
H  H18  1  0.67715344  0.20876821  0.16501931  1  0.1186  0  0.116727  0.128588  0  0.99482  0
H  H19  1  0.55123839  0.29118831  0.33509754  1  0.11394  0  0.11698  0.128886  0  0.99502  0
H  H20  1  0.15743991  0.16491124  0.29123703  1  0.117722  0  0.117225  0.129286  0  0.995038  0
H  H21  1  0.11362487  0.33496997  0.20877174  1  0.114821  0  0.117273  0.129547  0  0.994927  0
H  H22  1  0.32284072  0.79123256  0.83498012  1  0.118588  0  0.116724  0.128555  0  0.994846  0
H  H23  1  0.44876842  0.70881052  0.66490380  1  0.113908  0  0.116976  0.128891  0  0.994972  0
H  H24  1  0.59480407  0.87566902  0.77290196  1  0.132142  0  0.111118  0.118342  0  1.007314  0
H  H25  1  0.74318960  0.62438267  0.72721695  1  0.114165  0  0.111065  0.118005  0  1.008677  0
H  H26  1  0.47001958  0.27286236  0.12440674  1  0.12142  0  0.111404  0.11803  0  1.007113  0
H  H27  1  0.36753135  0.22712495  0.37578442  1  0.119479  0  0.111039  0.117831  0  1.007273  0
H  H28  1  0.40519846  0.12432981  0.22709615  1  0.132137  0  0.111102  0.118316  0  1.007297  0
H  H29  1  0.25680894  0.37561681  0.27278774  1  0.114498  0  0.111092  0.118041  0  1.00866  0
H  H30  1  0.52998053  0.72713841  0.87558982  1  0.121448  0  0.111402  0.118038  0  1.007077  0
H  H31  1  0.63246498  0.77287840  0.62421607  1  0.119506  0  0.111054  0.117842  0  1.007231  0
H  H32  1  0.67830686  0.09333547  0.55544085  1  0.110023  0  0.108526  0.126672  0  0.998553  0
H  H33  1  0.82681279  0.40673895  0.94461131  1  0.09734  0  0.108114  0.125165  0  0.997805  0
H  H34  1  0.77115124  0.05544005  0.90664894  1  0.092283  0  0.108413  0.125817  0  0.9977  0
H  H35  1  0.23377779  0.44446040  0.59353959  1  0.107524  0  0.107903  0.125312  0  0.997974  0
H  H36  1  0.32169156  0.90666465  0.44455621  1  0.110101  0  0.108532  0.126666  0  0.998573  0
H  H37  1  0.17319988  0.59325730  0.05538702  1  0.097289  0  0.108075  0.125082  0  0.997858  0
H  H38  1  0.22885200  0.94456137  0.09334868  1  0.092005  0  0.108412  0.125801  0  0.997718  0
H  H39  1  0.76622352  0.55554230  0.40645929  1  0.107574  0  0.107931  0.125378  0  0.997961  0
H  H40  1  0.61563620  0.12412335  0.66444517  1  0.084876  0  0.10423  0.113167  0  0.985449  0
H  H41  1  0.90384693  0.37605809  0.83557527  1  0.077243  0  0.104065  0.112077  0  0.986128  0
H  H42  1  0.73894328  0.16446375  0.87598155  1  0.073801  0  0.104244  0.112742  0  0.986818  0
H  H43  1  0.28028354  0.33543395  0.62415990  1  0.085875  0  0.104254  0.112924  0  0.985721  0
H  H44  1  0.38435989  0.87587613  0.33555300  1  0.084856  0  0.104249  0.113176  0  0.985417  0
H  H45  1  0.09616509  0.62393945  0.16442306  1  0.077414  0  0.104072  0.112105  0  0.986095  0
H  H46  1  0.26105836  0.83553830  0.12401733  1  0.073788  0  0.10426  0.11275  0  0.986824  0
H  H47  1  0.71971230  0.66456875  0.37583841  1  0.085961  0  0.104264  0.112987  0  0.985724  0
H  H48  1  0.58040619  0.97490752  0.64132374  1  0.063959  0  0.101153  0.079842  0  0.998923  0
H  H49  1  0.69646187  0.52531788  0.85882879  1  0.066765  0  0.101535  0.081062  0  0.997654  0
H  H50  1  0.55497129  0.14117756  0.02528975  1  0.060756  0  0.101601  0.080872  0  0.996658  0
H  H51  1  0.22189889  0.35875296  0.47494426  1  0.074759  0  0.102031  0.081585  0  0.997729  0
H  H52  1  0.41959118  0.02509196  0.35867316  1  0.063959  0  0.10115  0.079838  0  0.998872  0
H  H53  1  0.30354655  0.47467901  0.14117192  1  0.066669  0  0.101513  0.081011  0  0.997643  0
H  H54  1  0.44502986  0.85882385  0.97470695  1  0.060742  0  0.101591  0.080859  0  0.99662  0
H  H55  1  0.77810033  0.64125104  0.52505307  1  0.074766  0  0.102036  0.081617  0  0.997653  0
H  H56  1  0.85121865  0.94374993  0.59674036  1  0.077343  0  0.105485  0.09546  0  1.000015  0
H  H57  1  0.89172592  0.55633732  0.90337357  1  0.062632  0  0.105433  0.095509  0  1.000048  0
H  H58  1  0.79488040  0.09666859  0.05625573  1  0.079728  0  0.105465  0.095704  0  1.000414  0
H  H59  1  0.44821100  0.40328518  0.44384753  1  0.070706  0  0.105582  0.095649  0  0.999994  0
H  H60  1  0.14877743  0.05624954  0.40325781  1  0.077279  0  0.105478  0.095433  0  0.999967  0
H  H61  1  0.10828322  0.44366087  0.09662729  1  0.06263  0  0.10542  0.095519  0  1.000028  0
H  H62  1  0.20511779  0.90333088  0.94374336  1  0.079712  0  0.10545  0.095684  0  1.000438  0
H  H63  1  0.55179265  0.59671559  0.55615150  1  0.07076  0  0.105594  0.095665  0  0.999971  0
C  C64  1  0.84775339  0.85884183  0.83961852  1  1.559292  0  0.211454  0.605948  0  4.146366  0
C  C65  1  0.04599580  0.64110241  0.66036673  1  1.569003  0  0.211438  0.604144  0  4.143097  0
C  C66  1  0.70613140  0.33958106  0.14119405  1  1.566218  0  0.21105  0.603565  0  4.145632  0
C  C67  1  0.68718715  0.16037945  0.35886921  1  1.547784  0  0.211528  0.607259  0  4.143518  0
C  C68  1  0.15223756  0.14116152  0.16038280  1  1.559352  0  0.211326  0.605658  0  4.146576  0
C  C69  1  0.95400013  0.35889900  0.33963362  1  1.569104  0  0.211513  0.604343  0  4.142969  0
C  C70  1  0.29386688  0.66041842  0.85880644  1  1.566229  0  0.211155  0.603609  0  4.145685  0
C  C71  1  0.31279939  0.83961938  0.64113420  1  1.548198  0  0.211477  0.607167  0  4.14364  0
C  C72  1  0.93560471  0.10665895  0.60454014  1  0.968695  0  0.226694  0.323337  0  3.962096  0
C  C73  1  0.14654285  0.39336590  0.89545825  1  0.987897  0  0.226335  0.323155  0  3.964647  0
C  C74  1  0.04166997  0.10464966  0.89326920  1  0.999225  0  0.22694  0.32398  0  3.964418  0
C  C75  1  0.54022871  0.39536198  0.60681703  1  0.976966  0  0.22675  0.322902  0  3.964321  0
C  C76  1  0.06439348  0.89334052  0.39545894  1  0.968591  0  0.226702  0.323361  0  3.96201  0
C  C77  1  0.85346653  0.60663164  0.10454120  1  0.987814  0  0.226345  0.323186  0  3.964538  0
C  C78  1  0.95832998  0.89535046  0.10673080  1  0.999271  0  0.226954  0.323985  0  3.964379  0
C  C79  1  0.45977019  0.60463878  0.39318220  1  0.976974  0  0.226686  0.322864  0  3.964318  0
C  C80  1  0.75704217  0.88195216  0.75978790  1  0.201583  0  -0.080387  -0.205981  0  3.887584  0
C  C81  1  0.89866326  0.61810313  0.74027636  1  0.215969  0  -0.079601  -0.204235  0  3.885823  0
C  C82  1  0.63854983  0.25974959  0.11811879  1  0.194769  0  -0.07962  -0.202745  0  3.885308  0
C  C83  1  0.51674385  0.24021097  0.38200961  1  0.21341  0  -0.079192  -0.203763  0  3.886139  0
C  C84  1  0.24295980  0.11804796  0.24021161  1  0.201581  0  -0.080364  -0.205819  0  3.887566  0
C  C85  1  0.10133824  0.38189699  0.25972658  1  0.215509  0  -0.079724  -0.204501  0  3.886089  0
C  C86  1  0.36144908  0.74024989  0.88188107  1  0.195364  0  -0.079636  -0.202747  0  3.885385  0
C  C87  1  0.48324904  0.75978851  0.61799171  1  0.213886  0  -0.079195  -0.20374  0  3.886112  0
C  C88  1  0.73171358  0.08159155  0.61644137  1  -0.032025  0  -0.151521  -0.273374  0  3.972133  0
C  C89  1  0.92947403  0.41851665  0.88361487  1  -0.044943  0  -0.150927  -0.269666  0  3.969863  0
C  C90  1  0.81275022  0.11644601  0.91842174  1  -0.04537  0  -0.150997  -0.270917  0  3.970751  0
C  C91  1  0.34827199  0.38348565  0.58170718  1  -0.040451  0  -0.150662  -0.269934  0  3.970299  0
C  C92  1  0.26828356  0.91840728  0.38355758  1  -0.032039  0  -0.151503  -0.273336  0  3.972054  0
C  C93  1  0.07053535  0.58148088  0.11638458  1  -0.045202  0  -0.150882  -0.269635  0  3.969746  0
C  C94  1  0.18725143  0.88355476  0.08157777  1  -0.044886  0  -0.151008  -0.270916  0  3.970762  0
C  C95  1  0.65172563  0.61651641  0.41829268  1  -0.040587  0  -0.150674  -0.270091  0  3.970517  0
C  C96  1  0.73339649  0.98758071  0.64221646  1  0.265393  0  -0.071322  -0.013184  0  3.861341  0
C  C97  1  0.86306208  0.51255336  0.85790217  1  0.295408  0  -0.072509  -0.016502  0  3.861851  0
C  C98  1  0.72064830  0.14213531  0.01249587  1  0.28339  0  -0.07261  -0.015886  0  3.86177  0
C  C99  1  0.37577713  0.35781104  0.48764904  1  0.272812  0  -0.073078  -0.017498  0  3.86221  0
C  C100  1  0.26660162  0.01241748  0.35778185  1  0.265519  0  -0.071314  -0.013127  0  3.861253  0
C  C101  1  0.13694762  0.48744483  0.14209666  1  0.295908  0  -0.072501  -0.016467  0  3.861765  0
C  C102  1  0.27935262  0.85786545  0.98750287  1  0.283197  0  -0.072626  -0.015894  0  3.861746  0
C  C103  1  0.62421912  0.64219231  0.51235005  1  0.272588  0  -0.073099  -0.017475  0  3.862202  0
N  N104  1  0.99410886  0.16995362  0.55232864  1  -0.773876  0  -0.24127  -0.258567  0  3.470305  0
N  N105  1  0.21604540  0.33003947  0.94765553  1  -0.760949  0  -0.240905  -0.259094  0  3.473409  0
N  N106  1  0.16356901  0.05244013  0.82996626  1  -0.777493  0  -0.241234  -0.258725  0  3.471591  0
N  N107  1  0.54645516  0.44762627  0.67008779  1  -0.757445  0  -0.239937  -0.256704  0  3.470002  0
N  N108  1  0.00588909  0.83004650  0.44767185  1  -0.773848  0  -0.241248  -0.25857  0  3.470282  0
N  N109  1  0.78396429  0.66995871  0.05234329  1  -0.760857  0  -0.240909  -0.259094  0  3.473446  0
N  N110  1  0.83643094  0.94756128  0.17003311  1  -0.77755  0  -0.241217  -0.258711  0  3.4716  0
N  N111  1  0.45354238  0.55237449  0.32991129  1  -0.757523  0  -0.239899  -0.256678  0  3.469745  0
N  N112  1  0.77860960  0.96964933  0.72969375  1  -1.092414  0  -0.483832  -0.311937  0  3.508711  0
N  N113  1  0.97785027  0.53044359  0.77041813  1  -1.086995  0  -0.483755  -0.311343  0  3.510418  0
N  N114  1  0.74782878  0.22962319  0.03042448  1  -1.075485  0  -0.483525  -0.312432  0  3.510394  0
N  N115  1  0.50840632  0.27033108  0.46968304  1  -1.09898  0  -0.483611  -0.31117  0  3.509654  0
N  N116  1  0.22138891  0.03035079  0.27030471  1  -1.092417  0  -0.483854  -0.312099  0  3.508733  0
N  N117  1  0.02215549  0.46955589  0.22958244  1  -1.087411  0  -0.483705  -0.311258  0  3.510432  0
N  N118  1  0.25217616  0.77037628  0.96957392  1  -1.076046  0  -0.483565  -0.31246  0  3.510491  0
N  N119  1  0.49158801  0.72967098  0.53031856  1  -1.098737  0  -0.483657  -0.311272  0  3.509911  0
N  N120  1  0.09043820  0.07059453  0.64370783  1  -0.779466  0  -0.242298  -0.270833  0  3.490594  0
N  N121  1  0.30462060  0.42934492  0.85625067  1  -0.78073  0  -0.241099  -0.270216  0  3.493343  0
N  N122  1  0.16037393  0.14389137  0.92929046  1  -0.78429  0  -0.241489  -0.270621  0  3.493089  0
N  N123  1  0.73424111  0.35611489  0.57083897  1  -0.770704  0  -0.241384  -0.26926  0  3.491219  0
N  N124  1  0.90955958  0.92940430  0.35629048  1  -0.779333  0  -0.242255  -0.270752  0  3.490495  0
N  N125  1  0.69538917  0.57065455  0.14374892  1  -0.780738  0  -0.241143  -0.270303  0  3.49339  0
N  N126  1  0.83962845  0.85610682  0.07071109  1  -0.784306  0  -0.24153  -0.270629  0  3.493045  0
N  N127  1  0.26575652  0.64388458  0.42916215  1  -0.770694  0  -0.241366  -0.26926  0  3.491243  0
N  N128  1  0.24651508  0.11216857  0.61458171  1  -0.096339  0  -0.092979  -0.075064  0  3.245896  0
N  N129  1  0.47313603  0.38768207  0.88534009  1  -0.088159  0  -0.093349  -0.074205  0  3.244813  0
N  N130  1  0.35805631  0.11480080  0.88770324  1  -0.110664  0  -0.0941  -0.075345  0  3.246896  0
N  N131  1  0.86115417  0.38524384  0.61243545  1  -0.09496  0  -0.09379  -0.075945  0  3.247689  0
N  N132  1  0.75348182  0.88783090  0.38541863  1  -0.096394  0  -0.093021  -0.075153  0  3.245985  0
N  N133  1  0.52687343  0.61231676  0.11466013  1  -0.08808  0  -0.093282  -0.074076  0  3.244766  0
N  N134  1  0.64194744  0.88519609  0.11229907  1  -0.110633  0  -0.094074  -0.075338  0  3.24685  0
N  N135  1  0.13884579  0.61475499  0.38756518  1  -0.094967  0  -0.093819  -0.075998  0  3.247727  0
N  N136  1  0.18890949  0.17174416  0.55997493  1  -0.142221  0  -0.086816  -0.065087  0  3.271334  0
N  N137  1  0.42035623  0.32814127  0.93996162  1  -0.166805  0  -0.087036  -0.065844  0  3.273235  0
N  N138  1  0.36012746  0.06014958  0.82814806  1  -0.125062  0  -0.086455  -0.065463  0  3.272932  0
N  N139  1  0.74888330  0.43993050  0.67194604  1  -0.166795  0  -0.088041  -0.067033  0  3.27369  0
N  N140  1  0.81108580  0.82825725  0.44002605  1  -0.14224  0  -0.086844  -0.065092  0  3.271378  0
N  N141  1  0.57965419  0.67185691  0.06003797  1  -0.166721  0  -0.087052  -0.065907  0  3.273382  0
N  N142  1  0.63987484  0.93984860  0.17185208  1  -0.125072  0  -0.08644  -0.065438  0  3.272985  0
N  N143  1  0.25111497  0.56006898  0.32805445  1  -0.166832  0  -0.088028  -0.066989  0  3.273568  0
O  O144  1  0.80733473  0.79101855  0.88100987  1  -1.179805  0  -0.317824  -0.525251  0  2.330142  0
O  O145  1  0.97905001  0.70888614  0.61894242  1  -1.18461  0  -0.318178  -0.524687  0  2.329779  0
O  O146  1  0.59791698  0.38097785  0.20903724  1  -1.182629  0  -0.31817  -0.525026  0  2.330682  0
O  O147  1  0.68786170  0.11892252  0.29111830  1  -1.183366  0  -0.318378  -0.526178  0  2.328661  0
O  O148  1  0.19267295  0.20898221  0.11898818  1  -1.179419  0  -0.317772  -0.525165  0  2.330098  0
O  O149  1  0.02094013  0.29111463  0.38105798  1  -1.184616  0  -0.318124  -0.524672  0  2.329701  0
O  O150  1  0.40208193  0.61902292  0.79096198  1  -1.182628  0  -0.318219  -0.525038  0  2.330749  0
O  O151  1  0.31212068  0.88107309  0.70889077  1  -1.183493  0  -0.318354  -0.526205  0  2.328555  0
O  O152  1  0.95972546  0.90532659  0.86014306  1  -1.184225  0  -0.308306  -0.541816  0  2.289026  0
O  O153  1  0.22496272  0.59459636  0.63982752  1  -1.188834  0  -0.308161  -0.540557  0  2.2871  0
O  O154  1  0.86455953  0.36012607  0.09467254  1  -1.191001  0  -0.307809  -0.540838  0  2.290309  0
O  O155  1  0.81996864  0.13991581  0.40522917  1  -1.170635  0  -0.307887  -0.542207  0  2.28866  0
O  O156  1  0.04024828  0.09468322  0.13986307  1  -1.184696  0  -0.308233  -0.541674  0  2.289234  0
O  O157  1  0.77503667  0.40540763  0.36017263  1  -1.188881  0  -0.308239  -0.540607  0  2.287013  0
O  O158  1  0.13543979  0.63987405  0.90532809  1  -1.191032  0  -0.307835  -0.540852  0  2.290367  0
O  O159  1  0.18002532  0.86008367  0.59477853  1  -1.171458  0  -0.307884  -0.542089  0  2.28881  0
