# generated using pymatgen
data_ZnH30C18S4(NO4)2
_symmetry_space_group_name_H-M   'P 1'
_cell_length_a   8.11546638
_cell_length_b   8.77706015
_cell_length_c   10.04001543
_cell_angle_alpha   94.08710787
_cell_angle_beta   110.77287083
_cell_angle_gamma   107.97855458
_symmetry_Int_Tables_number   1
_chemical_formula_structural   ZnH30C18S4(NO4)2
_chemical_formula_sum   'Zn1 H30 C18 S4 N2 O8'
_cell_volume   622.73774293
_cell_formula_units_Z   1
loop_
 _symmetry_equiv_pos_site_id
 _symmetry_equiv_pos_as_xyz
  1  'x, y, z'
loop_
 _atom_site_type_symbol
 _atom_site_label
 _atom_site_symmetry_multiplicity
 _atom_site_fract_x
 _atom_site_fract_y
 _atom_site_fract_z
 _atom_site_occupancy
 _atom_site_hle17_bader_spin_density
 _atom_site_hle17_ddec_charge
 _atom_site_hle17_ddec_spin_density
 _atom_site_hle17_ddec_sum_bond_order
 _atom_site_hle17_magmom
 _atom_site_hse06_10hf_bader_spin_density
 _atom_site_hse06_10hf_ddec_charge
 _atom_site_hse06_10hf_ddec_spin_density
 _atom_site_hse06_10hf_ddec_sum_bond_order
 _atom_site_hse06_10hf_magmom
 _atom_site_hse06_bader_spin_density
 _atom_site_hse06_ddec_charge
 _atom_site_hse06_ddec_spin_density
 _atom_site_hse06_ddec_sum_bond_order
 _atom_site_hse06_magmom
 _atom_site_pbe_bader_spin_density
 _atom_site_pbe_cm5_charge
 _atom_site_pbe_ddec_charge
 _atom_site_pbe_ddec_spin_density
 _atom_site_pbe_ddec_sum_bond_order
 _atom_site_pbe_magmom
Zn  Zn0  1  0.00000000  0.00000000  0.00000000  1  0  1.069204  0  1.833032  0  0  0.89099  0  2.283165  0  0  0.935978  0  2.230714  0  0  0.687963  0.858941  0  2.319697  0
H  H1  1  0.04199558  0.61989658  0.43072985  1  0  0.099362  0  0.93158  0  0  0.116482  0  0.987449  0  0  0.118605  0  0.986867  0  0  0.099113  0.114752  0  0.988389  0
H  H2  1  0.95800652  0.38010092  0.56927119  1  0  0.099348  0  0.931624  0  0  0.116458  0  0.987477  0  0  0.118583  0  0.986894  0  0  0.099105  0.114738  0  0.988413  0
H  H3  1  0.12383582  0.59589472  0.29031996  1  0  0.107971  0  0.932138  0  0  0.120038  0  0.994366  0  0  0.122459  0  0.994168  0  0  0.09967  0.11833  0  0.994584  0
H  H4  1  0.87616364  0.40410278  0.70967831  1  0  0.107949  0  0.932141  0  0  0.119983  0  0.994393  0  0  0.122406  0  0.994194  0  0  0.099633  0.118278  0  0.994613  0
H  H5  1  0.32608359  0.89784757  0.36379932  1  0  0.104806  0  0.949579  0  0  0.12639  0  1.008503  0  0  0.127907  0  1.00857  0  0  0.089578  0.124917  0  1.009327  0
H  H6  1  0.67391951  0.10215238  0.63620116  1  0  0.104817  0  0.949576  0  0  0.126402  0  1.008492  0  0  0.127921  0  1.008556  0  0  0.089581  0.124929  0  1.009314  0
H  H7  1  0.38845097  0.80080452  0.51387803  1  0  0.099108  0  0.963501  0  0  0.120563  0  1.024587  0  0  0.121351  0  1.026489  0  0  0.085359  0.119932  0  1.023434  0
H  H8  1  0.61154982  0.19919298  0.48612063  1  0  0.099147  0  0.963461  0  0  0.120584  0  1.024559  0  0  0.121373  0  1.026461  0  0  0.085376  0.11995  0  1.023409  0
H  H9  1  0.24533038  0.92147375  0.50399173  1  0  0.109234  0  0.945565  0  0  0.132157  0  1.002325  0  0  0.133533  0  1.002573  0  0  0.093102  0.131098  0  1.00253  0
H  H10  1  0.75467272  0.07852620  0.49600875  1  0  0.109265  0  0.945521  0  0  0.132162  0  1.002311  0  0  0.133538  0  1.002558  0  0  0.093098  0.131105  0  1.002514  0
H  H11  1  0.54788548  0.84586643  0.09140988  1  0  0.162795  0  0.952758  0  0  0.175501  0  1.017349  0  0  0.178401  0  1.016163  0  0  0.103834  0.173477  0  1.018063  0
H  H12  1  0.45211497  0.15413351  0.90859083  1  0  0.162751  0  0.952747  0  0  0.17546  0  1.017352  0  0  0.178359  0  1.016167  0  0  0.103816  0.173434  0  1.018069  0
H  H13  1  0.40921543  0.62919501  0.04178488  1  0  0.16731  0  0.950663  0  0  0.183874  0  1.00931  0  0  0.186075  0  1.008705  0  0  0.107707  0.182253  0  1.00976  0
H  H14  1  0.59078503  0.37080493  0.95821483  1  0  0.167296  0  0.950672  0  0  0.183865  0  1.009315  0  0  0.186066  0  1.00871  0  0  0.107706  0.182244  0  1.009765  0
H  H15  1  0.39141578  0.75889472  0.17942800  1  0  0.145199  0  0.931948  0  0  0.167998  0  0.982595  0  0  0.169368  0  0.982854  0  0  0.104039  0.166671  0  0.983169  0
H  H16  1  0.60858386  0.24110644  0.82057155  1  0  0.145192  0  0.931937  0  0  0.167993  0  0.982589  0  0  0.169364  0  0.982847  0  0  0.104041  0.166666  0  0.983164  0
H  H17  1  0.20199930  0.82749003  0.71102724  1  0  0.147124  0  0.945035  0  0  0.166434  0  1.001293  0  0  0.167817  0  1.001754  0  0  0.104909  0.165079  0  1.001783  0
H  H18  1  0.79800165  0.17251114  0.28897269  1  0  0.147114  0  0.945076  0  0  0.166423  0  1.00133  0  0  0.167804  0  1.001792  0  0  0.104895  0.165067  0  1.00182  0
H  H19  1  0.28201868  0.66014156  0.75849307  1  0  0.151195  0  0.967982  0  0  0.167547  0  1.028306  0  0  0.169504  0  1.028407  0  0  0.100724  0.166046  0  1.028524  0
H  H20  1  0.71798096  0.33985960  0.24150647  1  0  0.151182  0  0.967976  0  0  0.16754  0  1.028289  0  0  0.169495  0  1.028392  0  0  0.100726  0.166039  0  1.028506  0
H  H21  1  0.44338388  0.87021432  0.83382361  1  0  0.159524  0  0.948543  0  0  0.175619  0  1.005854  0  0  0.17833  0  1.005252  0  0  0.103842  0.173609  0  1.006445  0
H  H22  1  0.55661657  0.12978562  0.16617610  1  0  0.159529  0  0.948568  0  0  0.175607  0  1.005894  0  0  0.178325  0  1.005282  0  0  0.103834  0.173598  0  1.006484  0
H  H23  1  0.05742963  0.07555325  0.31828490  1  0  0.090981  0  0.98257  0  0  0.095304  0  1.051115  0  0  0.098472  0  1.048216  0  0  0.116437  0.093013  0  1.053089  0
H  H24  1  0.94256801  0.92444301  0.68171377  1  0  0.090983  0  0.9826  0  0  0.095306  0  1.051127  0  0  0.098478  0  1.048221  0  0  0.116433  0.093011  0  1.053113  0
H  H25  1  0.26695932  0.28219406  0.53981309  1  0  0.119862  0  0.988982  0  0  0.126539  0  1.052177  0  0  0.130353  0  1.05048  0  0  0.106733  0.12366  0  1.053628  0
H  H26  1  0.73303849  0.71780587  0.46018685  1  0  0.119885  0  0.989016  0  0  0.126566  0  1.052201  0  0  0.13038  0  1.050506  0  0  0.106753  0.123689  0  1.053651  0
H  H27  1  0.55364145  0.54097549  0.28361893  1  0  0.116051  0  0.98391  0  0  0.123447  0  1.048084  0  0  0.12702  0  1.046607  0  0  0.109041  0.120731  0  1.049441  0
H  H28  1  0.44635786  0.45902811  0.71638067  1  0  0.115982  0  0.98394  0  0  0.123393  0  1.048103  0  0  0.126954  0  1.04664  0  0  0.109012  0.120676  0  1.049461  0
H  H29  1  0.32505992  0.32494122  0.07260045  1  0  0.094034  0  0.948558  0  0  0.101484  0  1.011289  0  0  0.104011  0  1.009364  0  0  0.120841  0.0996  0  1.012746  0
H  H30  1  0.67493790  0.67505871  0.92739850  1  0  0.094025  0  0.948635  0  0  0.101494  0  1.01133  0  0  0.10402  0  1.009406  0  0  0.120847  0.099611  0  1.012788  0
C  C31  1  0.09911618  0.68384510  0.35754690  1  0  -0.252608  0  3.663825  0  0  -0.288313  0  3.934652  0  0  -0.292953  0  3.942815  0  0  -0.16105  -0.285185  0  3.92943  0
C  C32  1  0.90088460  0.31615240  0.64245176  1  0  -0.252586  0  3.663902  0  0  -0.288201  0  3.934608  0  0  -0.292841  0  3.94277  0  0  -0.161009  -0.285096  0  3.929409  0
C  C33  1  0.27505314  0.83477640  0.43987024  1  0  -0.267929  0  3.722974  0  0  -0.345293  0  3.970355  0  0  -0.347247  0  3.981058  0  0  -0.248979  -0.343856  0  3.963971  0
C  C34  1  0.72494814  0.16522233  0.56012864  1  0  -0.267979  0  3.722975  0  0  -0.345338  0  3.970361  0  0  -0.347293  0  3.981061  0  0  -0.248981  -0.343895  0  3.963985  0
C  C35  1  0.41439665  0.75197034  0.07829210  1  0  -0.43282  0  3.545537  0  0  -0.504315  0  3.791827  0  0  -0.507811  0  3.795572  0  0  -0.23461  -0.501275  0  3.78933  0
C  C36  1  0.58560431  0.24803083  0.92170783  1  0  -0.432718  0  3.545471  0  0  -0.504235  0  3.791777  0  0  -0.507729  0  3.795522  0  0  -0.234585  -0.501194  0  3.789281  0
C  C37  1  0.29674697  0.78599377  0.79572125  1  0  -0.440291  0  3.556805  0  0  -0.509416  0  3.799544  0  0  -0.513805  0  3.805067  0  0  -0.238406  -0.506195  0  3.796625  0
C  C38  1  0.70325216  0.21400617  0.20427907  1  0  -0.440258  0  3.556871  0  0  -0.509365  0  3.799593  0  0  -0.513758  0  3.80511  0  0  -0.238379  -0.506144  0  3.796672  0
C  C39  1  0.16879473  0.18197077  0.31518868  1  0  0.121155  0  3.699904  0  0  0.09077  0  3.952759  0  0  0.09699  0  3.971081  0  0  0.043819  0.086828  0  3.940094  0
C  C40  1  0.83120177  0.81802916  0.68481087  1  0  0.121125  0  3.699916  0  0  0.090762  0  3.952777  0  0  0.096982  0  3.971099  0  0  0.043803  0.086819  0  3.940112  0
C  C41  1  0.28888790  0.30082117  0.44019927  1  0  -0.164617  0  3.682874  0  0  -0.179595  0  3.925329  0  0  -0.187847  0  3.946748  0  0  -0.084097  -0.173908  0  3.910667  0
C  C42  1  0.71110860  0.69917876  0.55979929  1  0  -0.16464  0  3.682819  0  0  -0.179626  0  3.925253  0  0  -0.187878  0  3.946673  0  0  -0.084092  -0.173939  0  3.91059  0
C  C43  1  0.43295072  0.43592220  0.43455220  1  0  0.088956  0  3.760405  0  0  0.101393  0  3.9879  0  0  0.10506  0  4.010095  0  0  0.010214  0.099078  0  3.972533  0
C  C44  1  0.56704627  0.56407894  0.56544757  1  0  0.088973  0  3.760373  0  0  0.101435  0  3.987844  0  0  0.105102  0  4.010035  0  0  0.010203  0.099123  0  3.972477  0
C  C45  1  0.44492865  0.44318574  0.29890136  1  0  -0.166085  0  3.688786  0  0  -0.181549  0  3.931162  0  0  -0.189684  0  3.952379  0  0  -0.082431  -0.176172  0  3.917023  0
C  C46  1  0.55506802  0.55681785  0.70109747  1  0  -0.166006  0  3.688738  0  0  -0.181489  0  3.931092  0  0  -0.189611  0  3.952312  0  0  -0.082382  -0.176113  0  3.916955  0
C  C47  1  0.31851618  0.31977736  0.17874022  1  0  0.14346  0  3.676719  0  0  0.112194  0  3.929422  0  0  0.119393  0  3.946957  0  0  0.051223  0.107497  0  3.917539  0
C  C48  1  0.68148181  0.68022624  0.82126099  1  0  0.143443  0  3.676795  0  0  0.112188  0  3.929504  0  0  0.119386  0  3.947037  0  0  0.051216  0.107493  0  3.917616  0
S  S49  1  0.91073391  0.73564592  0.23410002  1  0  1.327018  0  5.594837  0  0  1.236643  0  6.121392  0  0  1.282693  0  6.098226  0  0  0.50063  1.204873  0  6.135774  0
S  S50  1  0.08926472  0.26435280  0.76590009  1  0  1.326996  0  5.594863  0  0  1.236588  0  6.121423  0  0  1.282637  0  6.098256  0  0  0.500587  1.204823  0  6.13581  0
S  S51  1  0.22004306  0.78289928  0.94294493  1  0  0.711419  0  3.559144  0  0  0.68065  0  4.001157  0  0  0.697121  0  3.998667  0  0  0.283158  0.668851  0  4.002831  0
S  S52  1  0.77995657  0.21710188  0.05705561  1  0  0.71134  0  3.559063  0  0  0.680568  0  4.00108  0  0  0.697041  0  3.998588  0  0  0.283106  0.668771  0  4.002753  0
N  N53  1  0.18265869  0.19009195  0.18579862  1  0  -0.337375  0  3.310519  0  0  -0.259561  0  3.575901  0  0  -0.278008  0  3.593036  0  0  -0.321335  -0.246988  0  3.564275  0
N  N54  1  0.81733912  0.80990798  0.81420132  1  0  -0.337337  0  3.310548  0  0  -0.259584  0  3.575988  0  0  -0.278032  0  3.593124  0  0  -0.321357  -0.24701  0  3.564363  0
O  O55  1  0.99287480  0.81733289  0.13570452  1  0  -0.722421  0  2.085314  0  0  -0.660864  0  2.379695  0  0  -0.682972  0  2.361591  0  0  -0.353193  -0.645125  0  2.391544  0
O  O56  1  0.00712747  0.18266827  0.86429679  1  0  -0.722444  0  2.085397  0  0  -0.660859  0  2.379729  0  0  -0.682991  0  2.361679  0  0  -0.353184  -0.645121  0  2.391579  0
O  O57  1  0.75309195  0.58052874  0.15770000  1  0  -0.690104  0  1.95656  0  0  -0.638078  0  2.207266  0  0  -0.658769  0  2.194258  0  0  -0.351281  -0.623303  0  2.215514  0
O  O58  1  0.24690799  0.41946998  0.84230148  1  0  -0.690063  0  1.956475  0  0  -0.638055  0  2.207215  0  0  -0.658741  0  2.194206  0  0  -0.351273  -0.62328  0  2.21546  0
O  O59  1  0.86631364  0.84535031  0.32214222  1  0  -0.66623  0  1.902918  0  0  -0.611742  0  2.136816  0  0  -0.631697  0  2.123611  0  0  -0.349999  -0.597258  0  2.145159  0
O  O60  1  0.13368944  0.15464964  0.67786123  1  0  -0.666241  0  1.902957  0  0  -0.611726  0  2.136836  0  0  -0.631681  0  2.123633  0  0  -0.349981  -0.597231  0  2.145154  0
O  O61  1  0.24337369  0.96181729  0.99023185  1  0  -0.660689  0  1.969836  0  0  -0.587812  0  2.248886  0  0  -0.611668  0  2.23893  0  0  -0.352571  -0.570521  0  2.255239  0
O  O62  1  0.75662494  0.03818142  0.00976825  1  0  -0.660666  0  1.969759  0  0  -0.587782  0  2.248797  0  0  -0.611638  0  2.238835  0  0  -0.352534  -0.570492  0  2.255148  0
