# generated using pymatgen
data_AlH6C24(ClO)6
_symmetry_space_group_name_H-M   'P 1'
_cell_length_a   3.99312925
_cell_length_b   29.01911138
_cell_length_c   29.01890269
_cell_angle_alpha   119.99349553
_cell_angle_beta   90.00059740
_cell_angle_gamma   89.99934894
_symmetry_Int_Tables_number   1
_chemical_formula_structural   AlH6C24(ClO)6
_chemical_formula_sum   'Al2 H12 C48 Cl12 O12'
_cell_volume   2912.30969833
_cell_formula_units_Z   2
loop_
 _symmetry_equiv_pos_site_id
 _symmetry_equiv_pos_as_xyz
  1  'x, y, z'
loop_
 _atom_site_type_symbol
 _atom_site_label
 _atom_site_symmetry_multiplicity
 _atom_site_fract_x
 _atom_site_fract_y
 _atom_site_fract_z
 _atom_site_occupancy
 _atom_site_pbe_bader_charge
 _atom_site_pbe_bader_spin_density
 _atom_site_pbe_cm5_charge
 _atom_site_pbe_ddec_charge
 _atom_site_pbe_ddec_spin_density
 _atom_site_pbe_ddec_sum_bond_order
 _atom_site_pbe_magmom
Al  Al0  1  0.00022949  0.50001353  0.49999405  1  2.505396  0  0.429305  1.598798  0  2.573628  0
Al  Al1  1  0.99991935  0.16664828  0.83333809  1  2.505204  0  0.429361  1.599116  0  2.572936  0
H  H2  1  0.22350537  0.17617251  0.69619852  1  0.093094  0  0.11505  0.138238  0  0.977945  0
H  H3  1  0.77640858  0.30376536  0.82379410  1  0.092779  0  0.115115  0.13849  0  0.977541  0
H  H4  1  0.77637701  0.36287212  0.50952458  1  0.093156  0  0.114991  0.138231  0  0.977809  0
H  H5  1  0.22367864  0.49049447  0.63711319  1  0.093924  0  0.115096  0.138321  0  0.977795  0
H  H6  1  0.22360250  0.01998545  0.82386153  1  0.138064  0  0.115059  0.138189  0  0.977652  0
H  H7  1  0.77649765  0.02002244  0.69627230  1  0.094281  0  0.115183  0.138389  0  0.977512  0
H  H8  1  0.77644070  0.64667045  0.63712605  1  0.093777  0  0.115078  0.138288  0  0.977648  0
H  H9  1  0.22362909  0.64666776  0.50950048  1  0.138908  0  0.115006  0.138193  0  0.97777  0
H  H10  1  0.22350192  0.30376198  0.97995458  1  0.092843  0  0.115045  0.138198  0  0.977872  0
H  H11  1  0.77628248  0.17618620  0.98003370  1  0.139193  0  0.115067  0.138302  0  0.977423  0
H  H12  1  0.77632279  0.49048580  0.35328009  1  0.138467  0  0.11503  0.138155  0  0.977719  0
H  H13  1  0.22359444  0.36293082  0.35339609  1  0.09308  0  0.115121  0.138372  0  0.977736  0
C  C14  1  0.50024238  0.45916439  0.41829054  1  1.543182  0  0.27824  0.653758  0  4.05652  0
C  C15  1  0.50024425  0.45916801  0.54085610  1  1.552397  0  0.278254  0.653594  0  4.056723  0
C  C16  1  0.50023592  0.58171527  0.54083285  1  1.545138  0  0.27842  0.653752  0  4.056722  0
C  C17  1  0.49997971  0.20749269  0.79247095  1  1.552243  0  0.278388  0.654298  0  4.056548  0
C  C18  1  0.50008571  0.08495251  0.79252435  1  1.545481  0  0.278179  0.653381  0  4.057028  0
C  C19  1  0.49999661  0.20750367  0.91503949  1  1.543608  0  0.278423  0.653998  0  4.056541  0
C  C20  1  0.49991464  0.23709241  0.76288253  1  -0.012389  0  -0.007157  -0.00348  0  3.968237  0
C  C21  1  0.34579920  0.21474243  0.71295365  1  0.118293  0  -0.087803  -0.168785  0  3.962444  0
C  C22  1  0.35338243  0.24193391  0.68488451  1  0.034532  0  0.021456  0.116229  0  4.023137  0
C  C23  1  0.49966204  0.29320274  0.70678999  1  0.156651  0  -0.006823  0.01453  0  4.075371  0
C  C24  1  0.64605429  0.31510316  0.75805121  1  0.02949  0  0.021536  0.116328  0  4.0233  0
C  C25  1  0.65393262  0.28703000  0.78523510  1  0.120565  0  -0.087737  -0.168942  0  3.962818  0
C  C26  1  0.49953950  0.32120923  0.67879413  1  -0.250401  0  -0.03953  -0.064593  0  4.116358  0
C  C27  1  0.49952496  0.34545149  0.65453015  1  -0.032424  0  -0.039421  -0.064629  0  4.116529  0
C  C28  1  0.49967790  0.37345748  0.62653617  1  0.156193  0  -0.006801  0.014548  0  4.075087  0
C  C29  1  0.64604853  0.35154207  0.57527138  1  0.031305  0  0.021517  0.116399  0  4.023367  0
C  C30  1  0.65394229  0.37961192  0.54808461  1  0.118412  0  -0.08768  -0.169031  0  3.963074  0
C  C31  1  0.50002133  0.42955579  0.57043360  1  -0.012502  0  -0.007155  -0.002806  0  3.967492  0
C  C32  1  0.34589981  0.45191696  0.62036224  1  0.11853  0  -0.087817  -0.169233  0  3.96227  0
C  C33  1  0.35349515  0.42473622  0.64844133  1  0.034448  0  0.021497  0.116421  0  4.022714  0
C  C34  1  0.50008246  0.02577225  0.76294551  1  0.095705  0  -0.007179  -0.003293  0  3.968181  0
C  C35  1  0.34583215  0.99818296  0.78528225  1  -0.055266  0  -0.087735  -0.168473  0  3.96266  0
C  C36  1  0.35344187  0.94293272  0.75808035  1  0.1348  0  0.02152  0.116233  0  4.023582  0
C  C37  1  0.49963255  0.91358265  0.70680417  1  0.07638  0  -0.007212  0.014229  0  4.075312  0
C  C38  1  0.64607692  0.94294867  0.68490529  1  0.013837  0  0.021817  0.116662  0  4.023156  0
C  C39  1  0.65406151  0.99819839  0.71301117  1  0.063105  0  -0.087883  -0.169085  0  3.96344  0
C  C40  1  0.49944889  0.85758728  0.67879824  1  0.055263  0  -0.039493  -0.064821  0  4.116119  0
C  C41  1  0.49939774  0.80908563  0.65454594  1  -0.253047  0  -0.03925  -0.06427  0  4.115721  0
C  C42  1  0.49953714  0.75309090  0.62654901  1  0.175368  0  -0.007262  0.014164  0  4.074879  0
C  C43  1  0.64596333  0.72373628  0.64846274  1  0.014291  0  0.021638  0.116688  0  4.02318  0
C  C44  1  0.65397371  0.66848649  0.62037830  1  0.063494  0  -0.087945  -0.169408  0  3.963294  0
C  C45  1  0.50005636  0.64089876  0.57043601  1  0.101219  0  -0.007027  -0.002758  0  3.967067  0
C  C46  1  0.34585188  0.66847439  0.54807950  1  -0.061385  0  -0.087866  -0.169185  0  3.962538  0
C  C47  1  0.35333558  0.72372664  0.57527388  1  0.136559  0  0.021676  0.116583  0  4.022842  0
C  C48  1  0.49982452  0.23709031  0.97422201  1  0.093912  0  -0.007121  -0.003095  0  3.967808  0
C  C49  1  0.34570275  0.28701451  0.00178857  1  0.064501  0  -0.08806  -0.169323  0  3.963238  0
C  C50  1  0.35341163  0.31510686  0.05703910  1  0.023002  0  0.021892  0.116941  0  4.022825  0
C  C51  1  0.49954723  0.29319823  0.08641836  1  0.060683  0  -0.007128  0.014326  0  4.074032  0
C  C52  1  0.64593006  0.24193579  0.05707278  1  0.140524  0  0.021585  0.116446  0  4.022792  0
C  C53  1  0.65385299  0.21475030  0.00182504  1  -0.0538  0  -0.087793  -0.16898  0  3.962526  0
C  C54  1  0.49938762  0.32119727  0.14241759  1  0.057188  0  -0.039416  -0.064689  0  4.116188  0
C  C55  1  0.49929554  0.34545610  0.19090823  1  -0.151422  0  -0.039307  -0.064188  0  4.115833  0
C  C56  1  0.49941892  0.37347125  0.24691202  1  0.061224  0  -0.00695  0.014315  0  4.074022  0
C  C57  1  0.64577893  0.42473553  0.27624341  1  0.13908  0  0.021599  0.116723  0  4.022316  0
C  C58  1  0.65379839  0.45193040  0.33149418  1  -0.053455  0  -0.087954  -0.169146  0  3.962299  0
C  C59  1  0.49992863  0.42959184  0.35910978  1  0.093951  0  -0.007177  -0.003213  0  3.968149  0
C  C60  1  0.34580779  0.37966606  0.33155341  1  0.065534  0  -0.087811  -0.169239  0  3.96342  0
C  C61  1  0.35334260  0.35157696  0.27630376  1  0.021462  0  0.021663  0.116736  0  4.023178  0
Cl  Cl62  1  0.82112807  0.37764680  0.78686195  1  -0.185397  0  0.004581  -0.057253  0  1.544543  0
Cl  Cl63  1  0.17832337  0.21312982  0.62234477  1  -0.185219  0  0.004761  -0.057109  0  1.544788  0
Cl  Cl64  1  0.17842279  0.45355497  0.71098427  1  -0.185335  0  0.004657  -0.05719  0  1.544616  0
Cl  Cl65  1  0.82106109  0.28899518  0.54647085  1  -0.185417  0  0.004658  -0.057162  0  1.54456  0
Cl  Cl66  1  0.82101678  0.90922721  0.62235570  1  -0.189273  0  0.004657  -0.057182  0  1.544729  0
Cl  Cl67  1  0.17833122  0.90918417  0.78688064  1  -0.186777  0  0.004851  -0.057071  0  1.544368  0
Cl  Cl68  1  0.17825972  0.75746032  0.54645600  1  -0.187503  0  0.004714  -0.057205  0  1.544048  0
Cl  Cl69  1  0.82097457  0.75746738  0.71100759  1  -0.189894  0  0.004783  -0.05713  0  1.544665  0
Cl  Cl70  1  0.82105343  0.21314400  0.09083097  1  -0.187822  0  0.004631  -0.057307  0  1.544221  0
Cl  Cl71  1  0.17832161  0.37764134  0.09074081  1  -0.190075  0  0.004752  -0.057225  0  1.544845  0
Cl  Cl72  1  0.17825612  0.28903858  0.24261692  1  -0.188987  0  0.00467  -0.057292  0  1.544683  0
Cl  Cl73  1  0.82083956  0.45351606  0.24247588  1  -0.187208  0  0.004709  -0.057301  0  1.544475  0
O  O74  1  0.73520099  0.55831047  0.55104374  1  -1.255701  0  -0.237408  -0.595232  0  2.360881  0
O  O75  1  0.73520020  0.49276820  0.44169270  1  -1.258222  0  -0.237497  -0.595429  0  2.361313  0
O  O76  1  0.73520212  0.44896299  0.50724645  1  -1.253439  0  -0.23749  -0.595608  0  2.361463  0
O  O77  1  0.26544253  0.55829545  0.50720590  1  -1.260961  0  -0.237564  -0.595214  0  2.361649  0
O  O78  1  0.26548978  0.49280501  0.55106515  1  -1.255035  0  -0.237497  -0.594973  0  2.36117  0
O  O79  1  0.26544539  0.44895045  0.44171817  1  -1.255751  0  -0.237285  -0.59484  0  2.360784  0
O  O80  1  0.73488834  0.17388882  0.89163468  1  -1.258306  0  -0.237461  -0.595344  0  2.361176  0
O  O81  1  0.73488892  0.21769692  0.82608701  1  -1.254831  0  -0.237633  -0.595678  0  2.361342  0
O  O82  1  0.73491760  0.10836543  0.78229577  1  -1.255982  0  -0.237342  -0.595067  0  2.360893  0
O  O83  1  0.26513687  0.21771537  0.89161952  1  -1.256262  0  -0.237557  -0.595461  0  2.360924  0
O  O84  1  0.26518481  0.10836641  0.82613300  1  -1.260854  0  -0.237462  -0.595152  0  2.361057  0
O  O85  1  0.26513505  0.17387180  0.78227397  1  -1.253371  0  -0.237542  -0.595474  0  2.361228  0
