# generated using pymatgen
data_TbH20C22NO11
_symmetry_space_group_name_H-M   'P 1'
_cell_length_a   7.59160226
_cell_length_b   11.33593902
_cell_length_c   12.91681073
_cell_angle_alpha   75.83736459
_cell_angle_beta   83.50115340
_cell_angle_gamma   81.82807609
_symmetry_Int_Tables_number   1
_chemical_formula_structural   TbH20C22NO11
_chemical_formula_sum   'Tb2 H40 C44 N2 O22'
_cell_volume   1063.29749162
_cell_formula_units_Z   2
loop_
 _symmetry_equiv_pos_site_id
 _symmetry_equiv_pos_as_xyz
  1  'x, y, z'
loop_
 _atom_site_type_symbol
 _atom_site_label
 _atom_site_symmetry_multiplicity
 _atom_site_fract_x
 _atom_site_fract_y
 _atom_site_fract_z
 _atom_site_occupancy
 _atom_site_hle17_bader_spin_density
 _atom_site_hle17_ddec_charge
 _atom_site_hle17_ddec_spin_density
 _atom_site_hle17_ddec_sum_bond_order
 _atom_site_hle17_magmom
 _atom_site_hse06_10hf_bader_spin_density
 _atom_site_hse06_10hf_ddec_charge
 _atom_site_hse06_10hf_ddec_spin_density
 _atom_site_hse06_10hf_ddec_sum_bond_order
 _atom_site_hse06_10hf_magmom
 _atom_site_hse06_bader_spin_density
 _atom_site_hse06_ddec_charge
 _atom_site_hse06_ddec_spin_density
 _atom_site_hse06_ddec_sum_bond_order
 _atom_site_hse06_magmom
 _atom_site_pbe_bader_spin_density
 _atom_site_pbe_cm5_charge
 _atom_site_pbe_ddec_charge
 _atom_site_pbe_ddec_spin_density
 _atom_site_pbe_ddec_sum_bond_order
 _atom_site_pbe_magmom
Tb  Tb0  1  0.10378899  0.39127326  0.35089724  1  0  2.317465  0  1.633889  0  0  2.248076  0  1.973206  0  0  2.293654  0  1.929063  0  0  1.528708  2.150483  0  2.125886  0
Tb  Tb1  1  0.89621312  0.60872734  0.64910321  1  0  2.317457  0  1.633895  0  0  2.248079  0  1.973208  0  0  2.293659  0  1.92907  0  0  1.528725  2.150452  0  2.12594  0
H  H2  1  0.31427784  0.82091305  0.53497794  1  0  0.412261  0  0.879005  0  0  0.375445  0  0.962571  0  0  0.389083  0  0.948457  0  0  0.308546  0.365858  0  0.972578  0
H  H3  1  0.68571712  0.17909030  0.46501856  1  0  0.412249  0  0.878974  0  0  0.375389  0  0.962593  0  0  0.389025  0  0.948484  0  0  0.308523  0.365806  0  0.972586  0
H  H4  1  0.55052591  0.18006566  0.11867472  1  0  0.100764  0  0.954463  0  0  0.113743  0  1.01459  0  0  0.11681  0  1.012655  0  0  0.106709  0.111422  0  1.01625  0
H  H5  1  0.44946603  0.81994043  0.88132992  1  0  0.100696  0  0.954527  0  0  0.113684  0  1.014634  0  0  0.116748  0  1.012708  0  0  0.106726  0.111364  0  1.016289  0
H  H6  1  0.65573363  0.78482030  0.19064796  1  0  0.10251  0  0.961757  0  0  0.110281  0  1.029124  0  0  0.114038  0  1.026405  0  0  0.104478  0.107565  0  1.031096  0
H  H7  1  0.34425876  0.21518212  0.80934350  1  0  0.102512  0  0.961813  0  0  0.110262  0  1.029193  0  0  0.114026  0  1.026455  0  0  0.104487  0.10755  0  1.031162  0
H  H8  1  0.35771357  0.97018752  0.42114161  1  0  0.114654  0  0.988622  0  0  0.120943  0  1.056858  0  0  0.12494  0  1.053141  0  0  0.113015  0.117952  0  1.059735  0
H  H9  1  0.64229858  0.02980850  0.57885602  1  0  0.114678  0  0.988598  0  0  0.120961  0  1.056797  0  0  0.124963  0  1.053076  0  0  0.113013  0.117952  0  1.059718  0
H  H10  1  0.81697018  0.22891480  0.82225227  1  0  0.104489  0  0.953807  0  0  0.113488  0  1.017873  0  0  0.117364  0  1.014573  0  0  0.108267  0.110568  0  1.020536  0
H  H11  1  0.18302450  0.77109038  0.17774695  1  0  0.104547  0  0.953782  0  0  0.113554  0  1.017836  0  0  0.11743  0  1.014535  0  0  0.108333  0.110633  0  1.020509  0
H  H12  1  0.13351020  0.10861987  0.56180143  1  0  0.130868  0  0.951958  0  0  0.135087  0  1.021887  0  0  0.139794  0  1.017307  0  0  0.117732  0.131724  0  1.025018  0
H  H13  1  0.86649519  0.89138440  0.43819336  1  0  0.130808  0  0.952041  0  0  0.135058  0  1.021939  0  0  0.139748  0  1.017391  0  0  0.11776  0.131692  0  1.025066  0
H  H14  1  0.94186016  0.84181041  0.83548161  1  0  0.110323  0  0.945964  0  0  0.119494  0  1.008733  0  0  0.123244  0  1.005865  0  0  0.112991  0.116724  0  1.010999  0
H  H15  1  0.05813949  0.15819660  0.16451609  1  0  0.110341  0  0.945955  0  0  0.119487  0  1.008755  0  0  0.123234  0  1.005892  0  0  0.112996  0.116725  0  1.011006  0
H  H16  1  0.15165907  0.64790796  0.06609497  1  0  0.134304  0  0.941213  0  0  0.154767  0  0.998474  0  0  0.157679  0  0.996146  0  0  0.103656  0.152671  0  1.000237  0
H  H17  1  0.84833629  0.35208622  0.93391432  1  0  0.134322  0  0.941186  0  0  0.154781  0  0.998449  0  0  0.157693  0  0.996122  0  0  0.103666  0.152683  0  1.000212  0
H  H18  1  0.94971446  0.74965650  0.06560315  1  0  0.134745  0  0.956319  0  0  0.151876  0  1.021873  0  0  0.15394  0  1.022026  0  0  0.1017  0.150367  0  1.021909  0
H  H19  1  0.05028190  0.25033951  0.93440490  1  0  0.134739  0  0.956365  0  0  0.151845  0  1.021936  0  0  0.153911  0  1.022086  0  0  0.101667  0.150338  0  1.021967  0
H  H20  1  0.00391166  0.66823276  0.96285472  1  0  0.144262  0  0.94316  0  0  0.164785  0  0.999651  0  0  0.167624  0  0.998521  0  0  0.107199  0.162631  0  1.000773  0
H  H21  1  0.99608437  0.33176509  0.03715218  1  0  0.144221  0  0.943294  0  0  0.164775  0  0.999734  0  0  0.167615  0  0.998605  0  0  0.107213  0.162619  0  1.000865  0
H  H22  1  0.52481941  0.47224067  0.18733727  1  0  0.109694  0  0.942757  0  0  0.128621  0  1.005823  0  0  0.13025  0  1.004128  0  0  0.111725  0.127602  0  1.006504  0
H  H23  1  0.47517377  0.52775809  0.81266654  1  0  0.109693  0  0.942804  0  0  0.12859  0  1.005902  0  0  0.130195  0  1.004237  0  0  0.111737  0.127604  0  1.006546  0
H  H24  1  0.73391323  0.39180073  0.22759278  1  0  0.122203  0  0.9732  0  0  0.137141  0  1.038877  0  0  0.139384  0  1.037157  0  0  0.114068  0.135608  0  1.039788  0
H  H25  1  0.26608443  0.60819529  0.77241362  1  0  0.122129  0  0.973175  0  0  0.137141  0  1.038819  0  0  0.139387  0  1.037094  0  0  0.114006  0.135596  0  1.039756  0
H  H26  1  0.65710688  0.38452194  0.10347715  1  0  0.080625  0  0.946031  0  0  0.102268  0  1.012966  0  0  0.101558  0  1.014183  0  0  0.09719  0.102567  0  1.012439  0
H  H27  1  0.34288828  0.61547316  0.89652885  1  0  0.08067  0  0.946051  0  0  0.102337  0  1.012964  0  0  0.101631  0  1.014171  0  0  0.097202  0.102633  0  1.012438  0
H  H28  1  0.50673430  0.65203149  0.06335138  1  0  0.09552  0  0.93281  0  0  0.116544  0  0.995306  0  0  0.117528  0  0.994386  0  0  0.105741  0.115724  0  0.996052  0
H  H29  1  0.49326561  0.34796636  0.93664827  1  0  0.095572  0  0.932786  0  0  0.116577  0  0.995286  0  0  0.117561  0  0.994366  0  0  0.105752  0.115756  0  0.996031  0
H  H30  1  0.65370983  0.62323300  0.95062616  1  0  0.121411  0  0.952423  0  0  0.139533  0  1.015474  0  0  0.141059  0  1.014633  0  0  0.108251  0.138125  0  1.016516  0
H  H31  1  0.34629205  0.37676118  0.04937415  1  0  0.121395  0  0.9525  0  0  0.139523  0  1.015536  0  0  0.141047  0  1.014696  0  0  0.108233  0.138117  0  1.01658  0
H  H32  1  0.69314215  0.73458550  0.01794960  1  0  0.097319  0  0.963484  0  0  0.116266  0  1.031925  0  0  0.116141  0  1.033408  0  0  0.10569  0.116192  0  1.03107  0
H  H33  1  0.30685812  0.26541051  0.98205352  1  0  0.097284  0  0.963549  0  0  0.116233  0  1.031974  0  0  0.116107  0  1.03346  0  0  0.105671  0.116157  0  1.031119  0
H  H34  1  0.45756823  0.37646039  0.43327697  1  0  0.434069  0  0.86407  0  0  0.403904  0  0.925984  0  0  0.414111  0  0.911043  0  0  0.304628  0.396486  0  0.936694  0
H  H35  1  0.54243484  0.62354205  0.56671915  1  0  0.434056  0  0.864094  0  0  0.403923  0  0.92594  0  0  0.414128  0  0.911005  0  0  0.304636  0.396504  0  0.936651  0
H  H36  1  0.72880899  0.39689511  0.44815731  1  0  0.430273  0  0.869416  0  0  0.399079  0  0.934157  0  0  0.409981  0  0.917881  0  0  0.30323  0.391136  0  0.945855  0
H  H37  1  0.27119625  0.60310275  0.55184351  1  0  0.430292  0  0.86938  0  0  0.399104  0  0.934114  0  0  0.410005  0  0.91784  0  0  0.303237  0.391162  0  0.945811  0
H  H38  1  0.42347181  0.51977249  0.37652198  1  0  0.439425  0  0.859205  0  0  0.408325  0  0.922583  0  0  0.419558  0  0.906113  0  0  0.299136  0.400011  0  0.934674  0
H  H39  1  0.57653542  0.48022902  0.62347637  1  0  0.439465  0  0.859155  0  0  0.408356  0  0.922549  0  0  0.41959  0  0.906073  0  0  0.299151  0.400021  0  0.934662  0
H  H40  1  0.71929407  0.53432170  0.37998989  1  0  0.450328  0  0.839755  0  0  0.422532  0  0.896969  0  0  0.432252  0  0.88286  0  0  0.308853  0.41523  0  0.907511  0
H  H41  1  0.28070967  0.46567706  0.62001007  1  0  0.450229  0  0.839892  0  0  0.422535  0  0.896961  0  0  0.43222  0  0.882899  0  0  0.308847  0.415233  0  0.907504  0
C  C42  1  0.44640866  0.08456414  0.27343216  1  0  -0.04659  0  3.753926  0  0  -0.018401  0  3.985878  0  0  -0.027534  0  4.008476  0  0  -0.013075  -0.013586  0  3.972205  0
C  C43  1  0.55359452  0.91543738  0.72656105  1  0  -0.046513  0  3.753734  0  0  -0.018411  0  3.985776  0  0  -0.027459  0  4.008257  0  0  -0.013077  -0.013596  0  3.972104  0
C  C44  1  0.54087079  0.09120398  0.17371303  1  0  -0.087469  0  3.643692  0  0  -0.120987  0  3.88305  0  0  -0.119221  0  3.900642  0  0  -0.067089  -0.121767  0  3.871564  0
C  C45  1  0.45913216  0.90879936  0.82628600  1  0  -0.087395  0  3.643461  0  0  -0.120905  0  3.882804  0  0  -0.119165  0  3.900374  0  0  -0.06705  -0.121687  0  3.871318  0
C  C46  1  0.62083184  0.98352490  0.14279374  1  0  0.109668  0  3.912511  0  0  0.127835  0  4.144252  0  0  0.127617  0  4.166311  0  0  -0.001694  0.127775  0  4.129055  0
C  C47  1  0.37916794  0.01648120  0.85720260  1  0  0.10959  0  3.912861  0  0  0.127828  0  4.14446  0  0  0.127607  0  4.16653  0  0  -0.001762  0.127778  0  4.129263  0
C  C48  1  0.60003577  0.86958120  0.21342506  1  0  -0.089899  0  3.655289  0  0  -0.12512  0  3.901512  0  0  -0.123712  0  3.9198  0  0  -0.070489  -0.125624  0  3.888957  0
C  C49  1  0.39995550  0.13042031  0.78656978  1  0  -0.089834  0  3.655263  0  0  -0.125057  0  3.901438  0  0  -0.123648  0  3.919732  0  0  -0.070508  -0.125565  0  3.888869  0
C  C50  1  0.50429778  0.86255708  0.31364133  1  0  -0.076741  0  3.757762  0  0  -0.052284  0  4.001846  0  0  -0.062454  0  4.026043  0  0  -0.016242  -0.045862  0  3.985573  0
C  C51  1  0.49570406  0.13744444  0.68635043  1  0  -0.077023  0  3.757677  0  0  -0.052555  0  4.001754  0  0  -0.062721  0  4.025973  0  0  -0.016327  -0.046127  0  3.985487  0
C  C52  1  0.43144043  0.97057741  0.34412129  1  0  -0.042096  0  3.641558  0  0  -0.085503  0  3.894208  0  0  -0.081233  0  3.911686  0  0  -0.067754  -0.087983  0  3.882868  0
C  C53  1  0.56856489  0.02941953  0.65587430  1  0  -0.04206  0  3.641497  0  0  -0.085414  0  3.894161  0  0  -0.081155  0  3.911581  0  0  -0.067724  -0.087897  0  3.882844  0
C  C54  1  0.34928371  0.19762036  0.30366186  1  0  0.631384  0  3.953034  0  0  0.585474  0  4.249497  0  0  0.619355  0  4.241829  0  0  0.187726  0.563627  0  4.247041  0
C  C55  1  0.65071988  0.80237932  0.69633791  1  0  0.63153  0  3.953062  0  0  0.585629  0  4.249527  0  0  0.619484  0  4.24186  0  0  0.187792  0.563778  0  4.24707  0
C  C56  1  0.47683118  0.73789826  0.38206995  1  0  0.686192  0  3.82136  0  0  0.626242  0  4.121404  0  0  0.660218  0  4.113851  0  0  0.234555  0.603167  0  4.126473  0
C  C57  1  0.52317041  0.26210509  0.61792686  1  0  0.686232  0  3.821238  0  0  0.626239  0  4.121347  0  0  0.660186  0  4.113839  0  0  0.234515  0.603162  0  4.126425  0
C  C58  1  0.71405686  0.99266698  0.04020553  1  0  -0.103453  0  3.859752  0  0  -0.101837  0  4.11018  0  0  -0.105003  0  4.141337  0  0  -0.040431  -0.099718  0  4.089144  0
C  C59  1  0.28594810  0.00733179  0.95978583  1  0  -0.103394  0  3.859521  0  0  -0.101796  0  4.109912  0  0  -0.104963  0  4.141078  0  0  -0.040345  -0.099677  0  4.088867  0
C  C60  1  0.78849581  0.00733808  0.94989434  1  0  -0.103008  0  3.858766  0  0  -0.100193  0  4.1082  0  0  -0.104136  0  4.139911  0  0  -0.04049  -0.097491  0  4.086798  0
C  C61  1  0.21149632  0.99265885  0.05010684  1  0  -0.10298  0  3.858522  0  0  -0.100196  0  4.10795  0  0  -0.104146  0  4.139669  0  0  -0.0405  -0.097495  0  4.086546  0
C  C62  1  0.87484013  0.03174617  0.84506711  1  0  0.112678  0  3.905868  0  0  0.131008  0  4.135046  0  0  0.1309  0  4.157018  0  0  0.000857  0.130754  0  4.12015  0
C  C63  1  0.12516207  0.96825351  0.15492889  1  0  0.112595  0  3.905982  0  0  0.130996  0  4.135076  0  0  0.130897  0  4.15705  0  0  0.00086  0.130747  0  4.120174  0
C  C64  1  0.88291653  0.15411422  0.78770740  1  0  -0.083907  0  3.65058  0  0  -0.117799  0  3.895453  0  0  -0.115757  0  3.912933  0  0  -0.065771  -0.118907  0  3.884245  0
C  C65  1  0.11707494  0.84588638  0.21229149  1  0  -0.083993  0  3.650596  0  0  -0.117937  0  3.895495  0  0  -0.115897  0  3.912968  0  0  -0.065858  -0.119043  0  3.884295  0
C  C66  1  0.97360504  0.18176544  0.68620364  1  0  -0.073143  0  3.744519  0  0  -0.050198  0  3.982901  0  0  -0.0604  0  4.006196  0  0  -0.014953  -0.044384  0  3.969129  0
C  C67  1  0.02639672  0.81823699  0.31379412  1  0  -0.073005  0  3.744379  0  0  -0.050031  0  3.982772  0  0  -0.06023  0  4.00606  0  0  -0.014901  -0.044222  0  3.968996  0
C  C68  1  0.05825930  0.08709267  0.63974782  1  0  -0.045648  0  3.638899  0  0  -0.086909  0  3.89203  0  0  -0.082158  0  3.909233  0  0  -0.064256  -0.089819  0  3.881025  0
C  C69  1  0.94175264  0.91291251  0.36025250  1  0  -0.045667  0  3.639  0  0  -0.08701  0  3.892134  0  0  -0.082249  0  3.909309  0  0  -0.064374  -0.089911  0  3.881114  0
C  C70  1  0.04421385  0.96539658  0.69416056  1  0  -0.082037  0  3.782156  0  0  -0.058745  0  4.021767  0  0  -0.06983  0  4.046201  0  0  -0.013452  -0.051875  0  4.006118  0
C  C71  1  0.95578448  0.03461043  0.30583800  1  0  -0.081942  0  3.782546  0  0  -0.058527  0  4.021991  0  0  -0.069608  0  4.046419  0  0  -0.013342  -0.051659  0  4.006334  0
C  C72  1  0.95236602  0.93722059  0.79549242  1  0  -0.083574  0  3.64559  0  0  -0.116195  0  3.888081  0  0  -0.114052  0  3.905462  0  0  -0.063394  -0.117288  0  3.876542  0
C  C73  1  0.04762498  0.06278275  0.20450591  1  0  -0.083611  0  3.645613  0  0  -0.116262  0  3.888025  0  0  -0.114125  0  3.905409  0  0  -0.063442  -0.117359  0  3.876493  0
C  C74  1  0.98160490  0.31318981  0.62717573  1  0  0.731023  0  3.851469  0  0  0.685237  0  4.141632  0  0  0.721101  0  4.129966  0  0  0.237701  0.660184  0  4.145609  0
C  C75  1  0.01839687  0.68681262  0.37282280  1  0  0.730994  0  3.851429  0  0  0.68516  0  4.14168  0  0  0.721026  0  4.13001  0  0  0.237692  0.6601  0  4.145654  0
C  C76  1  0.12435557  0.86408764  0.64339057  1  0  0.714937  0  3.776898  0  0  0.665794  0  4.06479  0  0  0.701181  0  4.053547  0  0  0.260892  0.641095  0  4.070936  0
C  C77  1  0.87564686  0.13591113  0.35661026  1  0  0.714816  0  3.77698  0  0  0.665597  0  4.064926  0  0  0.70099  0  4.053675  0  0  0.260813  0.640905  0  4.071065  0
C  C78  1  0.92263263  0.55481096  0.11557131  1  0  0.607871  0  3.736573  0  0  0.570251  0  4.017233  0  0  0.599877  0  4.016777  0  0  0.256348  0.549753  0  4.015281  0
C  C79  1  0.07736102  0.44518506  0.88443306  1  0  0.607834  0  3.736497  0  0  0.570269  0  4.017149  0  0  0.599885  0  4.016711  0  0  0.256381  0.549769  0  4.015194  0
C  C80  1  0.01165798  0.66210665  0.04849085  1  0  -0.435561  0  3.652747  0  0  -0.51558  0  3.887678  0  0  -0.521573  0  3.889859  0  0  -0.233969  -0.511516  0  3.886971  0
C  C81  1  0.98833719  0.33788846  0.95151593  1  0  -0.435554  0  3.652746  0  0  -0.515573  0  3.887662  0  0  -0.521545  0  3.889812  0  0  -0.233998  -0.511507  0  3.886957  0
C  C82  1  0.66184511  0.44350417  0.15907746  1  0  -0.161751  0  3.635191  0  0  -0.263612  0  3.884822  0  0  -0.259548  0  3.893884  0  0  -0.135982  -0.266292  0  3.879485  0
C  C83  1  0.33814814  0.55649460  0.84093176  1  0  -0.161776  0  3.635135  0  0  -0.263668  0  3.884821  0  0  -0.259585  0  3.893892  0  0  -0.135978  -0.266372  0  3.879459  0
C  C84  1  0.64618406  0.64498918  0.02955065  1  0  -0.17932  0  3.655734  0  0  -0.28065  0  3.906658  0  0  -0.277302  0  3.916959  0  0  -0.136294  -0.282702  0  3.900105  0
C  C85  1  0.35381223  0.35500683  0.97045198  1  0  -0.179358  0  3.655851  0  0  -0.280606  0  3.90676  0  0  -0.277259  0  3.917065  0  0  -0.136248  -0.282663  0  3.900221  0
N  N86  1  0.74974391  0.55098325  0.10489501  1  0  -0.130573  0  3.421058  0  0  -0.030801  0  3.650075  0  0  -0.051998  0  3.674422  0  0  -0.274121  -0.016803  0  3.634047  0
N  N87  1  0.25024975  0.44901277  0.89511013  1  0  -0.130444  0  3.420898  0  0  -0.030858  0  3.650089  0  0  -0.052052  0  3.674436  0  0  -0.274115  -0.016865  0  3.63407  0
O  O88  1  0.29271809  0.19386287  0.40101770  1  0  -0.677576  0  1.966648  0  0  -0.639451  0  2.206369  0  0  -0.66377  0  2.197942  0  0  -0.37343  -0.616165  0  2.211446  0
O  O89  1  0.70729865  0.80613773  0.59898558  1  0  -0.677647  0  1.966666  0  0  -0.639569  0  2.206484  0  0  -0.663889  0  2.198069  0  0  -0.373497  -0.616267  0  2.211552  0
O  O90  1  0.31688930  0.29471371  0.23005909  1  0  -0.71856  0  1.993084  0  0  -0.680083  0  2.239169  0  0  -0.704505  0  2.229896  0  0  -0.381215  -0.655552  0  2.244099  0
O  O91  1  0.68310764  0.70528597  0.76994038  1  0  -0.718621  0  1.993176  0  0  -0.68012  0  2.239217  0  0  -0.704541  0  2.229952  0  0  -0.381211  -0.655578  0  2.244144  0
O  O92  1  0.53426328  0.64584824  0.34369115  1  0  -0.624345  0  1.982417  0  0  -0.561322  0  2.199118  0  0  -0.585305  0  2.18874  0  0  -0.303018  -0.54529  0  2.206874  0
O  O93  1  0.46574147  0.35415969  0.65630289  1  0  -0.624301  0  1.982331  0  0  -0.561323  0  2.199073  0  0  -0.585281  0  2.188698  0  0  -0.30303  -0.545283  0  2.20683  0
O  O94  1  0.39396201  0.72729649  0.47650405  1  0  -0.65536  0  2.06266  0  0  -0.578516  0  2.278016  0  0  -0.606063  0  2.267542  0  0  -0.299985  -0.559721  0  2.285489  0
O  O95  1  0.60604172  0.27270228  0.52349513  1  0  -0.655298  0  2.062586  0  0  -0.57841  0  2.277969  0  0  -0.60595  0  2.267504  0  0  -0.299908  -0.559612  0  2.285431  0
O  O96  1  0.91383058  0.39554761  0.67621123  1  0  -0.725183  0  2.01341  0  0  -0.680472  0  2.260365  0  0  -0.70571  0  2.248462  0  0  -0.394655  -0.653742  0  2.269852  0
O  O97  1  0.08616538  0.60445756  0.32378481  1  0  -0.725158  0  2.01346  0  0  -0.680451  0  2.260506  0  0  -0.705672  0  2.248557  0  0  -0.39463  -0.653725  0  2.269992  0
O  O98  1  0.05677895  0.33331408  0.53279572  1  0  -0.756584  0  2.081276  0  0  -0.720142  0  2.350282  0  0  -0.744039  0  2.334782  0  0  -0.410848  -0.692068  0  2.361448  0
O  O99  1  0.94322090  0.66669202  0.46720526  1  0  -0.756578  0  2.081198  0  0  -0.720121  0  2.350233  0  0  -0.744011  0  2.334724  0  0  -0.410845  -0.69206  0  2.361452  0
O  O100  1  0.26241683  0.89003520  0.57507956  1  0  -0.532119  0  2.142835  0  0  -0.472471  0  2.3637  0  0  -0.496715  0  2.350869  0  0  -0.303573  -0.45605  0  2.372972  0
O  O101  1  0.73757856  0.10996540  0.42491440  1  0  -0.532077  0  2.142844  0  0  -0.472352  0  2.363698  0  0  -0.496596  0  2.350865  0  0  -0.303512  -0.455931  0  2.372958  0
O  O102  1  0.06426201  0.76349664  0.66524897  1  0  -0.691654  0  2.102043  0  0  -0.652195  0  2.355176  0  0  -0.674928  0  2.343571  0  0  -0.363566  -0.62742  0  2.365473  0
O  O103  1  0.93574776  0.23649847  0.33475832  1  0  -0.691597  0  2.102056  0  0  -0.65209  0  2.355111  0  0  -0.674828  0  2.343503  0  0  -0.36352  -0.627331  0  2.365411  0
O  O104  1  0.01246799  0.46887362  0.17687472  1  0  -0.703181  0  2.056716  0  0  -0.668186  0  2.314646  0  0  -0.690955  0  2.304316  0  0  -0.388471  -0.642585  0  2.323177  0
O  O105  1  0.98752566  0.53112240  0.82312965  1  0  -0.703191  0  2.056728  0  0  -0.668164  0  2.314584  0  0  -0.690936  0  2.304273  0  0  -0.38846  -0.642555  0  2.323114  0
O  O106  1  0.79462916  0.45464570  0.39263252  1  0  -0.934301  0  1.927565  0  0  -0.89863  0  2.129212  0  0  -0.91611  0  2.096171  0  0  -0.649777  -0.877557  0  2.15567  0
O  O107  1  0.20537165  0.54535490  0.60736957  1  0  -0.934224  0  1.927577  0  0  -0.89863  0  2.129059  0  0  -0.916103  0  2.096156  0  0  -0.649781  -0.877552  0  2.15552  0
O  O108  1  0.37476898  0.43952910  0.39008306  1  0  -0.937644  0  1.912954  0  0  -0.897795  0  2.113426  0  0  -0.916287  0  2.079878  0  0  -0.661626  -0.87525  0  2.141135  0
O  O109  1  0.62523382  0.56047517  0.60991655  1  0  -0.937694  0  1.912956  0  0  -0.897836  0  2.113404  0  0  -0.916325  0  2.079853  0  0  -0.661665  -0.875279  0  2.141206  0
