# generated using pymatgen
data_AgH14C8(NO2)2
_symmetry_space_group_name_H-M   'P 1'
_cell_length_a   8.44655638
_cell_length_b   9.67804544
_cell_length_c   14.02500045
_cell_angle_alpha   90.00020467
_cell_angle_beta   98.28742190
_cell_angle_gamma   89.99984098
_symmetry_Int_Tables_number   1
_chemical_formula_structural   AgH14C8(NO2)2
_chemical_formula_sum   'Ag4 H56 C32 N8 O16'
_cell_volume   1134.51760971
_cell_formula_units_Z   4
loop_
 _symmetry_equiv_pos_site_id
 _symmetry_equiv_pos_as_xyz
  1  'x, y, z'
loop_
 _atom_site_type_symbol
 _atom_site_label
 _atom_site_symmetry_multiplicity
 _atom_site_fract_x
 _atom_site_fract_y
 _atom_site_fract_z
 _atom_site_occupancy
 _atom_site_hle17_bader_spin_density
 _atom_site_hle17_ddec_charge
 _atom_site_hle17_ddec_spin_density
 _atom_site_hle17_ddec_sum_bond_order
 _atom_site_hle17_magmom
 _atom_site_hse06_10hf_bader_spin_density
 _atom_site_hse06_10hf_ddec_charge
 _atom_site_hse06_10hf_ddec_spin_density
 _atom_site_hse06_10hf_ddec_sum_bond_order
 _atom_site_hse06_10hf_magmom
 _atom_site_hse06_bader_spin_density
 _atom_site_hse06_ddec_charge
 _atom_site_hse06_ddec_spin_density
 _atom_site_hse06_ddec_sum_bond_order
 _atom_site_hse06_magmom
 _atom_site_pbe_bader_spin_density
 _atom_site_pbe_cm5_charge
 _atom_site_pbe_ddec_charge
 _atom_site_pbe_ddec_spin_density
 _atom_site_pbe_ddec_sum_bond_order
 _atom_site_pbe_magmom
Ag  Ag0  1  0.89172584  0.40406615  0.83506200  1  0  0.586799  0  1.289127  0  0  0.466499  0  1.70408  0  0  0.493674  0  1.657852  0  0  0.431933  0.447895  0  1.735817  0
Ag  Ag1  1  0.60826944  0.90406577  0.66493898  1  0  0.58682  0  1.289085  0  0  0.466513  0  1.704043  0  0  0.49369  0  1.657812  0  0  0.43193  0.447907  0  1.735779  0
Ag  Ag2  1  0.10827365  0.59593468  0.16493714  1  0  0.586808  0  1.289093  0  0  0.466514  0  1.70405  0  0  0.49369  0  1.65782  0  0  0.431943  0.447909  0  1.735789  0
Ag  Ag3  1  0.39172764  0.09593402  0.33506209  1  0  0.586793  0  1.289075  0  0  0.466511  0  1.704034  0  0  0.493684  0  1.657804  0  0  0.431939  0.44791  0  1.735772  0
H  H4  1  0.36282448  0.89385617  0.98480965  1  0  0.06196  0  0.9362  0  0  0.085044  0  0.990574  0  0  0.085013  0  0.992172  0  0  0.089263  0.084888  0  0.989641  0
H  H5  1  0.13717599  0.39385756  0.51518972  1  0  0.06196  0  0.936185  0  0  0.085042  0  0.990555  0  0  0.085011  0  0.992154  0  0  0.089266  0.084886  0  0.989623  0
H  H6  1  0.63717741  0.10614156  0.01518828  1  0  0.061951  0  0.936213  0  0  0.085031  0  0.99058  0  0  0.085001  0  0.99218  0  0  0.089266  0.084875  0  0.989652  0
H  H7  1  0.86282228  0.60614327  0.48481146  1  0  0.061961  0  0.936205  0  0  0.085044  0  0.990578  0  0  0.085014  0  0.992174  0  0  0.089264  0.084887  0  0.989645  0
H  H8  1  0.44333346  0.96333266  0.09654183  1  0  0.05742  0  0.946009  0  0  0.075378  0  1.01291  0  0  0.0765  0  1.012036  0  0  0.086029  0.074385  0  1.013779  0
H  H9  1  0.05666926  0.46333524  0.40345843  1  0  0.057415  0  0.945996  0  0  0.075378  0  1.012887  0  0  0.076503  0  1.012009  0  0  0.086024  0.074385  0  1.013754  0
H  H10  1  0.55666604  0.03666921  0.90345589  1  0  0.057424  0  0.945929  0  0  0.07536  0  1.01285  0  0  0.076488  0  1.011969  0  0  0.086026  0.074369  0  1.013713  0
H  H11  1  0.94333022  0.53666662  0.59654214  1  0  0.057373  0  0.946028  0  0  0.075335  0  1.012929  0  0  0.076452  0  1.01206  0  0  0.086007  0.074343  0  1.013795  0
H  H12  1  0.62507378  0.78999495  0.96386225  1  0  0.069477  0  0.923353  0  0  0.093007  0  0.974211  0  0  0.093423  0  0.975115  0  0  0.093052  0.092609  0  0.973651  0
H  H13  1  0.87492182  0.29000104  0.53613491  1  0  0.069452  0  0.923327  0  0  0.093008  0  0.974156  0  0  0.09342  0  0.975056  0  0  0.093041  0.092616  0  0.973594  0
H  H14  1  0.37492688  0.20999865  0.03613913  1  0  0.069478  0  0.92338  0  0  0.093003  0  0.974238  0  0  0.093418  0  0.975142  0  0  0.093059  0.092609  0  0.973678  0
H  H15  1  0.12507407  0.71000186  0.46386463  1  0  0.069432  0  0.923306  0  0  0.092978  0  0.974151  0  0  0.093391  0  0.975051  0  0  0.093013  0.092583  0  0.973591  0
H  H16  1  0.71658763  0.86430504  0.07318072  1  0  0.074552  0  0.942435  0  0  0.094272  0  1.001887  0  0  0.094594  0  1.003125  0  0  0.091711  0.093859  0  1.001308  0
H  H17  1  0.78341384  0.36430719  0.42681340  1  0  0.074554  0  0.942484  0  0  0.094248  0  1.001985  0  0  0.094565  0  1.003227  0  0  0.091695  0.093836  0  1.001405  0
H  H18  1  0.28341425  0.13569683  0.92681864  1  0  0.074565  0  0.942489  0  0  0.094279  0  1.001946  0  0  0.094602  0  1.003182  0  0  0.091701  0.093867  0  1.001365  0
H  H19  1  0.21658446  0.63569674  0.57318564  1  0  0.074503  0  0.942507  0  0  0.094185  0  1.002025  0  0  0.094502  0  1.003266  0  0  0.091658  0.093772  0  1.001446  0
H  H20  1  0.53649999  0.72582609  0.16469042  1  0  0.073472  0  0.937828  0  0  0.094378  0  0.994801  0  0  0.094223  0  0.99576  0  0  0.110987  0.094352  0  0.994265  0
H  H21  1  0.96350419  0.22582319  0.33530788  1  0  0.073495  0  0.93778  0  0  0.0944  0  0.994761  0  0  0.094247  0  0.995718  0  0  0.111  0.094371  0  0.994232  0
H  H22  1  0.46350306  0.27417371  0.83531190  1  0  0.073403  0  0.937805  0  0  0.094302  0  0.994779  0  0  0.094148  0  0.995736  0  0  0.110985  0.094281  0  0.994249  0
H  H23  1  0.03649170  0.77417764  0.66469165  1  0  0.073473  0  0.937746  0  0  0.094404  0  0.994686  0  0  0.094253  0  0.995643  0  0  0.111016  0.09437  0  0.994153  0
H  H24  1  0.43971583  0.65570742  0.05632212  1  0  0.076812  0  0.944562  0  0  0.090402  0  1.008688  0  0  0.091452  0  1.007969  0  0  0.10617  0.089596  0  1.009281  0
H  H25  1  0.06028290  0.15570608  0.44367845  1  0  0.076781  0  0.94464  0  0  0.090366  0  1.00877  0  0  0.091418  0  1.008055  0  0  0.106153  0.089561  0  1.009361  0
H  H26  1  0.56028601  0.34429237  0.94368151  1  0  0.076788  0  0.944554  0  0  0.09032  0  1.008728  0  0  0.091371  0  1.008002  0  0  0.106129  0.089519  0  1.009326  0
H  H27  1  0.93971539  0.84429475  0.55632058  1  0  0.076818  0  0.944647  0  0  0.090393  0  1.00878  0  0  0.091444  0  1.008061  0  0  0.106171  0.089582  0  1.009369  0
H  H28  1  0.77539081  0.71507287  0.27128308  1  0  0.138226  0  0.948527  0  0  0.15961  0  1.005626  0  0  0.161715  0  1.005775  0  0  0.098626  0.157959  0  1.005769  0
H  H29  1  0.72460745  0.21506794  0.22871110  1  0  0.138203  0  0.948532  0  0  0.159591  0  1.005622  0  0  0.161696  0  1.005772  0  0  0.098624  0.157943  0  1.005764  0
H  H30  1  0.22460868  0.28493003  0.72871535  1  0  0.138202  0  0.94856  0  0  0.159581  0  1.005668  0  0  0.161685  0  1.00582  0  0  0.098605  0.157923  0  1.005818  0
H  H31  1  0.27539206  0.78493083  0.77128591  1  0  0.138199  0  0.948537  0  0  0.159565  0  1.005656  0  0  0.161668  0  1.005807  0  0  0.098614  0.157909  0  1.005802  0
H  H32  1  0.84684636  0.55575873  0.32365975  1  0  0.12123  0  0.9749  0  0  0.142701  0  1.035656  0  0  0.14425  0  1.035538  0  0  0.095576  0.141581  0  1.035728  0
H  H33  1  0.65315229  0.05575576  0.17633763  1  0  0.121219  0  0.974963  0  0  0.142669  0  1.035732  0  0  0.14422  0  1.035608  0  0  0.095577  0.141549  0  1.035805  0
H  H34  1  0.15315670  0.44424107  0.67634185  1  0  0.121184  0  0.974925  0  0  0.142645  0  1.035707  0  0  0.144194  0  1.035591  0  0  0.095554  0.141524  0  1.035778  0
H  H35  1  0.34684600  0.94424197  0.82366212  1  0  0.121192  0  0.97504  0  0  0.14265  0  1.035791  0  0  0.144201  0  1.035669  0  0  0.095571  0.141529  0  1.035863  0
H  H36  1  0.63721058  0.57952711  0.28657648  1  0  0.144546  0  0.965108  0  0  0.156052  0  1.037088  0  0  0.159732  0  1.034674  0  0  0.099781  0.15334  0  1.038794  0
H  H37  1  0.86278801  0.07952280  0.21342024  1  0  0.144581  0  0.965071  0  0  0.156057  0  1.037068  0  0  0.159734  0  1.034657  0  0  0.099788  0.153346  0  1.038774  0
H  H38  1  0.36279251  0.42047165  0.71342084  1  0  0.144522  0  0.965127  0  0  0.156011  0  1.037124  0  0  0.159699  0  1.034704  0  0  0.099749  0.1533  0  1.038827  0
H  H39  1  0.13721026  0.92047390  0.78658093  1  0  0.144564  0  0.965078  0  0  0.156032  0  1.03709  0  0  0.159719  0  1.034669  0  0  0.099779  0.153321  0  1.038794  0
H  H40  1  0.95350154  0.39679649  0.22618902  1  0  0.128643  0  0.993927  0  0  0.133829  0  1.06127  0  0  0.137041  0  1.06235  0  0  0.097883  0.13147  0  1.060812  0
H  H41  1  0.54649499  0.89680096  0.27381186  1  0  0.128644  0  0.993933  0  0  0.133828  0  1.06128  0  0  0.13704  0  1.06236  0  0  0.097899  0.131467  0  1.060823  0
H  H42  1  0.04649913  0.60319607  0.77381165  1  0  0.128706  0  0.993894  0  0  0.133889  0  1.061239  0  0  0.137103  0  1.062315  0  0  0.097903  0.131529  0  1.06078  0
H  H43  1  0.45349851  0.10320297  0.72618746  1  0  0.128623  0  0.993987  0  0  0.133811  0  1.061325  0  0  0.137023  0  1.062407  0  0  0.09789  0.131451  0  1.060866  0
H  H44  1  0.94333604  0.16281596  0.05224492  1  0  0.136417  0  0.921036  0  0  0.159951  0  0.973799  0  0  0.162586  0  0.972518  0  0  0.100632  0.157917  0  0.975008  0
H  H45  1  0.55665993  0.66281924  0.44775391  1  0  0.136407  0  0.921058  0  0  0.159942  0  0.973836  0  0  0.162578  0  0.972552  0  0  0.100596  0.157907  0  0.975044  0
H  H46  1  0.05665746  0.83718384  0.94775440  1  0  0.136367  0  0.921074  0  0  0.159896  0  0.97386  0  0  0.162532  0  0.972576  0  0  0.100585  0.157861  0  0.975068  0
H  H47  1  0.44334316  0.33718262  0.55224484  1  0  0.136372  0  0.921068  0  0  0.15991  0  0.973844  0  0  0.162546  0  0.972561  0  0  0.100585  0.157876  0  0.975052  0
H  H48  1  0.09527895  0.24289123  0.13613380  1  0  0.136516  0  0.969248  0  0  0.153171  0  1.034281  0  0  0.156024  0  1.032759  0  0  0.091825  0.151054  0  1.035438  0
H  H49  1  0.40471716  0.74289530  0.36386675  1  0  0.136527  0  0.969285  0  0  0.153194  0  1.03431  0  0  0.156046  0  1.032791  0  0  0.091848  0.151077  0  1.035465  0
H  H50  1  0.90471575  0.75710857  0.86386562  1  0  0.136511  0  0.969341  0  0  0.153187  0  1.034353  0  0  0.15604  0  1.032833  0  0  0.091857  0.151069  0  1.035507  0
H  H51  1  0.59528351  0.25710244  0.63613393  1  0  0.13653  0  0.969266  0  0  0.153205  0  1.034281  0  0  0.156059  0  1.032758  0  0  0.091841  0.151088  0  1.035438  0
H  H52  1  0.08442745  0.27113525  0.00861099  1  0  0.125043  0  0.965383  0  0  0.139762  0  1.039913  0  0  0.142737  0  1.038013  0  0  0.094491  0.137562  0  1.041418  0
H  H53  1  0.41557338  0.77113995  0.49138935  1  0  0.125072  0  0.965259  0  0  0.13981  0  1.03978  0  0  0.142787  0  1.037882  0  0  0.094526  0.13761  0  1.041284  0
H  H54  1  0.91557085  0.72886145  0.99138805  1  0  0.125028  0  0.965394  0  0  0.139745  0  1.039923  0  0  0.142722  0  1.038026  0  0  0.09449  0.137544  0  1.04143  0
H  H55  1  0.58442969  0.22885778  0.50861083  1  0  0.125068  0  0.965321  0  0  0.139817  0  1.039837  0  0  0.142795  0  1.037939  0  0  0.094535  0.137617  0  1.041343  0
H  H56  1  0.69583829  0.54209320  0.03246695  1  0  0.284546  0  0.939609  0  0  0.269151  0  0.994711  0  0  0.277812  0  0.988662  0  0  0.306642  0.263102  0  0.998893  0
H  H57  1  0.80415920  0.04209449  0.46753030  1  0  0.284508  0  0.93969  0  0  0.269116  0  0.994773  0  0  0.277774  0  0.988732  0  0  0.306653  0.263068  0  0.998954  0
H  H58  1  0.30416117  0.45790660  0.96753504  1  0  0.284519  0  0.939629  0  0  0.269126  0  0.994728  0  0  0.277787  0  0.98868  0  0  0.306622  0.263078  0  0.99891  0
H  H59  1  0.19583670  0.95790738  0.53246852  1  0  0.28452  0  0.939691  0  0  0.269116  0  0.99477  0  0  0.277772  0  0.98873  0  0  0.306641  0.263068  0  0.998951  0
C  C60  1  0.47435997  0.93545180  0.02517963  1  0  -0.106935  0  3.704075  0  0  -0.147643  0  3.969466  0  0  -0.148779  0  3.984955  0  0  -0.165966  -0.146616  0  3.958639  0
C  C61  1  0.02563804  0.43545174  0.47481943  1  0  -0.106922  0  3.704125  0  0  -0.14761  0  3.969507  0  0  -0.148752  0  3.984989  0  0  -0.165987  -0.146583  0  3.95868  0
C  C62  1  0.52563832  0.06454903  0.97481940  1  0  -0.106909  0  3.704019  0  0  -0.147576  0  3.969393  0  0  -0.148716  0  3.98488  0  0  -0.16597  -0.146548  0  3.958566  0
C  C63  1  0.97435904  0.56454703  0.52518093  1  0  -0.106856  0  3.704171  0  0  -0.147562  0  3.969556  0  0  -0.148699  0  3.985039  0  0  -0.165933  -0.146535  0  3.958729  0
C  C64  1  0.60257182  0.82313148  0.03596527  1  0  -0.135929  0  3.684277  0  0  -0.176954  0  3.946092  0  0  -0.179224  0  3.961615  0  0  -0.165442  -0.175236  0  3.935312  0
C  C65  1  0.89742854  0.32313251  0.46403078  1  0  -0.135958  0  3.684356  0  0  -0.177005  0  3.946209  0  0  -0.179256  0  3.961714  0  0  -0.165426  -0.175293  0  3.935427  0
C  C66  1  0.39742886  0.17686832  0.96403469  1  0  -0.136  0  3.68439  0  0  -0.177047  0  3.946159  0  0  -0.179316  0  3.961682  0  0  -0.165441  -0.175325  0  3.935387  0
C  C67  1  0.10256856  0.67686832  0.53596743  1  0  -0.135809  0  3.684332  0  0  -0.176839  0  3.946146  0  0  -0.17909  0  3.961651  0  0  -0.16536  -0.175131  0  3.935356  0
C  C68  1  0.55443449  0.69755364  0.09144098  1  0  0.049937  0  3.629238  0  0  -0.009329  0  3.890762  0  0  -0.004433  0  3.902764  0  0  -0.0591  -0.012265  0  3.882252  0
C  C69  1  0.94556736  0.19755220  0.40855847  1  0  0.049941  0  3.629308  0  0  -0.009334  0  3.890855  0  0  -0.004452  0  3.902869  0  0  -0.059105  -0.012265  0  3.882339  0
C  C70  1  0.44557094  0.30244513  0.90856297  1  0  0.050122  0  3.629136  0  0  -0.009027  0  3.890491  0  0  -0.004128  0  3.902491  0  0  -0.059047  -0.011989  0  3.882019  0
C  C71  1  0.05443093  0.80244760  0.59144057  1  0  0.049872  0  3.629381  0  0  -0.009411  0  3.890859  0  0  -0.004524  0  3.902861  0  0  -0.059137  -0.01232  0  3.882306  0
C  C72  1  0.75723335  0.60270619  0.26936766  1  0  -0.406727  0  3.675943  0  0  -0.487609  0  3.915712  0  0  -0.493143  0  3.919323  0  0  -0.24467  -0.483465  0  3.91325  0
C  C73  1  0.74276757  0.10270225  0.23062933  1  0  -0.406712  0  3.675951  0  0  -0.487557  0  3.915725  0  0  -0.493089  0  3.919341  0  0  -0.244678  -0.483412  0  3.913256  0
C  C74  1  0.24277091  0.39729567  0.73063263  1  0  -0.406642  0  3.675922  0  0  -0.48751  0  3.915777  0  0  -0.493043  0  3.91936  0  0  -0.244622  -0.483361  0  3.913314  0
C  C75  1  0.25723191  0.89729754  0.76937052  1  0  -0.406638  0  3.676011  0  0  -0.487472  0  3.915835  0  0  -0.493014  0  3.919446  0  0  -0.244652  -0.483323  0  3.913365  0
C  C76  1  0.77324278  0.54653858  0.17209677  1  0  0.417995  0  3.690174  0  0  0.401268  0  3.952069  0  0  0.423922  0  3.962533  0  0  0.145892  0.385859  0  3.944983  0
C  C77  1  0.72675829  0.04654036  0.32790081  1  0  0.418008  0  3.690075  0  0  0.401277  0  3.951948  0  0  0.423934  0  3.962408  0  0  0.145927  0.385869  0  3.944864  0
C  C78  1  0.22676266  0.45345708  0.82790647  1  0  0.418184  0  3.689929  0  0  0.401398  0  3.951898  0  0  0.424052  0  3.962365  0  0  0.146043  0.385991  0  3.944804  0
C  C79  1  0.27323760  0.95345944  0.67209873  1  0  0.418061  0  3.690049  0  0  0.401282  0  3.951925  0  0  0.423936  0  3.962385  0  0  0.145985  0.385875  0  3.944834  0
C  C80  1  0.89272766  0.44561824  0.16094150  1  0  -0.495879  0  3.810609  0  0  -0.494244  0  4.083995  0  0  -0.518435  0  4.101659  0  0  -0.181382  -0.478217  0  4.072289  0
C  C81  1  0.60727114  0.94561877  0.33905899  1  0  -0.49584  0  3.810621  0  0  -0.494237  0  4.083985  0  0  -0.518429  0  4.101647  0  0  -0.181392  -0.478201  0  4.072288  0
C  C82  1  0.10727061  0.55438053  0.83906038  1  0  -0.495994  0  3.810459  0  0  -0.494329  0  4.083837  0  0  -0.518521  0  4.101502  0  0  -0.181423  -0.478294  0  4.072129  0
C  C83  1  0.39272952  0.05438206  0.66094240  1  0  -0.495872  0  3.810499  0  0  -0.494236  0  4.083894  0  0  -0.518428  0  4.10156  0  0  -0.181435  -0.478198  0  4.072191  0
C  C84  1  0.90321860  0.37768485  0.07121550  1  0  0.520374  0  3.742864  0  0  0.504717  0  4.008145  0  0  0.530528  0  4.014215  0  0  0.119382  0.487297  0  4.003481  0
C  C85  1  0.59678159  0.87769001  0.42878353  1  0  0.52033  0  3.743056  0  0  0.504745  0  4.008207  0  0  0.530559  0  4.014272  0  0  0.119322  0.487298  0  4.003576  0
C  C86  1  0.09678088  0.62231184  0.92878507  1  0  0.520341  0  3.743  0  0  0.504677  0  4.008276  0  0  0.530483  0  4.014354  0  0  0.119336  0.487242  0  4.003627  0
C  C87  1  0.40321670  0.12231289  0.57121480  1  0  0.520388  0  3.742929  0  0  0.504727  0  4.00822  0  0  0.530537  0  4.014288  0  0  0.119266  0.487279  0  4.00359  0
C  C88  1  0.01488872  0.25727422  0.06832579  1  0  -0.422753  0  3.67477  0  0  -0.503601  0  3.913534  0  0  -0.509339  0  3.916069  0  0  -0.250689  -0.499379  0  3.911773  0
C  C89  1  0.48510975  0.75727741  0.43167359  1  0  -0.422814  0  3.674619  0  0  -0.503728  0  3.913392  0  0  -0.509469  0  3.915929  0  0  -0.250753  -0.499499  0  3.91164  0
C  C90  1  0.98510837  0.74272352  0.93167314  1  0  -0.42267  0  3.674851  0  0  -0.503529  0  3.913633  0  0  -0.509266  0  3.916171  0  0  -0.250668  -0.4993  0  3.911873  0
C  C91  1  0.51489093  0.24272135  0.56832638  1  0  -0.422788  0  3.674715  0  0  -0.503686  0  3.913484  0  0  -0.509427  0  3.916024  0  0  -0.25072  -0.499454  0  3.911731  0
N  N92  1  0.67400131  0.58888383  0.09571644  1  0  -0.337087  0  3.312567  0  0  -0.271096  0  3.546591  0  0  -0.292318  0  3.559289  0  0  -0.398541  -0.257056  0  3.537808  0
N  N93  1  0.82599843  0.08888680  0.40428327  1  0  -0.337017  0  3.31256  0  0  -0.271025  0  3.546606  0  0  -0.292245  0  3.559308  0  0  -0.398548  -0.256986  0  3.537821  0
N  N94  1  0.32600055  0.41111700  0.90428577  1  0  -0.337175  0  3.312622  0  0  -0.271201  0  3.546651  0  0  -0.292424  0  3.559348  0  0  -0.398594  -0.257155  0  3.537875  0
N  N95  1  0.17399745  0.91111713  0.59571769  1  0  -0.337111  0  3.312706  0  0  -0.27104  0  3.546673  0  0  -0.292256  0  3.55937  0  0  -0.39857  -0.257008  0  3.537878  0
N  N96  1  0.61979841  0.61110283  0.72359025  1  0  0.678967  0  4.166074  0  0  0.714149  0  4.440717  0  0  0.742441  0  4.450084  0  0  0.091328  0.695043  0  4.433751  0
N  N97  1  0.88020004  0.11110087  0.77640886  1  0  0.678714  0  4.166425  0  0  0.714112  0  4.440838  0  0  0.742404  0  4.450206  0  0  0.0913  0.695005  0  4.433873  0
N  N98  1  0.38020109  0.38889903  0.27640818  1  0  0.678888  0  4.166292  0  0  0.714134  0  4.440859  0  0  0.742432  0  4.45021  0  0  0.091288  0.695028  0  4.433898  0
N  N99  1  0.11981021  0.88889790  0.22359196  1  0  0.678676  0  4.166041  0  0  0.713997  0  4.440514  0  0  0.742306  0  4.44983  0  0  0.091328  0.694896  0  4.433548  0
O  O100  1  0.81656921  0.41463801  0.99316532  1  0  -0.573876  0  2.058323  0  0  -0.504352  0  2.299842  0  0  -0.529999  0  2.291517  0  0  -0.30658  -0.486803  0  2.305205  0
O  O101  1  0.68343563  0.91463869  0.50683369  1  0  -0.573857  0  2.058483  0  0  -0.504323  0  2.299906  0  0  -0.52997  0  2.291582  0  0  -0.306479  -0.486763  0  2.30528  0
O  O102  1  0.18343147  0.58536282  0.00683393  1  0  -0.573864  0  2.058472  0  0  -0.504326  0  2.299975  0  0  -0.52997  0  2.291651  0  0  -0.306555  -0.486775  0  2.30535  0
O  O103  1  0.31656146  0.08536318  0.49316666  1  0  -0.573827  0  2.05842  0  0  -0.504302  0  2.299905  0  0  -0.529943  0  2.291582  0  0  -0.306432  -0.486753  0  2.305292  0
O  O104  1  0.48263790  0.66303697  0.69745554  1  0  -0.471193  0  1.776244  0  0  -0.452896  0  1.997107  0  0  -0.470536  0  1.99072  0  0  -0.194509  -0.440319  0  2.000929  0
O  O105  1  0.01736078  0.16303602  0.80254381  1  0  -0.471141  0  1.77631  0  0  -0.4529  0  1.997096  0  0  -0.47054  0  1.990709  0  0  -0.194519  -0.440323  0  2.000919  0
O  O106  1  0.51736159  0.33696386  0.30254360  1  0  -0.471172  0  1.776267  0  0  -0.452903  0  1.997126  0  0  -0.470543  0  1.990735  0  0  -0.194499  -0.440325  0  2.00095  0
O  O107  1  0.98265062  0.83695757  0.19746211  1  0  -0.471071  0  1.776207  0  0  -0.452864  0  1.99707  0  0  -0.470507  0  1.99068  0  0  -0.194518  -0.440286  0  2.000891  0
O  O108  1  0.74453071  0.68314304  0.71831710  1  0  -0.475252  0  1.806318  0  0  -0.453924  0  2.042599  0  0  -0.471599  0  2.033306  0  0  -0.194876  -0.441487  0  2.048686  0
O  O109  1  0.75546756  0.18314347  0.78168075  1  0  -0.475151  0  1.806337  0  0  -0.453908  0  2.042564  0  0  -0.471583  0  2.033273  0  0  -0.194871  -0.441471  0  2.048653  0
O  O110  1  0.25546878  0.31685882  0.28168204  1  0  -0.475201  0  1.806297  0  0  -0.45391  0  2.042564  0  0  -0.471586  0  2.033273  0  0  -0.19486  -0.441472  0  2.048654  0
O  O111  1  0.24454754  0.81686769  0.21831338  1  0  -0.475121  0  1.806034  0  0  -0.453844  0  2.042295  0  0  -0.471522  0  2.033003  0  0  -0.194859  -0.44141  0  2.048383  0
O  O112  1  0.63213746  0.48794167  0.75506212  1  0  -0.457372  0  1.829009  0  0  -0.431725  0  2.06382  0  0  -0.449906  0  2.054808  0  0  -0.189463  -0.418959  0  2.069438  0
O  O113  1  0.86786000  0.98794004  0.74493712  1  0  -0.457242  0  1.829144  0  0  -0.431696  0  2.063903  0  0  -0.449873  0  2.054887  0  0  -0.189437  -0.418927  0  2.069519  0
O  O114  1  0.36786202  0.51206020  0.24493774  1  0  -0.457335  0  1.829116  0  0  -0.431711  0  2.063908  0  0  -0.449891  0  2.054895  0  0  -0.189437  -0.418942  0  2.069525  0
O  O115  1  0.13214187  0.01205976  0.25506366  1  0  -0.457261  0  1.829107  0  0  -0.431677  0  2.063855  0  0  -0.449854  0  2.054828  0  0  -0.189474  -0.418912  0  2.069473  0
