# generated using pymatgen
data_ZnH13C20N4ClO3
_symmetry_space_group_name_H-M   'P 1'
_cell_length_a   6.85790485
_cell_length_b   9.27184854
_cell_length_c   13.21605450
_cell_angle_alpha   90.94612209
_cell_angle_beta   89.99998100
_cell_angle_gamma   89.99966609
_symmetry_Int_Tables_number   1
_chemical_formula_structural   ZnH13C20N4ClO3
_chemical_formula_sum   'Zn2 H26 C40 N8 Cl2 O6'
_cell_volume   840.23427006
_cell_formula_units_Z   2
loop_
 _symmetry_equiv_pos_site_id
 _symmetry_equiv_pos_as_xyz
  1  'x, y, z'
loop_
 _atom_site_type_symbol
 _atom_site_label
 _atom_site_symmetry_multiplicity
 _atom_site_fract_x
 _atom_site_fract_y
 _atom_site_fract_z
 _atom_site_occupancy
 _atom_site_hle17_bader_spin_density
 _atom_site_hle17_ddec_charge
 _atom_site_hle17_ddec_spin_density
 _atom_site_hle17_ddec_sum_bond_order
 _atom_site_hle17_magmom
 _atom_site_hse06_10hf_bader_spin_density
 _atom_site_hse06_10hf_ddec_charge
 _atom_site_hse06_10hf_ddec_spin_density
 _atom_site_hse06_10hf_ddec_sum_bond_order
 _atom_site_hse06_10hf_magmom
 _atom_site_hse06_bader_spin_density
 _atom_site_hse06_ddec_charge
 _atom_site_hse06_ddec_spin_density
 _atom_site_hse06_ddec_sum_bond_order
 _atom_site_hse06_magmom
 _atom_site_pbe_bader_spin_density
 _atom_site_pbe_cm5_charge
 _atom_site_pbe_ddec_charge
 _atom_site_pbe_ddec_spin_density
 _atom_site_pbe_ddec_sum_bond_order
 _atom_site_pbe_magmom
Zn  Zn0  1  0.61115547  0.50395779  0.20654724  1  0  0.985896  0  1.904656  0  0  0.8098  0  2.370534  0  0  0.855539  0  2.316446  0  0  0.625719  0.777013  0  2.408662  0
Zn  Zn1  1  0.11115714  0.49604217  0.79345338  1  0  0.985883  0  1.904676  0  0  0.809785  0  2.370558  0  0  0.85552  0  2.316473  0  0  0.625711  0.776996  0  2.408688  0
H  H2  1  0.08789439  0.67645567  0.26321530  1  0  0.299512  0  0.948045  0  0  0.279849  0  1.016248  0  0  0.287965  0  1.009771  0  0  0.279418  0.274075  0  1.021026  0
H  H3  1  0.58789673  0.32354334  0.73678229  1  0  0.299459  0  0.948125  0  0  0.279779  0  1.016342  0  0  0.287897  0  1.009866  0  0  0.279427  0.274012  0  1.021115  0
H  H4  1  0.14252695  0.82039593  0.87322700  1  0  0.087127  0  0.945364  0  0  0.096018  0  1.009893  0  0  0.098316  0  1.008181  0  0  0.120562  0.09423  0  1.01128  0
H  H5  1  0.64252057  0.17960280  0.12677360  1  0  0.087122  0  0.945379  0  0  0.096012  0  1.00991  0  0  0.098309  0  1.008198  0  0  0.12057  0.094226  0  1.011294  0
H  H6  1  0.21477795  0.05996158  0.79466597  1  0  0.114101  0  0.937525  0  0  0.124263  0  0.994893  0  0  0.127375  0  0.994242  0  0  0.111297  0.121877  0  0.995868  0
H  H7  1  0.71477580  0.94003687  0.20533235  1  0  0.114109  0  0.937474  0  0  0.1242  0  0.994941  0  0  0.12731  0  0.994293  0  0  0.111273  0.121815  0  0.995912  0
H  H8  1  0.23133986  0.07311711  0.60498497  1  0  0.102864  0  0.947121  0  0  0.114643  0  1.007214  0  0  0.117225  0  1.005549  0  0  0.11118  0.11333  0  1.007073  0
H  H9  1  0.73133916  0.92688127  0.39501333  1  0  0.102862  0  0.947147  0  0  0.114636  0  1.007242  0  0  0.117217  0  1.005578  0  0  0.111176  0.113315  0  1.00711  0
H  H10  1  0.09598963  0.43256652  0.34040371  1  0  0.10608  0  0.945793  0  0  0.117044  0  1.00672  0  0  0.120299  0  1.003918  0  0  0.103351  0.114515  0  1.009162  0
H  H11  1  0.59598573  0.56743027  0.65959610  1  0  0.106072  0  0.945775  0  0  0.117054  0  1.006684  0  0  0.120309  0  1.00388  0  0  0.103346  0.114526  0  1.009128  0
H  H12  1  0.08472317  0.21013084  0.44775930  1  0  0.107873  0  0.977802  0  0  0.109603  0  1.053165  0  0  0.113934  0  1.050676  0  0  0.103695  0.108202  0  1.052813  0
H  H13  1  0.58472053  0.78986813  0.55224282  1  0  0.107864  0  0.977781  0  0  0.109595  0  1.053161  0  0  0.11393  0  1.050664  0  0  0.103691  0.108192  0  1.05281  0
H  H14  1  0.05365519  0.24246295  0.63649412  1  0  0.085091  0  0.961482  0  0  0.092687  0  1.027514  0  0  0.095413  0  1.024774  0  0  0.117574  0.091029  0  1.028559  0
H  H15  1  0.55365874  0.75753617  0.36350725  1  0  0.085111  0  0.96153  0  0  0.092746  0  1.027499  0  0  0.09547  0  1.02476  0  0  0.117577  0.091086  0  1.028542  0
H  H16  1  0.08984744  0.15859082  0.28431745  1  0  0.089796  0  0.969087  0  0  0.101701  0  1.030483  0  0  0.104252  0  1.02997  0  0  0.09896  0.099639  0  1.031317  0
H  H17  1  0.58985012  0.84141140  0.71568170  1  0  0.089841  0  0.969076  0  0  0.101761  0  1.030457  0  0  0.104284  0  1.029979  0  0  0.098987  0.0997  0  1.031285  0
H  H18  1  0.13610886  0.30441850  0.13046769  1  0  0.101305  0  0.969571  0  0  0.108797  0  1.034446  0  0  0.111981  0  1.032474  0  0  0.091944  0.106236  0  1.036434  0
H  H19  1  0.63610967  0.69558348  0.86953448  1  0  0.101277  0  0.96959  0  0  0.108769  0  1.034468  0  0  0.111953  0  1.032497  0  0  0.091949  0.106205  0  1.036455  0
H  H20  1  0.28023615  0.18998053  0.97544604  1  0  0.097299  0  0.93811  0  0  0.10726  0  0.99818  0  0  0.110387  0  0.99667  0  0  0.101275  0.104671  0  1.000232  0
H  H21  1  0.78023659  0.81002298  0.02455613  1  0  0.097287  0  0.938115  0  0  0.107304  0  0.998132  0  0  0.110434  0  0.996617  0  0  0.101272  0.104703  0  1.000187  0
H  H22  1  0.36373400  0.92805093  0.97584240  1  0  0.089357  0  0.984584  0  0  0.098572  0  1.050369  0  0  0.100817  0  1.050626  0  0  0.099168  0.097005  0  1.050054  0
H  H23  1  0.86373727  0.07195223  0.02415824  1  0  0.089383  0  0.984546  0  0  0.098556  0  1.050375  0  0  0.100801  0  1.050632  0  0  0.099174  0.096988  0  1.050062  0
H  H24  1  0.60217216  0.39446524  0.02189509  1  0  0.435063  0  0.860283  0  0  0.401795  0  0.927669  0  0  0.412534  0  0.912139  0  0  0.29132  0.394032  0  0.938932  0
H  H25  1  0.10216849  0.60553690  0.97810633  1  0  0.434996  0  0.860355  0  0  0.401716  0  0.927767  0  0  0.412454  0  0.912239  0  0  0.291284  0.393953  0  0.939031  0
H  H26  1  0.43223204  0.51398606  0.04270836  1  0  0.42048  0  0.887661  0  0  0.386229  0  0.956238  0  0  0.398148  0  0.939116  0  0  0.283661  0.378045  0  0.967964  0
H  H27  1  0.93223005  0.48601466  0.95729147  1  0  0.420496  0  0.887656  0  0  0.386187  0  0.956317  0  0  0.398105  0  0.939198  0  0  0.283629  0.378002  0  0.968045  0
C  C28  1  0.14851709  0.83177674  0.79140338  1  0  0.154797  0  3.674664  0  0  0.119281  0  3.930449  0  0  0.127236  0  3.94795  0  0  0.060891  0.113953  0  3.918539  0
C  C29  1  0.64851367  0.16822198  0.20859646  1  0  0.154762  0  3.674708  0  0  0.11927  0  3.930454  0  0  0.127226  0  3.947957  0  0  0.060898  0.113942  0  3.918543  0
C  C30  1  0.18852589  0.96515039  0.74692650  1  0  -0.106824  0  3.711558  0  0  -0.121213  0  3.973904  0  0  -0.127282  0  3.993875  0  0  -0.076382  -0.117438  0  3.96154  0
C  C31  1  0.68852494  0.03484817  0.25307257  1  0  -0.10675  0  3.711474  0  0  -0.121099  0  3.973805  0  0  -0.127167  0  3.993776  0  0  -0.076365  -0.117325  0  3.961433  0
C  C32  1  0.19409902  0.97338290  0.64255614  1  0  -0.020043  0  3.652286  0  0  -0.051561  0  3.908939  0  0  -0.04786  0  3.924038  0  0  -0.060664  -0.054003  0  3.898417  0
C  C33  1  0.69409661  0.02661454  0.35744367  1  0  -0.020154  0  3.65231  0  0  -0.051654  0  3.908927  0  0  -0.047949  0  3.924024  0  0  -0.060694  -0.054088  0  3.898403  0
C  C34  1  0.15414563  0.84977725  0.58281776  1  0  -0.0117  0  3.771751  0  0  0.002202  0  4.005053  0  0  0.000384  0  4.026562  0  0  0.005681  0.002593  0  3.99062  0
C  C35  1  0.65414222  0.15022037  0.41718206  1  0  -0.011614  0  3.771809  0  0  0.002294  0  4.005116  0  0  0.000468  0  4.026621  0  0  0.005734  0.002682  0  3.990683  0
C  C36  1  0.15065920  0.84450365  0.47444425  1  0  0.097656  0  3.84063  0  0  0.090798  0  4.101047  0  0  0.092634  0  4.123896  0  0  0.086573  0.08996  0  4.084869  0
C  C37  1  0.65065422  0.15549292  0.52555404  1  0  0.097592  0  3.840489  0  0  0.09076  0  4.100963  0  0  0.092611  0  4.123788  0  0  0.086578  0.089921  0  4.084786  0
C  C38  1  0.11635624  0.71325733  0.42248762  1  0  0.097771  0  3.799352  0  0  0.079562  0  4.054778  0  0  0.08172  0  4.078802  0  0  0.090063  0.078288  0  4.038383  0
C  C39  1  0.61635459  0.28674046  0.57751145  1  0  0.097932  0  3.799194  0  0  0.079601  0  4.054784  0  0  0.081761  0  4.078806  0  0  0.090159  0.078328  0  4.038391  0
C  C40  1  0.09636960  0.57795051  0.47100951  1  0  -0.029137  0  3.786898  0  0  -0.015137  0  4.024644  0  0  -0.018222  0  4.048322  0  0  -0.00104  -0.01364  0  4.008477  0
C  C41  1  0.59636838  0.42204955  0.52898809  1  0  -0.029176  0  3.786904  0  0  -0.015159  0  4.024697  0  0  -0.018243  0  4.048374  0  0  -0.001084  -0.013662  0  4.008533  0
C  C42  1  0.09173608  0.44069971  0.42289180  1  0  -0.026698  0  3.649742  0  0  -0.056925  0  3.905359  0  0  -0.05335  0  3.921416  0  0  -0.06723  -0.059063  0  3.895315  0
C  C43  1  0.59173814  0.55929926  0.57710805  1  0  -0.026693  0  3.649773  0  0  -0.056931  0  3.905392  0  0  -0.053354  0  3.921448  0  0  -0.067193  -0.059072  0  3.895352  0
C  C44  1  0.08250778  0.31839778  0.48142891  1  0  -0.12319  0  3.725741  0  0  -0.137427  0  3.992129  0  0  -0.144119  0  4.011785  0  0  -0.086331  -0.134093  0  3.97892  0
C  C45  1  0.58250745  0.68160230  0.51857097  1  0  -0.123126  0  3.725715  0  0  -0.137377  0  3.99208  0  0  -0.144071  0  4.011735  0  0  -0.086318  -0.134043  0  3.97887  0
C  C46  1  0.07151307  0.33422791  0.58706269  1  0  0.144329  0  3.683681  0  0  0.106103  0  3.94526  0  0  0.115419  0  3.960017  0  0  0.048665  0.099934  0  3.934806  0
C  C47  1  0.57151294  0.66577332  0.41293645  1  0  0.144263  0  3.68377  0  0  0.106036  0  3.945294  0  0  0.115352  0  3.960052  0  0  0.048634  0.09987  0  3.934835  0
C  C48  1  0.12018532  0.71867232  0.63404816  1  0  0.121883  0  3.764024  0  0  0.111253  0  4.005017  0  0  0.114795  0  4.027797  0  0  0.113061  0.109147  0  3.989445  0
C  C49  1  0.62018383  0.28132652  0.36595244  1  0  0.121802  0  3.763967  0  0  0.111148  0  4.005003  0  0  0.114694  0  4.027782  0  0  0.11303  0.109043  0  3.989431  0
C  C50  1  0.09579503  0.58337870  0.57866692  1  0  0.12657  0  3.77799  0  0  0.118123  0  4.019152  0  0  0.122302  0  4.042214  0  0  0.113928  0.115738  0  4.003051  0
C  C51  1  0.59579537  0.41662350  0.42133223  1  0  0.12662  0  3.778042  0  0  0.118209  0  4.019154  0  0  0.122384  0  4.042216  0  0  0.113943  0.115823  0  4.003053  0
C  C52  1  0.17386295  0.88895025  0.31480818  1  0  0.343619  0  3.736801  0  0  0.313419  0  4.012172  0  0  0.327294  0  4.026407  0  0  0.222524  0.30364  0  4.00407  0
C  C53  1  0.67386406  0.11105054  0.68519018  1  0  0.343707  0  3.736613  0  0  0.313491  0  4.011988  0  0  0.327374  0  4.026222  0  0  0.222531  0.303699  0  4.003912  0
C  C54  1  0.20352773  0.96270786  0.21886121  1  0  -0.027279  0  3.767389  0  0  -0.015765  0  4.000868  0  0  -0.017049  0  4.0238  0  0  -0.006779  -0.015007  0  3.986318  0
C  C55  1  0.70352644  0.03729170  0.78113864  1  0  -0.027275  0  3.767367  0  0  -0.015756  0  4.000846  0  0  -0.017049  0  4.023787  0  0  -0.006769  -0.014997  0  3.986305  0
C  C56  1  0.15202553  0.10955523  0.21625013  1  0  -0.094055  0  3.739969  0  0  -0.115596  0  3.988705  0  0  -0.118001  0  4.009986  0  0  -0.088362  -0.113782  0  3.974653  0
C  C57  1  0.65202779  0.89044885  0.78375132  1  0  -0.094176  0  3.7401  0  0  -0.115736  0  3.988841  0  0  -0.118116  0  4.010133  0  0  -0.088436  -0.113918  0  3.974788  0
C  C58  1  0.17766426  0.19105373  0.12990271  1  0  -0.050596  0  3.743726  0  0  -0.06786  0  4.000172  0  0  -0.068325  0  4.018701  0  0  -0.088785  -0.067326  0  3.987662  0
C  C59  1  0.67766273  0.80894917  0.87009796  1  0  -0.05045  0  3.743614  0  0  -0.067719  0  4.000089  0  0  -0.068182  0  4.01861  0  0  -0.088716  -0.067183  0  3.987573  0
C  C60  1  0.25497679  0.12602907  0.04274079  1  0  -0.048313  0  3.73585  0  0  -0.063309  0  3.990435  0  0  -0.064655  0  4.00968  0  0  -0.084427  -0.062669  0  3.977532  0
C  C61  1  0.75497615  0.87397347  0.95726137  1  0  -0.048349  0  3.735796  0  0  -0.063391  0  3.99038  0  0  -0.064741  0  4.009631  0  0  -0.08443  -0.062738  0  3.977459  0
C  C62  1  0.30146579  0.97986114  0.04286686  1  0  -0.090656  0  3.753631  0  0  -0.113306  0  4.002979  0  0  -0.115254  0  4.025753  0  0  -0.089282  -0.110925  0  3.986688  0
C  C63  1  0.80146598  0.02014124  0.95713227  1  0  -0.09066  0  3.753607  0  0  -0.113277  0  4.002985  0  0  -0.115227  0  4.025766  0  0  -0.089286  -0.110892  0  3.986687  0
C  C64  1  0.27904817  0.89629923  0.12969376  1  0  -0.084849  0  3.69053  0  0  -0.069138  0  3.926726  0  0  -0.07538  0  3.948198  0  0  -0.013924  -0.065804  0  3.912927  0
C  C65  1  0.77904776  0.10370000  0.87030607  1  0  -0.084929  0  3.690465  0  0  -0.069219  0  3.926655  0  0  -0.075458  0  3.94813  0  0  -0.013956  -0.065885  0  3.912862  0
C  C66  1  0.35626331  0.74390754  0.12096548  1  0  0.662902  0  3.881328  0  0  0.605925  0  4.184791  0  0  0.640766  0  4.176082  0  0  0.212042  0.582474  0  4.189702  0
C  C67  1  0.85626316  0.25609136  0.87903357  1  0  0.662931  0  3.881106  0  0  0.605978  0  4.184533  0  0  0.640817  0  4.175824  0  0  0.212067  0.582529  0  4.189446  0
N  N68  1  0.11856382  0.71233530  0.73635080  1  0  -0.345215  0  3.287547  0  0  -0.271959  0  3.554295  0  0  -0.289918  0  3.571054  0  0  -0.318442  -0.259264  0  3.542607  0
N  N69  1  0.61856089  0.28766356  0.26364829  1  0  -0.345182  0  3.287525  0  0  -0.271944  0  3.554298  0  0  -0.289905  0  3.571055  0  0  -0.318469  -0.259251  0  3.542611  0
N  N70  1  0.07975560  0.46241895  0.63391657  1  0  -0.348559  0  3.30001  0  0  -0.276376  0  3.573477  0  0  -0.29397  0  3.588007  0  0  -0.321965  -0.264268  0  3.563473  0
N  N71  1  0.57975649  0.53757791  0.36608325  1  0  -0.348603  0  3.300023  0  0  -0.276427  0  3.573468  0  0  -0.29402  0  3.587993  0  0  -0.321971  -0.264321  0  3.563463  0
N  N72  1  0.18577010  0.95257075  0.40683717  1  0  -0.438295  0  2.924763  0  0  -0.411626  0  3.199274  0  0  -0.425609  0  3.213701  0  0  -0.334703  -0.402425  0  3.18852  0
N  N73  1  0.68576593  0.04742779  0.59316417  1  0  -0.438312  0  2.924671  0  0  -0.411628  0  3.199186  0  0  -0.425623  0  3.21362  0  0  -0.334693  -0.40242  0  3.188436  0
N  N74  1  0.12999588  0.74519607  0.32200233  1  0  -0.363051  0  3.409731  0  0  -0.303067  0  3.636379  0  0  -0.320867  0  3.651554  0  0  -0.376521  -0.291497  0  3.626779  0
N  N75  1  0.62999442  0.25480599  0.67799606  1  0  -0.363044  0  3.409942  0  0  -0.302994  0  3.636638  0  0  -0.320809  0  3.651828  0  0  -0.376568  -0.291425  0  3.627044  0
Cl  Cl76  1  0.93319685  0.54063452  0.17017050  1  0  -0.560254  0  0.980435  0  0  -0.502196  0  1.250449  0  0  -0.517127  0  1.225709  0  0  -0.272368  -0.490997  0  1.268591  0
Cl  Cl77  1  0.43319586  0.45936404  0.82982929  1  0  -0.56024  0  0.980431  0  0  -0.502182  0  1.250461  0  0  -0.517113  0  1.225721  0  0  -0.272371  -0.490985  0  1.2686  0
O  O78  1  0.46847119  0.70149634  0.19202760  1  0  -0.6454  0  2.068018  0  0  -0.579166  0  2.341013  0  0  -0.606869  0  2.327916  0  0  -0.322418  -0.558728  0  2.349307  0
O  O79  1  0.96847368  0.29850315  0.80797145  1  0  -0.645402  0  2.06795  0  0  -0.579183  0  2.340939  0  0  -0.606881  0  2.32784  0  0  -0.322423  -0.558742  0  2.349235  0
O  O80  1  0.31424495  0.67133377  0.04179201  1  0  -0.630874  0  2.023083  0  0  -0.565959  0  2.244129  0  0  -0.592287  0  2.235322  0  0  -0.305607  -0.547631  0  2.249759  0
O  O81  1  0.81424711  0.32866748  0.95820709  1  0  -0.630934  0  2.022995  0  0  -0.566012  0  2.244039  0  0  -0.592339  0  2.235234  0  0  -0.305644  -0.54768  0  2.249667  0
O  O82  1  0.50269703  0.42859278  0.07113669  1  0  -0.826366  0  1.970761  0  0  -0.757321  0  2.189426  0  0  -0.780564  0  2.153806  0  0  -0.577318  -0.74105  0  2.214678  0
O  O83  1  0.00269365  0.57140873  0.92886322  1  0  -0.82632  0  1.970758  0  0  -0.757217  0  2.189459  0  0  -0.780456  0  2.153848  0  0  -0.577254  -0.740943  0  2.21471  0
