# generated using pymatgen
data_Zn6H23C62I4(O8F3)3
_symmetry_space_group_name_H-M   'P 1'
_cell_length_a   18.79993060
_cell_length_b   18.84702523
_cell_length_c   18.47142257
_cell_angle_alpha   108.86742290
_cell_angle_beta   109.07754879
_cell_angle_gamma   109.93076554
_symmetry_Int_Tables_number   1
_chemical_formula_structural   Zn6H23C62I4(O8F3)3
_chemical_formula_sum   'Zn6 H23 C62 I4 O24 F9'
_cell_volume   5071.02689512
_cell_formula_units_Z   1
loop_
 _symmetry_equiv_pos_site_id
 _symmetry_equiv_pos_as_xyz
  1  'x, y, z'
loop_
 _atom_site_type_symbol
 _atom_site_label
 _atom_site_symmetry_multiplicity
 _atom_site_fract_x
 _atom_site_fract_y
 _atom_site_fract_z
 _atom_site_occupancy
 _atom_site_pbe_bader_charge
 _atom_site_pbe_bader_spin_density
 _atom_site_pbe_cm5_charge
 _atom_site_pbe_ddec_charge
 _atom_site_pbe_ddec_spin_density
 _atom_site_pbe_ddec_sum_bond_order
 _atom_site_pbe_magmom
Zn  Zn0  1  0.44261673  0.94019657  0.00257246  1  1.313188  0  0.725958  0.95283  0  2.177765  0
Zn  Zn1  1  0.56572504  0.06685321  0.00109864  1  1.309614  0  0.726232  0.959038  0  2.09785  0
Zn  Zn2  1  0.00070345  0.05667846  0.56180998  1  1.312303  0  0.727669  0.960203  0  2.138332  0
Zn  Zn3  1  0.99801979  0.93425116  0.43150673  1  1.310444  0  0.726942  0.95679  0  2.128048  0
Zn  Zn4  1  0.43660001  0.50459145  0.43978479  1  1.306242  0  0.730814  0.963543  0  2.101384  0
Zn  Zn5  1  0.56548495  0.50500811  0.56382320  1  1.313365  0  0.726562  0.964344  0  2.125708  0
H  H6  1  0.39725355  0.57684440  0.73322029  1  0.044165  0  0.09568  0.103346  0  0.992978  0
H  H7  1  0.34270863  0.71587296  0.75639935  1  0.040481  0  0.096601  0.108222  0  0.983616  0
H  H8  1  0.39966125  0.70010406  0.84286022  1  0.065162  0  0.093891  0.104588  0  1.000998  0
H  H9  1  0.72021340  0.13219390  0.28196636  1  0.081355  0  0.108023  0.113037  0  0.985423  0
H  H10  1  0.84016071  0.14811362  0.40572180  1  0.105551  0  0.110915  0.115918  0  0.983887  0
H  H11  1  0.74929295  0.82034704  0.20551343  1  0.081833  0  0.101141  0.126371  0  0.978606  0
H  H12  1  0.69281671  0.80104773  0.26453110  1  0.070166  0  0.100044  0.11985  0  0.981613  0
H  H13  1  0.56220067  0.78653467  0.14921959  1  0.108234  0  0.106495  0.111232  0  0.966978  0
H  H14  1  0.64618078  0.31875788  0.22689550  1  0.113714  0  0.125291  0.153117  0  0.964685  0
H  H15  1  0.26831388  0.81618182  0.76811470  1  0.070391  0  0.105621  0.116506  0  1.018276  0
H  H16  1  0.39845961  0.05441873  0.21008110  1  0.104128  0  0.106758  0.082498  0  0.961516  0
H  H17  1  0.11613690  0.10877581  0.33008234  1  0.138577  0  0.123753  0.154217  0  0.964213  0
H  H18  1  0.43211404  0.35914524  0.67257190  1  0.087428  0  0.111381  0.153134  0  0.954421  0
H  H19  1  0.37365000  0.41646737  0.68413300  1  0.078357  0  0.105227  0.139867  0  0.976225  0
H  H20  1  0.13969636  0.67994239  0.63846485  1  0.08884  0  0.117442  0.137878  0  0.969622  0
H  H21  1  0.83521456  0.69128080  0.43614962  1  0.09091  0  0.108565  0.115516  0  0.993969  0
H  H22  1  0.71559409  0.59228578  0.44460274  1  0.102601  0  0.103725  0.114981  0  1.0092  0
H  H23  1  0.61339537  0.82379956  0.52061877  1  0.096642  0  0.097276  0.098435  0  0.993746  0
H  H24  1  0.68220473  0.88478339  0.40985860  1  0.07848  0  0.092946  0.113465  0  1.00186  0
H  H25  1  0.74325913  0.93061588  0.52623118  1  0.072147  0  0.104094  0.128183  0  0.964645  0
H  H26  1  0.23521856  0.12342565  0.78496305  1  0.130011  0  0.125314  0.154286  0  0.964484  0
H  H27  1  0.66585352  0.92853572  0.84306407  1  0.124399  0  0.10915  0.126609  0  0.990563  0
H  H28  1  0.34247500  0.59428357  0.64693993  1  0.079097  0  0.099629  0.111987  0  0.975815  0
C  C29  1  0.54201595  0.91753130  0.89629210  1  1.541615  0  0.220772  0.610114  0  4.139503  0
C  C30  1  0.22007226  0.89977274  0.74206128  1  0.032247  0  0.004573  0.090673  0  3.962922  0
C  C31  1  0.29253935  0.97843539  0.81792866  1  0.096914  0  -0.01509  -0.180226  0  3.915407  0
C  C32  1  0.29389517  0.05549310  0.83147496  1  0.430324  0  0.110466  0.284224  0  4.05854  0
C  C33  1  0.22881300  0.06037917  0.77250412  1  0.053874  0  -0.079555  -0.204937  0  3.956973  0
C  C34  1  0.15883091  0.98589899  0.69765990  1  0.00449  0  0.000317  -0.012726  0  3.912248  0
C  C35  1  0.48135560  0.76209700  0.79426314  1  0.00156  0  -0.004897  0.066388  0  3.893482  0
C  C36  1  0.54674349  0.84786607  0.83495852  1  0.021118  0  -0.014603  -0.070517  0  3.980713  0
C  C37  1  0.61369004  0.86240719  0.81316966  1  -0.0007  0  -0.085314  -0.131134  0  3.950786  0
C  C38  1  0.61371458  0.79351006  0.75384088  1  -0.2289  0  -0.042255  0.0327  0  3.892588  0
C  C39  1  0.54702579  0.70677354  0.71243276  1  0.000563  0  -0.010641  -0.082798  0  3.942927  0
C  C40  1  0.36467680  0.97858584  0.88390415  1  1.558051  0  0.228426  0.638233  0  4.118492  0
C  C41  1  0.48142139  0.69442850  0.73454376  1  -0.017343  0  -0.008855  0.054898  0  3.892996  0
C  C42  1  0.39505113  0.62627211  0.71480500  1  -0.053551  0  -0.150071  -0.195217  0  3.861981  0
C  C43  1  0.39562857  0.70329987  0.78343915  1  -0.00838  0  -0.150418  -0.192637  0  3.869958  0
C  C44  1  0.66511286  0.92259839  0.20805858  1  -0.041856  0  -0.013554  0.016818  0  3.923774  0
C  C45  1  0.65783416  0.99329834  0.20697664  1  0.020354  0  -0.00662  -0.043533  0  3.957372  0
C  C46  1  0.72296581  0.07487113  0.28033111  1  -0.049114  0  -0.079962  -0.097808  0  3.97043  0
C  C47  1  0.79124361  0.08399052  0.34968138  1  -0.024993  0  -0.07725  -0.09506  0  3.972296  0
C  C48  1  0.80137539  0.01257670  0.34668355  1  0.035785  0  -0.009404  -0.064485  0  3.967006  0
C  C49  1  0.73654399  0.93198705  0.27403610  1  -0.047193  0  0.0001  0.072104  0  3.878393  0
C  C50  1  0.70738565  0.83613571  0.22923376  1  -0.023118  0  -0.150662  -0.224698  0  3.843276  0
C  C51  1  0.52748385  0.14274497  0.11810937  1  1.562818  0  0.222163  0.603744  0  4.151729  0
C  C52  1  0.62523507  0.82610711  0.15702007  1  -0.139147  0  -0.088529  -0.026814  0  3.717089  0
C  C53  1  0.46790950  0.18187973  0.21840288  1  -0.03342  0  -0.006876  0.000803  0  3.904702  0
C  C54  1  0.53056760  0.20710228  0.19316608  1  0.067488  0  0.000736  -0.014565  0  3.950466  0
C  C55  1  0.59565060  0.29441365  0.24339859  1  0.013305  0  -0.072586  -0.196927  0  3.915235  0
C  C56  1  0.59640253  0.35108358  0.31506387  1  0.441942  0  0.115651  0.27315  0  4.013578  0
C  C57  1  0.53362400  0.32736997  0.34068868  1  0.095159  0  -0.000921  -0.110928  0  3.912685  0
C  C58  1  0.46902529  0.24055648  0.28825569  1  -0.006028  0  -0.013364  -0.024598  0  3.962334  0
C  C59  1  0.38765684  0.17331127  0.27616417  1  0.489256  0  0.078745  0.199997  0  3.784695  0
C  C60  1  0.38857507  0.10490241  0.19878833  1  0.568351  0  0.029669  0.097602  0  3.875181  0
C  C61  1  0.11383737  0.09024514  0.47275731  1  1.570907  0  0.227496  0.611636  0  4.130652  0
C  C62  1  0.59092765  0.98591504  0.12997253  1  1.545993  0  0.218506  0.607411  0  4.152149  0
C  C63  1  0.10102798  0.99854834  0.63091449  1  1.567397  0  0.224484  0.611154  0  4.135364  0
C  C64  1  0.87212065  0.85279563  0.45653372  1  1.545978  0  0.219783  0.611402  0  4.14988  0
C  C65  1  0.88012761  0.02237341  0.41283763  1  1.55637  0  0.219731  0.611488  0  4.147979  0
C  C66  1  0.58478121  0.60892377  0.46030742  1  1.534461  0  0.222138  0.611956  0  4.13811  0
C  C67  1  0.53873946  0.63053327  0.64358540  1  1.589196  0  0.221878  0.624824  0  4.149853  0
C  C68  1  0.36541916  0.38452836  0.47883123  1  1.568474  0  0.224899  0.635053  0  4.135348  0
C  C69  1  0.53024609  0.39084282  0.41164023  1  1.614005  0  0.222234  0.626474  0  4.157078  0
C  C70  1  0.24934526  0.23480882  0.54916582  1  0.00275  0  -0.026578  -0.137963  0  3.911978  0
C  C71  1  0.17847966  0.16206715  0.47158883  1  0.060117  0  0.006827  0.028537  0  3.950471  0
C  C72  1  0.16929500  0.16330431  0.39368509  1  0.017062  0  -0.08511  -0.230902  0  3.935193  0
C  C73  1  0.21539524  0.81857010  0.72391233  1  -0.009655  0  -0.09215  -0.121339  0  3.988618  0
C  C74  1  0.22694910  0.23582652  0.39628357  1  0.4674  0  0.117887  0.291075  0  4.032402  0
C  C75  1  0.30015145  0.30861990  0.47414731  1  0.069938  0  -0.01793  -0.185329  0  3.952461  0
C  C76  1  0.30944023  0.30356133  0.55008586  1  -0.038227  0  0.005112  0.126101  0  3.92819  0
C  C77  1  0.36770762  0.35346477  0.64924403  1  -0.02767  0  -0.153153  -0.348821  0  3.828088  0
C  C78  1  0.29861090  0.27694130  0.64842090  1  1.117657  0  0.203559  0.514491  0  3.906516  0
C  C79  1  0.72821986  0.80254371  0.45164517  1  -0.017563  0  -0.004367  0.065551  0  3.889425  0
C  C80  1  0.79403491  0.78626355  0.44727999  1  0.010115  0  -0.009825  -0.064926  0  3.970334  0
C  C81  1  0.78538583  0.70679311  0.44022417  1  0.026913  0  -0.076309  -0.087297  0  3.954056  0
C  C82  1  0.71740707  0.65050747  0.44407598  1  -0.063079  0  -0.080191  -0.096001  0  3.951499  0
C  C83  1  0.65110687  0.66739007  0.44881044  1  0.014719  0  -0.007278  -0.046719  0  3.955017  0
C  C84  1  0.14404314  0.74256448  0.65277194  1  0.018775  0  -0.094197  -0.179598  0  4.051797  0
C  C85  1  0.65703475  0.74329342  0.44926285  1  -0.024304  0  -0.015443  0.015949  0  3.917893  0
C  C86  1  0.61991711  0.80276040  0.46167778  1  -0.137409  0  -0.091082  -0.023486  0  3.71226  0
C  C87  1  0.69963814  0.86977729  0.46360038  1  -0.03392  0  -0.153101  -0.225722  0  3.854048  0
C  C88  1  0.07372143  0.74537931  0.59892082  1  0.518061  0  0.085675  0.170091  0  4.123273  0
C  C89  1  0.07627403  0.82306978  0.61396636  1  0.516088  0  0.093632  0.128286  0  4.049997  0
C  C90  1  0.15070016  0.90332126  0.68270457  1  0.05426  0  -0.006005  -0.041694  0  3.97289  0
I  I91  1  0.60655282  0.77485809  0.02441474  1  0.00163  0  0.005211  -0.101765  0  1.227419  0
I  I92  1  0.40172454  0.15131683  0.38786127  1  0.036556  0  0.017904  -0.096398  0  1.158496  0
I  I93  1  0.49386467  0.75828266  0.35468105  1  -0.002598  0  -0.021934  -0.117974  0  1.15191  0
I  I94  1  0.71371902  0.82244270  0.72097361  1  0.106004  0  0.070919  -0.019968  0  1.341369  0
O  O95  1  0.48322531  0.89213020  0.91665385  1  -1.179111  0  -0.310054  -0.578197  0  2.376456  0
O  O96  1  0.08232087  0.01197406  0.41410839  1  -1.126106  0  -0.30954  -0.514236  0  2.219075  0
O  O97  1  0.07656895  0.05261955  0.65950033  1  -1.129235  0  -0.313965  -0.522964  0  2.236574  0
O  O98  1  0.08489813  0.95915423  0.55247720  1  -1.162879  0  -0.310279  -0.568915  0  2.341647  0
O  O99  1  0.90264927  0.92999071  0.51431775  1  -1.172815  0  -0.308285  -0.569269  0  2.31884  0
O  O100  1  0.90315555  0.82892320  0.40644922  1  -1.11905  0  -0.315078  -0.525975  0  2.226645  0
O  O101  1  0.91372083  0.07750962  0.49439824  1  -1.13281  0  -0.319477  -0.532035  0  2.214452  0
O  O102  1  0.90884834  0.97442739  0.38346482  1  -1.166696  0  -0.309153  -0.567177  0  2.30916  0
O  O103  1  0.50466070  0.58700843  0.41541626  1  -1.120357  0  -0.311836  -0.519058  0  2.252353  0
O  O104  1  0.61229101  0.58418124  0.51430638  1  -1.168737  0  -0.309626  -0.577784  0  2.362261  0
O  O105  1  0.47780537  0.59777859  0.56643906  1  -1.171498  0  -0.305541  -0.561371  0  2.292427  0
O  O106  1  0.59464413  0.99762176  0.92441989  1  -1.124739  0  -0.313953  -0.518164  0  2.210111  0
O  O107  1  0.59015112  0.60190605  0.66746782  1  -1.128599  0  -0.311919  -0.524115  0  2.241177  0
O  O108  1  0.33852190  0.41207239  0.42622830  1  -1.108619  0  -0.308788  -0.514953  0  2.248307  0
O  O109  1  0.44374658  0.41759665  0.53684798  1  -1.17125  0  -0.307596  -0.566155  0  2.300452  0
O  O110  1  0.47328604  0.41118105  0.38516200  1  -1.151858  0  -0.297266  -0.546498  0  2.26573  0
O  O111  1  0.58361482  0.41815369  0.49173899  1  -1.12311  0  -0.309596  -0.519731  0  2.219711  0
O  O112  1  0.34148743  0.92579513  0.91275032  1  -1.117885  0  -0.309884  -0.522005  0  2.262223  0
O  O113  1  0.44193505  0.02989377  0.90671365  1  -1.154922  0  -0.304626  -0.559577  0  2.296537  0
O  O114  1  0.47241722  0.06446094  0.08775351  1  -1.168761  0  -0.302894  -0.558611  0  2.344913  0
O  O115  1  0.58014898  0.16959190  0.09031812  1  -1.120665  0  -0.312332  -0.518587  0  2.220139  0
O  O116  1  0.51135687  0.92669209  0.09570153  1  -1.129349  0  -0.318241  -0.528359  0  2.229871  0
O  O117  1  0.61696414  0.03811489  0.10300116  1  -1.159503  0  -0.306288  -0.567093  0  2.305382  0
O  O118  1  0.09496323  0.11367416  0.53301030  1  -1.156494  0  -0.303706  -0.555685  0  2.324429  0
F  F119  1  0.35976892  0.13084935  0.90462285  1  -0.626352  0  -0.097997  -0.133639  0  1.32026  0
F  F120  1  0.66131745  0.43508243  0.36118847  1  -0.627017  0  -0.091535  -0.137131  0  1.336375  0
F  F121  1  0.31613259  0.18325880  0.24876998  1  -0.604421  0  -0.112726  -0.136195  0  1.355566  0
F  F122  1  0.31533904  0.06527181  0.11760186  1  -0.612825  0  -0.137754  -0.156895  0  1.278076  0
F  F123  1  0.21144084  0.23348806  0.31857650  1  -0.614319  0  -0.089046  -0.122587  0  1.36113  0
F  F124  1  0.32962542  0.23158653  0.68225712  1  -0.627519  0  -0.135734  -0.222403  0  1.231934  0
F  F125  1  0.25629402  0.30069554  0.69178017  1  -0.625204  0  -0.135112  -0.219146  0  1.242433  0
F  F126  1  0.00088257  0.67053100  0.53180276  1  -0.624378  0  -0.10431  -0.132366  0  1.326145  0
F  F127  1  0.00329138  0.81991153  0.56318217  1  -0.628616  0  -0.082415  -0.100532  0  1.449877  0
