# generated using pymatgen
data_CuH3C6(N2O)2
_symmetry_space_group_name_H-M   'P 1'
_cell_length_a   7.51303218
_cell_length_b   10.53181113
_cell_length_c   10.96928946
_cell_angle_alpha   75.46945229
_cell_angle_beta   69.96454962
_cell_angle_gamma   69.11417815
_symmetry_Int_Tables_number   1
_chemical_formula_structural   CuH3C6(N2O)2
_chemical_formula_sum   'Cu4 H12 C24 N16 O8'
_cell_volume   753.60571330
_cell_formula_units_Z   4
loop_
 _symmetry_equiv_pos_site_id
 _symmetry_equiv_pos_as_xyz
  1  'x, y, z'
loop_
 _atom_site_type_symbol
 _atom_site_label
 _atom_site_symmetry_multiplicity
 _atom_site_fract_x
 _atom_site_fract_y
 _atom_site_fract_z
 _atom_site_occupancy
 _atom_site_hle17_ddec_charge
 _atom_site_hle17_ddec_spin_density
 _atom_site_hle17_ddec_sum_bond_order
 _atom_site_hle17_magmom
 _atom_site_hse06_10hf_ddec_charge
 _atom_site_hse06_10hf_ddec_spin_density
 _atom_site_hse06_10hf_ddec_sum_bond_order
 _atom_site_hse06_10hf_magmom
 _atom_site_hse06_ddec_charge
 _atom_site_hse06_ddec_spin_density
 _atom_site_hse06_ddec_sum_bond_order
 _atom_site_hse06_magmom
 _atom_site_pbe_cm5_charge
 _atom_site_pbe_ddec_charge
 _atom_site_pbe_ddec_spin_density
 _atom_site_pbe_ddec_sum_bond_order
 _atom_site_pbe_magmom
Cu  Cu0  1  0.33315688  0.58589759  0.42650447  1  0.904706  0.668353  1.959992  0.478  0.900974  0.787927  2.368573  0.62  0.989941  0.872391  2.296621  0.714  0.798869  0.844893  0.686537  2.418269  0.528
Cu  Cu1  1  0.84552310  0.91402108  0.07349769  1  0.904898  -0.666921  1.9596  -0.477  0.90178  -0.787763  2.367588  -0.62  0.991057  -0.872735  2.295684  -0.714  0.798939  0.846101  -0.686737  2.416693  -0.528
Cu  Cu2  1  0.66685310  0.41409836  0.57349287  1  0.9046  -0.668377  1.960019  -0.478  0.900926  -0.787953  2.36858  -0.621  0.989808  -0.872403  2.296736  -0.714  0.798875  0.844865  -0.686538  2.418222  -0.528
Cu  Cu3  1  0.15447097  0.08599028  0.92649833  1  0.904879  0.666918  1.959679  0.477  0.9018  0.787784  2.36772  0.62  0.991032  0.872732  2.295814  0.714  0.798969  0.846099  0.686718  2.416767  0.528
H  H4  1  0.35097970  0.51796869  0.15121859  1  0.107667  0.000594  0.943887  0.001  0.112199  0.000818  1.008383  0.001  0.114627  0.000613  1.005032  0.001  0.132789  0.110437  0.000911  1.010938  0.001
H  H5  1  0.52004465  0.98173577  0.34882355  1  0.109641  -0.00058  0.941608  -0.001  0.113156  -0.000809  1.007263  -0.001  0.115602  -0.000607  1.003883  -0.001  0.133463  0.111515  -0.000908  1.009641  -0.001
H  H6  1  0.64900829  0.48204366  0.84878152  1  0.10753  -0.000598  0.943952  -0.001  0.11208  -0.000818  1.00844  -0.001  0.114507  -0.000613  1.005097  -0.001  0.132768  0.110315  -0.000911  1.010994  -0.001
H  H7  1  0.47995713  0.01826530  0.65117484  1  0.109521  0.000578  0.941738  0.001  0.113043  0.000808  1.007389  0.001  0.11549  0.000607  1.004013  0.001  0.133442  0.1114  0.000907  1.009765  0.001
H  H8  1  0.19202033  0.59570336  0.73645145  1  0.096948  0.000462  0.941206  0.001  0.103285  0.000607  1.005196  0.001  0.104711  0.000462  1.003733  0.001  0.130568  0.102261  0.000672  1.006476  0.001
H  H9  1  0.02422680  0.90428135  0.76356335  1  0.095166  -0.000478  0.942561  -0.001  0.101951  -0.000643  1.006021  -0.001  0.103384  -0.000487  1.00458  -0.001  0.130023  0.100913  -0.000673  1.007306  -0.001
H  H10  1  0.80798555  0.40428952  0.26354464  1  0.097025  -0.000463  0.941145  -0.001  0.103365  -0.000606  1.005152  -0.001  0.104789  -0.000462  1.003691  -0.001  0.13064  0.102348  -0.000672  1.006416  -0.001
H  H11  1  0.97577665  0.09571255  0.23643319  1  0.095134  0.000479  0.942606  0.001  0.101958  0.000643  1.006073  0.001  0.103389  0.000488  1.004632  0.001  0.130027  0.100928  0.000673  1.007354  0.001
H  H12  1  0.11815659  0.43973056  0.08580618  1  0.142962  2.8e-05  0.963712  0.0  0.150318  1.7e-05  1.022008  0.0  0.154735  2.9e-05  1.020338  0.0  0.120502  0.146765  -1e-06  1.023984  0.0
H  H13  1  0.14359034  0.05995412  0.41423847  1  0.142841  6.7e-05  0.963825  0.0  0.150131  5.5e-05  1.02226  0.0  0.154659  3e-05  1.020355  0.0  0.120911  0.146711  2e-06  1.023803  0.0
H  H14  1  0.88184651  0.56027668  0.91419023  1  0.143007  -2.4e-05  0.96353  0.0  0.150329  -1.7e-05  1.021899  0.0  0.154745  -2.8e-05  1.02023  0.0  0.120513  0.146779  2e-06  1.02387  0.0
H  H15  1  0.85640469  0.94004079  0.58576025  1  0.142839  -6.5e-05  0.963831  0.0  0.150107  -5.5e-05  1.022326  0.0  0.154635  -3e-05  1.02042  0.0  0.12091  0.14669  -3e-06  1.023866  0.0
C  C16  1  0.21710274  0.49825959  0.22103471  1  0.216988  0.000466  3.579257  0.0  0.184478  0.001028  3.828967  0.0  0.199327  0.000399  3.84148  -0.001  0.093203  0.174021  0.0015  3.821618  0.001
C  C17  1  0.43631964  0.00149703  0.27900941  1  0.215193  -0.000472  3.574044  0.0  0.183571  -0.001062  3.824086  0.0  0.19849  -0.000443  3.836485  0.001  0.093393  0.173004  -0.001501  3.816423  -0.001
C  C18  1  0.78289915  0.50174253  0.77896014  1  0.217093  -0.000417  3.578975  0.0  0.18461  -0.001031  3.828714  0.0  0.199448  -0.000399  3.841226  0.001  0.093238  0.174156  -0.0015  3.821362  -0.001
C  C19  1  0.56367145  0.99850406  0.72098691  1  0.215308  0.000492  3.574104  0.0  0.183739  0.001059  3.824152  0.0  0.198643  0.000443  3.836562  -0.001  0.093482  0.173184  0.0015  3.816482  0.001
C  C20  1  0.01791415  0.49096790  0.43261628  1  0.309566  0.000277  3.781735  0.0  0.288016  3.7e-05  4.032196  0.0  0.304026  -5.2e-05  4.047284  0.0  0.259887  0.276225  0.000126  4.0241  0.0
C  C21  1  0.44149059  0.00901967  0.06736963  1  0.310247  -0.000254  3.784588  0.0  0.288537  -3.1e-05  4.036116  0.0  0.304893  3.9e-05  4.050651  0.0  0.259274  0.276705  -0.000132  4.027935  0.0
C  C22  1  0.98209631  0.50901983  0.56738241  1  0.30966  -0.000269  3.781681  0.0  0.288068  -3.4e-05  4.032157  0.0  0.304069  5.7e-05  4.047243  0.0  0.259835  0.276276  -0.000126  4.024065  0.0
C  C23  1  0.55850380  0.99098553  0.93262531  1  0.310429  0.000278  3.784369  0.0  0.288399  3.2e-05  4.036301  0.0  0.304748  -3.7e-05  4.050836  0.0  0.259229  0.276567  0.000133  4.028127  0.0
C  C24  1  0.08114056  0.56540342  0.71686540  1  0.202177  4.6e-05  3.595669  -0.001  0.172251  0.000895  3.843063  0.0  0.185514  0.000421  3.85864  0.0  0.087351  0.162746  0.001164  3.833595  0.0
C  C25  1  0.86345611  0.93462834  0.78314139  1  0.204346  -0.000118  3.600295  0.001  0.174641  -0.000974  3.847226  0.0  0.188  -0.000469  3.862673  0.0  0.088098  0.165131  -0.001159  3.837288  0.0
C  C26  1  0.91886550  0.43458945  0.28313193  1  0.201986  -8e-06  3.595232  0.001  0.171991  -0.000899  3.842718  0.0  0.185254  -0.000421  3.858292  0.0  0.08717  0.162488  -0.001163  3.833266  0.0
C  C27  1  0.13653586  0.06536863  0.21685639  1  0.204529  0.000121  3.600315  -0.001  0.174641  0.000971  3.847385  0.0  0.188003  0.000469  3.862835  0.0  0.088153  0.165124  0.001159  3.837455  0.0
C  C28  1  0.08706862  0.45626772  0.18609339  1  -0.131022  -0.000186  3.601721  0.0  -0.14294  0.00031  3.844223  0.0  -0.154151  0.000297  3.861533  0.0  -0.053928  -0.136251  0.000288  3.834405  0.0
C  C29  1  0.22931418  0.04349966  0.31391664  1  -0.131139  -0.000113  3.60341  0.0  -0.143424  -0.000464  3.846013  0.0  -0.154517  -0.000375  3.863056  0.0  -0.054722  -0.135941  -0.000284  3.835074  0.0
C  C30  1  0.91294314  0.54373543  0.81390091  1  -0.131063  0.000117  3.601591  0.0  -0.143038  -0.000302  3.844207  0.0  -0.154255  -0.000297  3.861529  0.0  -0.053961  -0.13635  -0.000288  3.834376  0.0
C  C31  1  0.77067778  0.95649731  0.68608113  1  -0.130898  0.0001  3.603441  0.0  -0.143265  0.000468  3.846028  0.0  -0.154353  0.000376  3.863076  0.0  -0.054592  -0.135791  0.000284  3.835078  0.0
C  C32  1  0.60236920  0.67053786  0.16583985  1  0.624073  0.003381  4.059219  0.003  0.597167  0.007697  4.373648  0.01  0.635245  0.005927  4.376229  0.008  0.264205  0.571264  0.008556  4.370514  0.01
C  C33  1  0.93852365  0.82931311  0.33426541  1  0.626553  -0.003496  4.061683  -0.003  0.599795  -0.007761  4.37576  -0.01  0.637851  -0.005972  4.378399  -0.009  0.264938  0.573917  -0.008513  4.372854  -0.01
C  C34  1  0.39763513  0.32947134  0.83417122  1  0.623988  -0.003383  4.059402  -0.003  0.597088  -0.0077  4.373816  -0.01  0.635158  -0.00593  4.37639  -0.008  0.264171  0.571171  -0.008551  4.370674  -0.01
C  C35  1  0.06147103  0.17068790  0.66574152  1  0.626588  0.003542  4.06132  0.003  0.599839  0.007757  4.375392  0.01  0.637891  0.005974  4.378033  0.009  0.265105  0.573951  0.008517  4.372473  0.01
C  C36  1  0.41458469  0.75499765  0.55736743  1  0.641042  0.010312  4.002647  0.006  0.616033  0.014531  4.310395  0.014  0.657508  0.012129  4.31345  0.012  0.281448  0.587885  0.015761  4.308144  0.014
C  C37  1  0.22674307  0.74497847  0.94251154  1  0.643227  -0.010468  4.002617  -0.007  0.618476  -0.01466  4.310082  -0.014  0.660017  -0.012209  4.313083  -0.013  0.281622  0.590222  -0.015763  4.307909  -0.014
C  C38  1  0.58542899  0.24498595  0.44263463  1  0.64116  -0.010312  4.002445  -0.006  0.61616  -0.014527  4.310175  -0.014  0.657635  -0.012128  4.313219  -0.012  0.281422  0.588012  -0.015761  4.307933  -0.014
C  C39  1  0.77325025  0.25503081  0.05748782  1  0.643148  0.010498  4.002592  0.007  0.618399  0.014655  4.310049  0.014  0.659939  0.012204  4.313048  0.013  0.281565  0.590149  0.01576  4.307873  0.014
N  N40  1  0.18093566  0.51522110  0.34541416  1  -0.335062  0.04703  3.256632  0.058  -0.284429  0.045767  3.528803  0.061  -0.316588  0.039414  3.546458  0.055  -0.31057  -0.263377  0.045455  3.518664  0.058
N  N41  1  0.54152941  0.98466138  0.15459681  1  -0.335394  -0.04646  3.257019  -0.058  -0.284805  -0.045346  3.529301  -0.061  -0.317114  -0.039131  3.546853  -0.055  -0.311031  -0.263924  -0.045429  3.519209  -0.058
N  N42  1  0.81907412  0.48477280  0.65458312  1  -0.335055  -0.047052  3.256736  -0.058  -0.284452  -0.045773  3.528946  -0.061  -0.316579  -0.039419  3.546584  -0.055  -0.3106  -0.263422  -0.045462  3.518812  -0.058
N  N43  1  0.45846771  0.01534385  0.84539539  1  -0.335404  0.046438  3.256986  0.058  -0.284833  0.045343  3.529466  0.061  -0.31712  0.039131  3.547005  0.055  -0.311107  -0.263974  0.04543  3.519376  0.058
N  N44  1  0.11465203  0.54834512  0.59279994  1  -0.329615  0.049232  3.26357  0.061  -0.281599  0.041309  3.539726  0.055  -0.313881  0.034757  3.558501  0.049  -0.313353  -0.260082  0.041543  3.528657  0.053
N  N45  1  0.75579041  0.95161373  0.90722988  1  -0.330672  -0.048766  3.264411  -0.06  -0.283083  -0.04102  3.541233  -0.055  -0.315645  -0.034598  3.560058  -0.048  -0.312366  -0.261151  -0.041535  3.529545  -0.053
N  N46  1  0.88535995  0.45164360  0.40720517  1  -0.329411  -0.049247  3.263541  -0.061  -0.281451  -0.041313  3.539757  -0.055  -0.31372  -0.034763  3.558528  -0.049  -0.313296  -0.259932  -0.041544  3.528687  -0.053
N  N47  1  0.24419742  0.04838938  0.09277139  1  -0.330566  0.048751  3.264572  0.06  -0.282955  0.041017  3.541276  0.055  -0.315516  0.034594  3.5601  0.048  -0.312289  -0.261012  0.041531  3.529571  0.053
N  N48  1  0.45454221  0.64236974  0.52919033  1  -0.759525  0.083419  3.008678  0.096  -0.779853  0.046797  3.376489  0.056  -0.830444  0.033993  3.377935  0.042  -0.494256  -0.747392  0.052016  3.376982  0.06
N  N49  1  0.12604125  0.85759890  0.97075922  1  -0.761249  -0.083806  3.00929  -0.096  -0.782163  -0.046849  3.377247  -0.056  -0.832979  -0.033988  3.378797  -0.042  -0.494644  -0.74989  -0.052065  3.377687  -0.06
N  N50  1  0.54547531  0.35761800  0.47080694  1  -0.759636  -0.083423  3.00862  -0.096  -0.780004  -0.046802  3.376471  -0.056  -0.830586  -0.033991  3.377904  -0.042  -0.494208  -0.747541  -0.052015  3.376957  -0.06
N  N51  1  0.87395975  0.14241660  0.02923177  1  -0.761201  0.083786  3.009254  0.096  -0.782138  0.046851  3.377249  0.056  -0.832942  0.03399  3.378773  0.042  -0.494571  -0.749862  0.052067  3.377681  0.06
N  N52  1  0.46007186  0.66597308  0.25724555  1  -0.717574  0.077249  2.957405  0.09  -0.722243  0.043924  3.297881  0.054  -0.764527  0.03473  3.297947  0.045  -0.489517  -0.693187  0.047095  3.297137  0.056
N  N53  1  0.88328982  0.83400628  0.24274701  1  -0.718034  -0.076779  2.958093  -0.089  -0.722251  -0.043852  3.297745  -0.054  -0.764651  -0.03476  3.297781  -0.045  -0.489463  -0.693976  -0.047175  3.297499  -0.056
N  N54  1  0.53991595  0.33404130  0.74275927  1  -0.717494  -0.077195  2.957475  -0.09  -0.722172  -0.043915  3.297939  -0.054  -0.764431  -0.034728  3.298011  -0.045  -0.489504  -0.693123  -0.047098  3.297183  -0.056
N  N55  1  0.11671324  0.16601017  0.75725413  1  -0.717997  0.076739  2.958069  0.089  -0.722231  0.043857  3.297736  0.054  -0.764616  0.03476  3.297765  0.045  -0.489588  -0.693952  0.047183  3.29746  0.056
O  O56  1  0.73980237  0.68229283  0.06959881  1  -0.511832  0.026815  2.048408  0.033  -0.488439  0.009953  2.27317  0.013  -0.514544  0.005881  2.26456  0.008  -0.266541  -0.469361  0.012926  2.278854  0.017
O  O57  1  0.99117018  0.81750201  0.43062163  1  -0.514169  -0.026126  2.049835  -0.032  -0.490755  -0.009603  2.274831  -0.012  -0.516886  -0.005683  2.26611  -0.008  -0.267759  -0.471979  -0.012849  2.28014  -0.016
O  O58  1  0.26021256  0.31770812  0.93041909  1  -0.511824  -0.026841  2.048447  -0.033  -0.488426  -0.009946  2.273174  -0.013  -0.514526  -0.00587  2.264566  -0.008  -0.266566  -0.469349  -0.01292  2.278856  -0.017
O  O59  1  0.00881798  0.18248770  0.56938690  1  -0.514233  0.026142  2.049629  0.032  -0.490844  0.00961  2.274638  0.012  -0.516971  0.005688  2.265923  0.008  -0.267833  -0.472069  0.012859  2.279939  0.016
O  O60  1  0.37695706  0.86519021  0.58926403  1  -0.461428  0.037841  1.992905  0.048  -0.425035  0.020015  2.188843  0.028  -0.451476  0.013571  2.181503  0.02  -0.240591  -0.406755  0.02368  2.193265  0.032
O  O61  1  0.33111774  0.63482301  0.91048664  1  -0.461853  -0.037874  1.991135  -0.048  -0.42571  -0.019965  2.186955  -0.028  -0.452137  -0.013515  2.179549  -0.02  -0.240759  -0.407395  -0.023682  2.191659  -0.032
O  O62  1  0.62305131  0.13478922  0.41074712  1  -0.461466  -0.037839  1.992849  -0.048  -0.425054  -0.02001  2.188746  -0.028  -0.45149  -0.013569  2.181396  -0.02  -0.240605  -0.406787  -0.023679  2.193194  -0.032
O  O63  1  0.66885912  0.36518108  0.08952079  1  -0.461849  0.037857  1.991177  0.048  -0.425708  0.01996  2.187009  0.028  -0.452123  0.013519  2.179585  0.02  -0.240775  -0.407392  0.023681  2.191707  0.032
