# generated using pymatgen
data_Tb2H18C22O17
_symmetry_space_group_name_H-M   'P 1'
_cell_length_a   6.01369251
_cell_length_b   8.87014543
_cell_length_c   12.21722334
_cell_angle_alpha   104.33541189
_cell_angle_beta   90.81909855
_cell_angle_gamma   102.66170485
_symmetry_Int_Tables_number   1
_chemical_formula_structural   Tb2H18C22O17
_chemical_formula_sum   'Tb2 H18 C22 O17'
_cell_volume   614.42553760
_cell_formula_units_Z   1
loop_
 _symmetry_equiv_pos_site_id
 _symmetry_equiv_pos_as_xyz
  1  'x, y, z'
loop_
 _atom_site_type_symbol
 _atom_site_label
 _atom_site_symmetry_multiplicity
 _atom_site_fract_x
 _atom_site_fract_y
 _atom_site_fract_z
 _atom_site_occupancy
 _atom_site_hle17_bader_spin_density
 _atom_site_hle17_ddec_charge
 _atom_site_hle17_ddec_spin_density
 _atom_site_hle17_ddec_sum_bond_order
 _atom_site_hle17_magmom
 _atom_site_hse06_10hf_bader_spin_density
 _atom_site_hse06_10hf_ddec_charge
 _atom_site_hse06_10hf_ddec_spin_density
 _atom_site_hse06_10hf_ddec_sum_bond_order
 _atom_site_hse06_10hf_magmom
 _atom_site_hse06_bader_spin_density
 _atom_site_hse06_ddec_charge
 _atom_site_hse06_ddec_spin_density
 _atom_site_hse06_ddec_sum_bond_order
 _atom_site_hse06_magmom
 _atom_site_pbe_bader_spin_density
 _atom_site_pbe_cm5_charge
 _atom_site_pbe_ddec_charge
 _atom_site_pbe_ddec_spin_density
 _atom_site_pbe_ddec_sum_bond_order
 _atom_site_pbe_magmom
Tb  Tb0  1  0.28732506  0.71699973  0.59712364  1  0  2.252538  0  1.650949  0  0  2.098225  0  2.128722  0  0  2.220663  0  1.948093  0  0  1.506043  2.060277  0  2.161771  0
Tb  Tb1  1  0.70526637  0.27956688  0.39267123  1  0  2.246904  0  1.66009  0  0  2.094645  0  2.138988  0  0  2.217891  0  1.956393  0  0  1.509907  2.057111  0  2.171971  0
H  H2  1  0.97875142  0.01836166  0.83934549  1  0  0.106848  0  0.927983  0  0  0.113524  0  0.994112  0  0  0.115956  0  0.992387  0  0  0.116583  0.112002  0  0.994924  0
H  H3  1  0.02169465  0.98637587  0.14994057  1  0  0.102811  0  0.927569  0  0  0.109884  0  0.994043  0  0  0.112226  0  0.99219  0  0  0.113791  0.108471  0  0.994788  0
H  H4  1  0.91003053  0.84651337  0.89482699  1  0  0.097927  0  0.921495  0  0  0.107414  0  0.987275  0  0  0.108541  0  0.987441  0  0  0.114174  0.106789  0  0.986672  0
H  H5  1  0.08785247  0.16563437  0.10262815  1  0  0.092657  0  0.929003  0  0  0.101799  0  0.995777  0  0  0.102973  0  0.995585  0  0  0.110166  0.101172  0  0.995302  0
H  H6  1  0.43142184  0.16490783  0.86668848  1  0  0.121499  0  0.94907  0  0  0.12766  0  1.014874  0  0  0.13173  0  1.011797  0  0  0.109569  0.124723  0  1.017232  0
H  H7  1  0.56344490  0.83405178  0.12640881  1  0  0.125138  0  0.947291  0  0  0.131372  0  1.012231  0  0  0.135502  0  1.009084  0  0  0.111743  0.128415  0  1.014604  0
H  H8  1  0.29516805  0.71217437  0.95004725  1  0  0.110002  0  0.977707  0  0  0.116896  0  1.044788  0  0  0.118577  0  1.045976  0  0  0.104112  0.115677  0  1.043934  0
H  H9  1  0.69948435  0.28682402  0.04308218  1  0  0.111887  0  0.974853  0  0  0.119307  0  1.041027  0  0  0.121065  0  1.04212  0  0  0.105748  0.11806  0  1.040196  0
H  H10  1  0.81279256  0.20697978  0.71483626  1  0  0.08839  0  0.919468  0  0  0.096974  0  0.984333  0  0  0.099016  0  0.982349  0  0  0.110838  0.095684  0  0.985099  0
H  H11  1  0.17932637  0.79197989  0.28248619  1  0  0.089352  0  0.917858  0  0  0.097917  0  0.982536  0  0  0.099885  0  0.980514  0  0  0.112319  0.096717  0  0.983283  0
H  H12  1  0.06007635  0.14808729  0.65432286  1  0  0.132108  0  0.92638  0  0  0.14259  0  0.983578  0  0  0.146227  0  0.980361  0  0  0.124686  0.139488  0  0.986356  0
H  H13  1  0.92889605  0.84813773  0.34109731  1  0  0.132378  0  0.924929  0  0  0.142499  0  0.982513  0  0  0.146033  0  0.979252  0  0  0.125468  0.139383  0  0.985409  0
H  H14  1  0.32086281  0.37277308  0.01393139  1  0  0.10928  0  0.960011  0  0  0.121869  0  1.01918  0  0  0.124674  0  1.018256  0  0  0.105921  0.119624  0  1.020306  0
H  H15  1  0.67532203  0.62729021  0.98084768  1  0  0.108077  0  0.961575  0  0  0.119964  0  1.022222  0  0  0.122768  0  1.021322  0  0  0.104207  0.117708  0  1.023347  0
H  H16  1  0.77343339  0.44241085  0.81293324  1  0  0.112506  0  0.946173  0  0  0.128244  0  0.995472  0  0  0.1317  0  0.993338  0  0  0.109249  0.125882  0  0.996896  0
H  H17  1  0.22283551  0.55740058  0.18174759  1  0  0.118112  0  0.940313  0  0  0.134356  0  0.987485  0  0  0.137774  0  0.985539  0  0  0.114432  0.132012  0  0.988824  0
H  H18  1  0.47611334  0.43693023  0.56906049  1  0  0.439372  0  0.833214  0  0  0.412208  0  0.902642  0  0  0.421695  0  0.890937  0  0  0.319205  0.405803  0  0.910253  0
H  H19  1  0.68120986  0.58064763  0.55877885  1  0  0.429686  0  0.880643  0  0  0.396813  0  0.947905  0  0  0.408114  0  0.932185  0  0  0.306888  0.388575  0  0.959782  0
C  C20  1  0.81943942  0.79794177  0.71838496  1  0  0.74087  0  3.810918  0  0  0.694314  0  4.103258  0  0  0.728947  0  4.096668  0  0  0.242496  0.671146  0  4.109967  0
C  C21  1  0.17042773  0.20014333  0.27987799  1  0  0.744457  0  3.835816  0  0  0.702868  0  4.125861  0  0  0.737195  0  4.120022  0  0  0.239362  0.679738  0  4.132888  0
C  C22  1  0.97651525  0.89007212  0.82186322  1  0  -0.06781  0  3.603888  0  0  -0.11819  0  3.85705  0  0  -0.116335  0  3.858643  0  0  -0.057199  -0.119607  0  3.856823  0
C  C23  1  0.02039708  0.11436735  0.17220882  1  0  -0.068368  0  3.603475  0  0  -0.119945  0  3.857156  0  0  -0.117308  0  3.857929  0  0  -0.058432  -0.121769  0  3.857274  0
C  C24  1  0.35126388  0.93301304  0.90064296  1  0  0.257079  0  3.790672  0  0  0.254843  0  4.046428  0  0  0.262186  0  4.064451  0  0  0.076041  0.24981  0  4.035349  0
C  C25  1  0.64382055  0.06596608  0.09251958  1  0  0.260035  0  3.791432  0  0  0.256841  0  4.048179  0  0  0.264222  0  4.066379  0  0  0.078319  0.251718  0  4.0372  0
C  C26  1  0.46264408  0.09392033  0.92397095  1  0  -0.155628  0  3.739161  0  0  -0.179839  0  3.99658  0  0  -0.183171  0  4.014987  0  0  -0.094614  -0.177305  0  3.983619  0
C  C27  1  0.53250868  0.90497592  0.06901834  1  0  -0.155964  0  3.737283  0  0  -0.180113  0  3.994928  0  0  -0.183326  0  4.013044  0  0  -0.09355  -0.17762  0  3.982105  0
C  C28  1  0.38426061  0.83778000  0.97170203  1  0  -0.151812  0  3.747361  0  0  -0.173948  0  3.999013  0  0  -0.177078  0  4.019627  0  0  -0.094562  -0.171601  0  3.984524  0
C  C29  1  0.61079772  0.16112706  0.02130393  1  0  -0.150653  0  3.742804  0  0  -0.172849  0  3.994309  0  0  -0.175978  0  4.014913  0  0  -0.093928  -0.170495  0  3.979869  0
C  C30  1  0.03751898  0.38219852  0.64873829  1  0  0.743173  0  3.828298  0  0  0.693519  0  4.134102  0  0  0.728541  0  4.127116  0  0  0.232362  0.669782  0  4.141734  0
C  C31  1  0.95169892  0.61285738  0.34415340  1  0  0.748028  0  3.823747  0  0  0.700036  0  4.127139  0  0  0.734674  0  4.121302  0  0  0.235904  0.676558  0  4.134046  0
C  C32  1  0.99773921  0.24749008  0.70796549  1  0  -0.088124  0  3.614935  0  0  -0.143357  0  3.876855  0  0  -0.140674  0  3.875077  0  0  -0.065534  -0.144204  0  3.876664  0
C  C33  1  0.99385965  0.75017143  0.28737985  1  0  -0.088058  0  3.614168  0  0  -0.142478  0  3.875489  0  0  -0.139446  0  3.873431  0  0  -0.061991  -0.143526  0  3.8754  0
C  C34  1  0.05570838  0.39380248  0.90225268  1  0  0.238131  0  3.826796  0  0  0.22686  0  4.094935  0  0  0.236255  0  4.110962  0  0  0.069101  0.220435  0  4.083873  0
C  C35  1  0.94094054  0.60665366  0.09234089  1  0  0.246182  0  3.825554  0  0  0.235068  0  4.093077  0  0  0.244809  0  4.108677  0  0  0.073297  0.228462  0  4.082255  0
C  C36  1  0.17920509  0.42890928  0.00696491  1  0  -0.162885  0  3.765847  0  0  -0.183839  0  4.021802  0  0  -0.18594  0  4.039062  0  0  -0.103646  -0.181968  0  4.010074  0
C  C37  1  0.81750292  0.57157254  0.98762403  1  0  -0.165385  0  3.768593  0  0  -0.186511  0  4.024774  0  0  -0.18873  0  4.042205  0  0  -0.104292  -0.184564  0  4.012928  0
C  C38  1  0.87398456  0.46640564  0.89276672  1  0  -0.178494  0  3.77827  0  0  -0.197303  0  4.029893  0  0  -0.200478  0  4.048431  0  0  -0.106601  -0.195413  0  4.017071  0
C  C39  1  0.12287372  0.53411983  0.10182332  1  0  -0.17796  0  3.766876  0  0  -0.197366  0  4.018396  0  0  -0.200386  0  4.036475  0  0  -0.104308  -0.195567  0  4.005845  0
C  C40  1  0.41519654  0.05002482  0.53322459  1  0  0.556985  0  3.942666  0  0  0.515278  0  4.241477  0  0  0.54445  0  4.24005  0  0  0.215469  0.495163  0  4.24688  0
C  C41  1  0.57394548  0.95076403  0.46436614  1  0  0.552624  0  3.950412  0  0  0.512059  0  4.248626  0  0  0.540979  0  4.247886  0  0  0.21657  0.49198  0  4.253902  0
O  O42  1  0.90164074  0.71348788  0.63589777  1  0  -0.713299  0  2.124166  0  0  -0.652095  0  2.366231  0  0  -0.687663  0  2.355188  0  0  -0.364205  -0.633589  0  2.372126  0
O  O43  1  0.08215041  0.27202837  0.36416517  1  0  -0.69176  0  2.060561  0  0  -0.646545  0  2.313223  0  0  -0.681548  0  2.302547  0  0  -0.380679  -0.629435  0  2.319431  0
O  O44  1  0.61289281  0.80675473  0.72059029  1  0  -0.714418  0  2.052353  0  0  -0.66632  0  2.306632  0  0  -0.70323  0  2.294659  0  0  -0.394283  -0.647636  0  2.311298  0
O  O45  1  0.37900008  0.19340572  0.27651876  1  0  -0.733409  0  2.038622  0  0  -0.685491  0  2.294877  0  0  -0.723804  0  2.281559  0  0  -0.414748  -0.666539  0  2.300509  0
O  O46  1  0.20174227  0.86354416  0.80308218  1  0  -0.366136  0  2.391779  0  0  -0.300494  0  2.63995  0  0  -0.321419  0  2.641935  0  0  -0.221588  -0.290754  0  2.639189  0
O  O47  1  0.79173665  0.13514695  0.19040156  1  0  -0.372961  0  2.406259  0  0  -0.304609  0  2.652871  0  0  -0.326253  0  2.654468  0  0  -0.226318  -0.294596  0  2.652184  0
O  O48  1  0.20921266  0.49897456  0.68092971  1  0  -0.72156  0  1.993845  0  0  -0.675011  0  2.247022  0  0  -0.70788  0  2.23078  0  0  -0.391263  -0.658336  0  2.255893  0
O  O49  1  0.78955073  0.49237704  0.30632202  1  0  -0.693859  0  1.979138  0  0  -0.649327  0  2.226189  0  0  -0.683129  0  2.211318  0  0  -0.383715  -0.63227  0  2.233348  0
O  O50  1  0.89333019  0.36704811  0.56786145  1  0  -0.774045  0  2.127456  0  0  -0.722338  0  2.401075  0  0  -0.761365  0  2.388431  0  0  -0.4173  -0.703572  0  2.408438  0
O  O51  1  0.08657796  0.63070342  0.43009845  1  0  -0.782821  0  2.091386  0  0  -0.732744  0  2.3675  0  0  -0.773448  0  2.353062  0  0  -0.434099  -0.713756  0  2.375318  0
O  O52  1  0.12225822  0.28539053  0.81494500  1  0  -0.257715  0  2.344189  0  0  -0.193253  0  2.582349  0  0  -0.208852  0  2.583109  0  0  -0.183317  -0.182468  0  2.581119  0
O  O53  1  0.87352846  0.71434114  0.17948453  1  0  -0.255864  0  2.345083  0  0  -0.191583  0  2.582797  0  0  -0.20735  0  2.583428  0  0  -0.181189  -0.180732  0  2.581564  0
O  O54  1  0.28408248  0.98246666  0.59650988  1  0  -0.669174  0  2.042696  0  0  -0.625572  0  2.287772  0  0  -0.658114  0  2.275707  0  0  -0.378803  -0.608915  0  2.293905  0
O  O55  1  0.70095146  0.01557690  0.39870717  1  0  -0.664961  0  2.05078  0  0  -0.621412  0  2.294926  0  0  -0.653957  0  2.282958  0  0  -0.38045  -0.604816  0  2.300921  0
O  O56  1  0.43003993  0.18892612  0.52105864  1  0  -0.647974  0  2.075056  0  0  -0.597848  0  2.315724  0  0  -0.628065  0  2.304352  0  0  -0.352964  -0.582005  0  2.321198  0
O  O57  1  0.56465060  0.81401660  0.47963540  1  0  -0.634616  0  2.050279  0  0  -0.58776  0  2.289533  0  0  -0.618612  0  2.278863  0  0  -0.367024  -0.571591  0  2.293702  0
O  O58  1  0.53307786  0.50749234  0.51989373  1  0  -0.909324  0  1.873549  0  0  -0.85771  0  2.078223  0  0  -0.891732  0  2.042643  0  0  -0.603367  -0.843711  0  2.097233  0
