# generated using pymatgen
data_CuH4C9(NO2)2
_symmetry_space_group_name_H-M   'P 1'
_cell_length_a   9.83353038
_cell_length_b   9.83351042
_cell_length_c   9.43629772
_cell_angle_alpha   86.45791568
_cell_angle_beta   86.45626639
_cell_angle_gamma   109.91383675
_symmetry_Int_Tables_number   1
_chemical_formula_structural   CuH4C9(NO2)2
_chemical_formula_sum   'Cu4 H16 C36 N8 O16'
_cell_volume   852.92892147
_cell_formula_units_Z   4
loop_
 _symmetry_equiv_pos_site_id
 _symmetry_equiv_pos_as_xyz
  1  'x, y, z'
loop_
 _atom_site_type_symbol
 _atom_site_label
 _atom_site_symmetry_multiplicity
 _atom_site_fract_x
 _atom_site_fract_y
 _atom_site_fract_z
 _atom_site_occupancy
 _atom_site_pbe_bader_charge
 _atom_site_pbe_bader_spin_density
 _atom_site_pbe_cm5_charge
 _atom_site_pbe_ddec_charge
 _atom_site_pbe_ddec_spin_density
 _atom_site_pbe_ddec_sum_bond_order
 _atom_site_pbe_magmom
Cu  Cu0  1  0.49998400  0.00007290  0.75004779  1  1.134597  0.580979  0.755806  0.867529  0.737775  2.166672  0.58
Cu  Cu1  1  0.99993073  0.50002200  0.74994952  1  1.134633  0.580982  0.755797  0.867442  0.737777  2.16679  0.58
Cu  Cu2  1  0.50001920  0.99992762  0.24994930  1  1.13465  0.580968  0.755817  0.867472  0.737759  2.16669  0.58
Cu  Cu3  1  0.00007055  0.49997730  0.25005391  1  1.134706  0.580996  0.755853  0.867494  0.737796  2.166815  0.58
H  H4  1  0.80528614  0.80537646  0.90465776  1  0.071047  0.000909  0.096415  0.093309  0.000538  1.038018  0.0
H  H5  1  0.36996354  0.24104854  0.77435204  1  0.175644  0.001846  0.129986  0.106417  0.000832  1.007402  0.002
H  H6  1  0.24093303  0.37006740  0.77347148  1  0.179406  0.001834  0.129936  0.106269  0.000827  1.008182  0.002
H  H7  1  0.19461981  0.19471567  0.59534565  1  0.071096  0.000909  0.096417  0.093319  0.000538  1.037994  0.0
H  H8  1  0.75895763  0.63004274  0.72564746  1  0.175536  0.001846  0.129935  0.106386  0.000832  1.007416  0.002
H  H9  1  0.62993429  0.75906968  0.72653435  1  0.179454  0.001834  0.129912  0.106216  0.000827  1.008247  0.002
H  H10  1  0.19470137  0.19461767  0.09535151  1  0.071112  0.000909  0.096441  0.093332  0.000538  1.037979  0.0
H  H11  1  0.63003686  0.75895538  0.22564185  1  0.175608  0.001846  0.129947  0.106398  0.000832  1.007444  0.002
H  H12  1  0.75907018  0.62993413  0.22652564  1  0.179395  0.001834  0.129916  0.106229  0.000827  1.008203  0.002
H  H13  1  0.80539050  0.80528795  0.40465498  1  0.071215  0.000909  0.096391  0.093269  0.000538  1.038147  0.0
H  H14  1  0.24104751  0.36996000  0.27434332  1  0.175783  0.001846  0.129959  0.106355  0.000832  1.007441  0.002
H  H15  1  0.37006698  0.24093267  0.27346918  1  0.179433  0.001834  0.12994  0.106273  0.000827  1.008205  0.002
H  H16  1  0.21827606  0.78172599  0.74999968  1  0.195634  0.00148  0.143828  0.09193  0.000438  1.038766  0.001
H  H17  1  0.78162765  0.21837519  0.74999644  1  0.196937  0.001479  0.14403  0.092463  0.000438  1.03851  0.001
H  H18  1  0.78172414  0.21827296  0.25000371  1  0.195559  0.001481  0.143828  0.09193  0.000438  1.038756  0.001
H  H19  1  0.21836816  0.78162193  0.24999924  1  0.196929  0.001479  0.144009  0.092432  0.000438  1.038513  0.001
C  C20  1  0.72175672  0.03076418  0.94790789  1  1.578486  -0.001491  0.20582  0.58304  -0.001652  4.19477  -0.003
C  C21  1  0.86788955  0.02020844  0.97351315  1  0.033045  0.013687  -0.006442  -0.02351  0.009361  3.902749  0.01
C  C22  1  0.89118329  0.89123067  0.94729617  1  -0.084077  0.003197  -0.083573  -0.118745  0.00218  3.960442  0.002
C  C23  1  0.97991187  0.13220448  0.02637511  1  0.013382  0.013742  -0.00621  -0.023025  0.009346  3.902176  0.01
C  C24  1  0.96935595  0.27833482  0.05201949  1  1.578696  -0.001485  0.205791  0.582513  -0.001636  4.195254  -0.003
C  C25  1  0.48636737  0.30164255  0.76420991  1  0.490888  -0.003257  0.078767  0.096632  -0.003786  3.836549  -0.002
C  C26  1  0.30154523  0.48646155  0.76381258  1  0.47029  -0.003225  0.078851  0.096937  -0.003856  3.836412  -0.002
C  C27  1  0.96923916  0.27824360  0.55208594  1  1.578651  -0.001491  0.205719  0.582918  -0.001653  4.194467  -0.003
C  C28  1  0.97979328  0.13210960  0.52648755  1  0.032582  0.013687  -0.006468  -0.023572  0.009361  3.902786  0.01
C  C29  1  0.10877069  0.10881333  0.55271046  1  -0.083745  0.003197  -0.083616  -0.11878  0.00218  3.96036  0.002
C  C30  1  0.86779850  0.02008372  0.47362111  1  0.013587  0.013742  -0.006237  -0.023025  0.009345  3.90205  0.01
C  C31  1  0.72166813  0.03063899  0.44797297  1  1.578155  -0.001485  0.20598  0.582756  -0.001637  4.195014  -0.003
C  C32  1  0.69836464  0.51364005  0.73578762  1  0.491089  -0.003257  0.078868  0.096729  -0.003786  3.836574  -0.002
C  C33  1  0.51354046  0.69845756  0.73619423  1  0.470149  -0.003225  0.078912  0.09708  -0.003856  3.83639  -0.002
C  C34  1  0.27823716  0.96923376  0.05209419  1  1.578693  -0.001491  0.205793  0.583042  -0.001653  4.194621  -0.003
C  C35  1  0.13210133  0.97978792  0.02649523  1  0.032624  0.013691  -0.006334  -0.023495  0.009364  3.90278  0.011
C  C36  1  0.10880300  0.10876600  0.05271422  1  -0.083524  0.003196  -0.083685  -0.118793  0.00218  3.960426  0.002
C  C37  1  0.02007849  0.86779210  0.97362896  1  0.013238  0.013742  -0.006291  -0.023013  0.009346  3.902222  0.01
C  C38  1  0.03063858  0.72166203  0.94798580  1  1.579112  -0.001484  0.205792  0.582574  -0.001637  4.195069  -0.003
C  C39  1  0.51363439  0.69836100  0.23578187  1  0.490597  -0.003258  0.078843  0.096679  -0.003787  3.836682  -0.002
C  C40  1  0.69845740  0.51353941  0.23618880  1  0.470227  -0.003224  0.078877  0.097005  -0.003856  3.836354  -0.002
C  C41  1  0.03076764  0.72175967  0.44791672  1  1.578379  -0.001491  0.20574  0.583028  -0.001653  4.194442  -0.003
C  C42  1  0.02021539  0.86789411  0.47351733  1  0.033055  0.013686  -0.006435  -0.023487  0.009361  3.90285  0.01
C  C43  1  0.89123783  0.89118618  0.44729536  1  -0.083935  0.003197  -0.083561  -0.118738  0.00218  3.960622  0.002
C  C44  1  0.13220723  0.97991716  0.52638145  1  0.013381  0.013741  -0.006281  -0.023056  0.009345  3.902153  0.01
C  C45  1  0.27833752  0.96935644  0.55202189  1  1.578373  -0.001484  0.205898  0.582626  -0.001637  4.195288  -0.003
C  C46  1  0.30164036  0.48636255  0.26420423  1  0.490554  -0.003258  0.078832  0.096759  -0.003787  3.836436  -0.002
C  C47  1  0.48646204  0.30154631  0.26380832  1  0.470252  -0.003224  0.078825  0.096912  -0.003855  3.836481  -0.002
C  C48  1  0.71452508  0.28548043  0.74999660  1  1.140713  -0.004016  0.201381  0.279781  -0.004428  3.860734  -0.003
C  C49  1  0.54586506  0.45414048  0.75000166  1  -0.067988  0.011567  -0.0017  -0.023151  0.007606  3.997113  0.009
C  C50  1  0.45404613  0.54595737  0.75000318  1  0.048735  0.011408  -0.001624  -0.023833  0.007615  3.99725  0.009
C  C51  1  0.28537619  0.71462583  0.75000174  1  1.138709  -0.004037  0.201729  0.280364  -0.004441  3.860467  -0.003
C  C52  1  0.28547425  0.71452110  0.24999718  1  1.140675  -0.004016  0.201383  0.279808  -0.004428  3.860772  -0.003
C  C53  1  0.45413721  0.54586286  0.24999442  1  -0.067965  0.011567  -0.00173  -0.023198  0.007606  3.997182  0.009
C  C54  1  0.54595693  0.45404605  0.24999508  1  0.048755  0.011407  -0.001561  -0.023745  0.007614  3.997204  0.009
C  C55  1  0.71462401  0.28537514  0.25000171  1  1.138795  -0.004037  0.201712  0.280305  -0.00444  3.860474  -0.003
N  N56  1  0.57052551  0.21964571  0.76328090  1  -1.217174  0.07838  -0.3215  -0.219648  0.052402  3.524463  0.069
N  N57  1  0.21954794  0.57061702  0.76301193  1  -1.195518  0.078243  -0.321477  -0.219505  0.052384  3.524236  0.069
N  N58  1  0.78036145  0.42947946  0.73671369  1  -1.217533  0.078383  -0.321483  -0.219685  0.052404  3.524556  0.069
N  N59  1  0.42938553  0.78045474  0.73699346  1  -1.195504  0.078245  -0.321504  -0.219595  0.052386  3.524205  0.069
N  N60  1  0.42947396  0.78035698  0.23671185  1  -1.216917  0.07838  -0.321559  -0.219747  0.052403  3.524683  0.069
N  N61  1  0.78045212  0.42938280  0.23699255  1  -1.195522  0.078244  -0.321516  -0.219521  0.052384  3.524175  0.069
N  N62  1  0.21964003  0.57051975  0.26328008  1  -1.217185  0.078382  -0.32143  -0.219608  0.052404  3.524416  0.069
N  N63  1  0.57061453  0.21954711  0.26301109  1  -1.195518  0.078241  -0.321461  -0.219484  0.052382  3.524175  0.069
O  O64  1  0.67316456  0.97788895  0.83067718  1  -1.113878  0.11114  -0.327198  -0.564963  0.070239  2.363671  0.1
O  O65  1  0.65892679  0.08589201  0.03369797  1  -1.16336  0.0028  -0.315601  -0.573605  0.00065  2.327368  0.004
O  O66  1  0.02242738  0.32699663  0.16915020  1  -1.114879  0.110937  -0.327755  -0.565185  0.070118  2.363985  0.1
O  O67  1  0.91397602  0.34108375  0.96639369  1  -1.162911  0.002816  -0.315439  -0.573201  0.00066  2.326264  0.004
O  O68  1  0.02211473  0.32684481  0.66931371  1  -1.113981  0.111135  -0.32718  -0.564884  0.070238  2.363576  0.1
O  O69  1  0.91410478  0.34106828  0.46629096  1  -1.163443  0.002803  -0.315531  -0.573543  0.000652  2.327003  0.004
O  O70  1  0.67300933  0.97756276  0.33083896  1  -1.114554  0.110943  -0.327754  -0.565197  0.070121  2.363711  0.1
O  O71  1  0.65892140  0.08601782  0.53359987  1  -1.162752  0.002815  -0.315556  -0.573343  0.00066  2.326451  0.004
O  O72  1  0.32683499  0.02211108  0.16932300  1  -1.114058  0.111143  -0.327201  -0.564973  0.070241  2.363598  0.1
O  O73  1  0.34106126  0.91411019  0.96629118  1  -1.163335  0.002803  -0.315625  -0.573626  0.000652  2.327189  0.004
O  O74  1  0.97756177  0.67299843  0.83085486  1  -1.115162  0.110937  -0.327725  -0.565172  0.070119  2.363781  0.1
O  O75  1  0.08602160  0.65891811  0.03361292  1  -1.162901  0.002816  -0.315435  -0.573222  0.00066  2.326214  0.004
O  O76  1  0.97789071  0.67315579  0.33069097  1  -1.113919  0.111133  -0.327244  -0.565025  0.070237  2.363595  0.1
O  O77  1  0.08590043  0.65893282  0.53370729  1  -1.163517  0.002802  -0.315499  -0.573574  0.000651  2.327148  0.004
O  O78  1  0.32700319  0.02243729  0.66915304  1  -1.114587  0.110948  -0.327785  -0.565274  0.070126  2.363782  0.1
O  O79  1  0.34108059  0.91397610  0.46639805  1  -1.162901  0.002812  -0.31547  -0.573205  0.000658  2.326568  0.004
