# generated using pymatgen
data_Al2H21C30NO12
_symmetry_space_group_name_H-M   'P 1'
_cell_length_a   6.68087911
_cell_length_b   22.23927273
_cell_length_c   24.70819880
_cell_angle_alpha   83.70395932
_cell_angle_beta   90.00172994
_cell_angle_gamma   89.99911159
_symmetry_Int_Tables_number   1
_chemical_formula_structural   Al2H21C30NO12
_chemical_formula_sum   'Al4 H42 C60 N2 O24'
_cell_volume   3648.95004408
_cell_formula_units_Z   2
loop_
 _symmetry_equiv_pos_site_id
 _symmetry_equiv_pos_as_xyz
  1  'x, y, z'
loop_
 _atom_site_type_symbol
 _atom_site_label
 _atom_site_symmetry_multiplicity
 _atom_site_fract_x
 _atom_site_fract_y
 _atom_site_fract_z
 _atom_site_occupancy
 _atom_site_pbe_bader_charge
 _atom_site_pbe_bader_spin_density
 _atom_site_pbe_cm5_charge
 _atom_site_pbe_ddec_charge
 _atom_site_pbe_ddec_spin_density
 _atom_site_pbe_ddec_sum_bond_order
 _atom_site_pbe_magmom
Al  Al0  1  0.86076802  0.50024006  0.49993408  1  2.502193  0  0.402891  1.646315  0  2.579293  0
Al  Al1  1  0.36076798  0.49976110  0.50006602  1  2.502267  0  0.402827  1.646345  0  2.579269  0
Al  Al2  1  0.34488729  0.99975660  0.00024914  1  2.50066  0  0.401667  1.648567  0  2.574941  0
Al  Al3  1  0.84488792  0.00024370  0.99975122  1  2.500664  0  0.401698  1.648643  0  2.574854  0
H  H4  1  0.77434982  0.19089328  0.18524932  1  0.098996  0  0.102867  0.102914  0  1.011078  0
H  H5  1  0.27433767  0.80910415  0.81475120  1  0.098695  0  0.102873  0.10297  0  1.011102  0
H  H6  1  0.77419404  0.11864598  0.11417496  1  0.098683  0  0.109672  0.114484  0  1.005571  0
H  H7  1  0.27418960  0.88135200  0.88582475  1  0.098654  0  0.1097  0.114546  0  1.005377  0
H  H8  1  0.41548871  0.11146649  0.11913314  1  0.097739  0  0.109892  0.115133  0  1.005249  0
H  H9  1  0.91548049  0.88853688  0.88086543  1  0.097783  0  0.109912  0.11511  0  1.005274  0
H  H10  1  0.41884619  0.18331570  0.19053188  1  0.049618  0  0.102412  0.102464  0  1.011172  0
H  H11  1  0.91883321  0.81668910  0.80946591  1  0.049476  0  0.102451  0.102531  0  1.011252  0
H  H12  1  0.78363881  0.31764844  0.30933205  1  0.065333  0  0.102588  0.102235  0  1.01131  0
H  H13  1  0.28364503  0.68234869  0.69066693  1  0.065441  0  0.102603  0.102331  0  1.011371  0
H  H14  1  0.78865030  0.38896985  0.38113870  1  0.106028  0  0.11056  0.115297  0  1.004048  0
H  H15  1  0.28865617  0.61102690  0.61885951  1  0.105987  0  0.11059  0.115323  0  1.004046  0
H  H16  1  0.43003175  0.38166255  0.38516135  1  0.105721  0  0.110558  0.11482  0  1.005076  0
H  H17  1  0.93003542  0.61834419  0.61483491  1  0.105986  0  0.110481  0.114744  0  1.005001  0
H  H18  1  0.42821747  0.30984659  0.31371823  1  0.061335  0  0.102499  0.102222  0  1.011303  0
H  H19  1  0.92822143  0.69016106  0.68627802  1  0.061223  0  0.102472  0.102196  0  1.011279  0
H  H20  1  0.35736401  0.24829511  0.67660238  1  0.033905  0  0.099091  0.102762  0  0.97122  0
H  H21  1  0.85741539  0.75168833  0.32339200  1  0.034133  0  0.098985  0.102497  0  0.971433  0
H  H22  1  0.32273065  0.16501668  0.74312839  1  0.040576  0  0.0975  0.09947  0  0.970588  0
H  H23  1  0.82289767  0.83495828  0.25685184  1  0.041486  0  0.097331  0.099336  0  0.97041  0
H  H24  1  0.79115300  0.20296735  0.77307191  1  0.039097  0  0.094648  0.095098  0  1.00389  0
H  H25  1  0.29119922  0.79708568  0.22694420  1  0.040516  0  0.094576  0.095014  0  1.003954  0
H  H26  1  0.94108969  0.15129845  0.74130927  1  0.040946  0  0.097617  0.100298  0  0.971074  0
H  H27  1  0.44126497  0.84872499  0.25870460  1  0.040635  0  0.097608  0.100189  0  0.971339  0
H  H28  1  0.99825438  0.22203415  0.66521867  1  0.036341  0  0.099122  0.102694  0  0.968545  0
H  H29  1  0.49835171  0.77797639  0.33478840  1  0.036638  0  0.099202  0.102797  0  0.968244  0
H  H30  1  0.80332651  0.26486383  0.69015521  1  0.053867  0  0.097028  0.101039  0  0.992326  0
H  H31  1  0.30335036  0.73517073  0.30985329  1  0.053758  0  0.097043  0.101051  0  0.991997  0
H  H32  1  0.20603508  0.28002254  0.83852531  1  0.063983  0  0.108069  0.120905  0  0.956655  0
H  H33  1  0.70587849  0.71996999  0.16146602  1  0.064306  0  0.107962  0.120594  0  0.956884  0
H  H34  1  0.94199825  0.27103593  0.83642259  1  0.066605  0  0.108233  0.117019  0  0.98418  0
H  H35  1  0.44185471  0.72898746  0.16359169  1  0.065211  0  0.108163  0.116878  0  0.984074  0
H  H36  1  0.17772905  0.35694964  0.76710252  1  0.094481  0  0.131456  0.106535  0  0.943638  0
H  H37  1  0.67761862  0.64305125  0.23289506  1  0.094526  0  0.131489  0.107032  0  0.943425  0
H  H38  1  0.43177579  0.21035136  0.78968980  1  0.047355  0  0.096762  0.099329  0  0.987586  0
H  H39  1  0.93178792  0.78959243  0.21029146  1  0.045227  0  0.096795  0.099413  0  0.987501  0
H  H40  1  0.42518412  0.29624227  0.72606681  1  0.079173  0  0.095106  0.101948  0  1.017166  0
H  H41  1  0.92515829  0.70372378  0.27393514  1  0.079738  0  0.095245  0.101915  0  1.017141  0
H  H42  1  0.61180407  0.42261550  0.52084876  1  0.632257  0  0.357401  0.435899  0  0.845104  0
H  H43  1  0.11179297  0.57738399  0.47914780  1  0.632208  0  0.357391  0.435852  0  0.845189  0
H  H44  1  0.59366330  0.07776266  0.98041645  1  0.632338  0  0.35744  0.436277  0  0.844433  0
H  H45  1  0.09367504  0.92223663  0.01958239  1  0.6323  0  0.357452  0.436266  0  0.844431  0
C  C46  1  0.61015112  0.57627083  0.42199896  1  1.68801  0  0.279526  0.727351  0  4.146581  0
C  C47  1  0.11017091  0.42373003  0.57800125  1  1.687846  0  0.279316  0.727064  0  4.146256  0
C  C48  1  0.61060194  0.56955275  0.56902606  1  1.578225  0  0.266027  0.636967  0  4.107331  0
C  C49  1  0.11059272  0.43045019  0.43097171  1  1.578441  0  0.26601  0.636992  0  4.107515  0
C  C50  1  0.91426080  0.17318033  0.17076355  1  -0.052338  0  -0.083624  -0.128184  0  3.946559  0
C  C51  1  0.41425214  0.82681890  0.82923583  1  -0.052361  0  -0.083586  -0.12835  0  3.946506  0
C  C52  1  0.91393809  0.13323580  0.13135213  1  -0.062881  0  -0.079449  -0.085799  0  3.982649  0
C  C53  1  0.41393122  0.86676383  0.86864766  1  -0.062663  0  -0.079376  -0.085626  0  3.982401  0
C  C54  1  0.09484795  0.11105230  0.11256955  1  0.004232  0  -0.013745  -0.044173  0  3.968825  0
C  C55  1  0.59484038  0.88894923  0.88742929  1  0.003996  0  -0.013914  -0.044405  0  3.969076  0
C  C56  1  0.27660756  0.12921969  0.13414085  1  -0.070135  0  -0.079881  -0.087169  0  3.986855  0
C  C57  1  0.77659730  0.87078292  0.86585766  1  -0.069935  0  -0.079817  -0.087005  0  3.986982  0
C  C58  1  0.27820556  0.16899349  0.17364034  1  0.043762  0  -0.082552  -0.126306  0  3.949372  0
C  C59  1  0.77819349  0.83100961  0.82635777  1  0.043626  0  -0.082648  -0.12655  0  3.94979  0
C  C60  1  0.09677617  0.19182850  0.19255950  1  0.085901  0  0.003901  0.145995  0  4.109868  0
C  C61  1  0.59676345  0.80817133  0.80743855  1  0.08621  0  0.003902  0.146279  0  4.110135  0
C  C62  1  0.09883967  0.23268716  0.23253583  1  -0.087855  0  -0.044213  -0.108447  0  4.113846  0
C  C63  1  0.59882815  0.76731760  0.76746590  1  -0.088262  0  -0.044417  -0.108817  0  4.113488  0
C  C64  1  0.10282794  0.26803579  0.26701986  1  -0.318097  0  -0.042386  -0.103323  0  4.11287  0
C  C65  1  0.60282536  0.73196325  0.73297336  1  -0.317466  0  -0.042214  -0.103202  0  4.112682  0
C  C66  1  0.92462373  0.33163843  0.32625639  1  0.018263  0  -0.082252  -0.125548  0  3.949134  0
C  C67  1  0.42462900  0.66836189  0.67374105  1  0.018343  0  -0.082313  -0.125901  0  3.949155  0
C  C68  1  0.92715725  0.37114842  0.36597389  1  -0.073585  0  -0.076991  -0.082808  0  3.980617  0
C  C69  1  0.42716367  0.62885238  0.63402317  1  -0.073448  0  -0.077022  -0.082724  0  3.980451  0
C  C70  1  0.10944810  0.38902867  0.38745318  1  -0.06843  0  -0.01255  -0.041747  0  3.962622  0
C  C71  1  0.60945345  0.61097532  0.61254335  1  -0.068672  0  -0.012545  -0.041797  0  3.962534  0
C  C72  1  0.28991051  0.36704054  0.36823908  1  0.00461  0  -0.076514  -0.081618  0  3.976506  0
C  C73  1  0.78991660  0.63296499  0.63175711  1  0.004415  0  -0.076395  -0.081377  0  3.976149  0
C  C74  1  0.28865377  0.32734051  0.32863164  1  0.009115  0  -0.083009  -0.127445  0  3.94498  0
C  C75  1  0.78865719  0.67266498  0.67136493  1  0.00921  0  -0.083095  -0.127621  0  3.944799  0
C  C76  1  0.10558896  0.30881553  0.30706873  1  0.068246  0  0.004118  0.143648  0  4.110872  0
C  C77  1  0.60559205  0.69118844  0.69292818  1  0.068087  0  0.00422  0.143967  0  4.111254  0
C  C78  1  0.30799874  0.20808055  0.76071988  1  -0.047084  0  -0.153685  -0.193212  0  3.847658  0
C  C79  1  0.80805863  0.79189229  0.23926713  1  -0.045806  0  -0.153614  -0.193099  0  3.847242  0
C  C80  1  0.93372911  0.19788662  0.75198627  1  -0.03414  0  -0.155642  -0.194957  0  3.851623  0
C  C81  1  0.43380714  0.80214085  0.24802427  1  -0.034728  0  -0.155635  -0.194755  0  3.852086  0
C  C82  1  0.94889232  0.24396289  0.70067653  1  -0.020412  0  -0.155254  -0.19358  0  3.856606  0
C  C83  1  0.44894683  0.75605675  0.29933130  1  -0.021027  0  -0.155262  -0.193645  0  3.856055  0
C  C84  1  0.10915227  0.37844337  0.62455057  1  0.200919  0  -0.041933  -0.19914  0  3.9586  0
C  C85  1  0.60911912  0.62155624  0.37544882  1  0.201349  0  -0.041884  -0.199208  0  3.958655  0
C  C86  1  0.10669001  0.20804068  0.79178666  1  0.137503  0  0.002944  0.177732  0  3.895479  0
C  C87  1  0.60670478  0.79196104  0.20821392  1  0.136833  0  0.002831  0.176965  0  3.896247  0
C  C88  1  0.31485926  0.26254536  0.71618989  1  -0.044942  0  -0.152946  -0.19356  0  3.833356  0
C  C89  1  0.81487145  0.73743400  0.28380614  1  -0.045752  0  -0.152999  -0.193224  0  3.833083  0
C  C90  1  0.10584213  0.29329757  0.70930186  1  0.140626  0  0.009655  0.145291  0  3.875906  0
C  C91  1  0.60582684  0.70670580  0.29069994  1  0.140907  0  0.009765  0.145666  0  3.875891  0
C  C92  1  0.06863948  0.32073903  0.76399327  1  0.182347  0  0.02187  -0.021492  0  3.67169  0
C  C93  1  0.56855725  0.67926670  0.23600899  1  0.182674  0  0.021803  -0.022753  0  3.67209  0
C  C94  1  0.07955811  0.27096209  0.81223332  1  -0.001218  0  -0.147804  -0.236185  0  3.833486  0
C  C95  1  0.57945611  0.72904339  0.18777067  1  -0.000451  0  -0.147561  -0.235224  0  3.833292  0
C  C96  1  0.10751636  0.34016738  0.66355965  1  -0.476098  0  -0.022865  -0.039525  0  4.033635  0
C  C97  1  0.60748450  0.65983424  0.33644176  1  -0.476376  0  -0.02302  -0.039598  0  4.033589  0
C  C98  1  0.10338725  0.16168972  0.83793077  1  -0.50845  0  -0.016801  -0.021893  0  4.01551  0
C  C99  1  0.60341110  0.83831273  0.16207141  1  -0.50835  0  -0.01677  -0.021545  0  4.01552  0
C  C100  1  0.09827126  0.12286387  0.87653795  1  0.228082  0  -0.051792  -0.227069  0  3.979885  0
C  C101  1  0.59829641  0.87713654  0.12346256  1  0.228177  0  -0.051761  -0.227247  0  3.979789  0
C  C102  1  0.59469773  0.93071455  0.93067439  1  1.57826  0  0.263594  0.634995  0  4.110184  0
C  C103  1  0.09470621  0.06928603  0.06932486  1  1.578152  0  0.263493  0.63498  0  4.110036  0
C  C104  1  0.59578108  0.92289417  0.07736891  1  1.672945  0  0.276828  0.73002  0  4.151207  0
C  C105  1  0.09576179  0.07710581  0.92263158  1  1.672392  0  0.276857  0.729824  0  4.1516  0
N  N106  1  0.86785961  0.35346458  0.76196829  1  0.444723  0  0.051321  0.524878  0  4.143585  0
N  N107  1  0.36776286  0.64655450  0.23804326  1  0.444735  0  0.051612  0.525684  0  4.142789  0
O  O108  1  0.44079901  0.55350435  0.55193036  1  -1.25807  0  -0.238225  -0.597564  0  2.352901  0
O  O109  1  0.94079976  0.44649558  0.44806968  1  -1.258225  0  -0.2382  -0.597498  0  2.353068  0
O  O110  1  0.78079178  0.55884480  0.44047570  1  -1.241219  0  -0.226094  -0.581462  0  2.277664  0
O  O111  1  0.28081317  0.44115414  0.55952325  1  -1.241343  0  -0.226087  -0.581446  0  2.277217  0
O  O112  1  0.78086649  0.55432018  0.55159997  1  -1.258795  0  -0.238445  -0.597089  0  2.34751  0
O  O113  1  0.28086719  0.44568391  0.44839735  1  -1.258849  0  -0.238458  -0.597183  0  2.347474  0
O  O114  1  0.94016350  0.44154711  0.55937460  1  -1.237427  0  -0.225323  -0.580136  0  2.28005  0
O  O115  1  0.44014352  0.55845744  0.44062828  1  -1.237636  0  -0.225476  -0.580387  0  2.280008  0
O  O116  1  0.61106105  0.46340882  0.50247253  1  -1.433734  0  -0.447525  -0.994926  0  2.198845  0
O  O117  1  0.11105715  0.53659257  0.49752688  1  -1.433606  0  -0.447506  -0.994844  0  2.19888  0
O  O118  1  0.76548033  0.94104988  0.05865670  1  -1.238101  0  -0.228421  -0.586531  0  2.284092  0
O  O119  1  0.26546549  0.05895054  0.94134536  1  -1.237838  0  -0.228311  -0.586351  0  2.284328  0
O  O120  1  0.42473852  0.94614251  0.94813577  1  -1.258961  0  -0.238761  -0.597262  0  2.350148  0
O  O121  1  0.92474172  0.05385906  0.05186249  1  -1.258859  0  -0.238682  -0.597253  0  2.35007  0
O  O122  1  0.42482610  0.94063295  0.05925798  1  -1.234584  0  -0.228735  -0.585452  0  2.277361  0
O  O123  1  0.92480682  0.05936637  0.94074028  1  -1.234121  0  -0.22879  -0.585392  0  2.277331  0
O  O124  1  0.26483461  0.05307370  0.05255983  1  -1.258699  0  -0.238293  -0.597235  0  2.352249  0
O  O125  1  0.76483143  0.94692593  0.94744141  1  -1.258734  0  -0.238311  -0.597231  0  2.352336  0
O  O126  1  0.59461584  0.03654939  0.99783007  1  -1.433795  0  -0.447611  -0.995714  0  2.198948  0
O  O127  1  0.09462045  0.96345105  0.00217041  1  -1.433728  0  -0.447634  -0.99567  0  2.19883  0
O  O128  1  0.71465967  0.32282360  0.77313448  1  -0.489683  0  -0.137087  -0.352404  0  1.951754  0
O  O129  1  0.87038246  0.40840350  0.74815592  1  -0.424242  0  -0.124257  -0.321445  0  1.873303  0
O  O130  1  0.21457199  0.67720796  0.22688704  1  -0.489361  0  -0.137419  -0.352909  0  1.951348  0
O  O131  1  0.37025582  0.59161611  0.25185118  1  -0.424679  0  -0.12413  -0.32136  0  1.872897  0
