# generated using pymatgen
data_CuH12C20(NO2)2
_symmetry_space_group_name_H-M   'P 1'
_cell_length_a   8.74607860
_cell_length_b   8.74265190
_cell_length_c   12.87133405
_cell_angle_alpha   101.09792476
_cell_angle_beta   108.16559659
_cell_angle_gamma   104.92399489
_symmetry_Int_Tables_number   1
_chemical_formula_structural   CuH12C20(NO2)2
_chemical_formula_sum   'Cu2 H24 C40 N4 O8'
_cell_volume   862.79320948
_cell_formula_units_Z   2
loop_
 _symmetry_equiv_pos_site_id
 _symmetry_equiv_pos_as_xyz
  1  'x, y, z'
loop_
 _atom_site_type_symbol
 _atom_site_label
 _atom_site_symmetry_multiplicity
 _atom_site_fract_x
 _atom_site_fract_y
 _atom_site_fract_z
 _atom_site_occupancy
 _atom_site_hle17_ddec_charge
 _atom_site_hle17_ddec_spin_density
 _atom_site_hle17_ddec_sum_bond_order
 _atom_site_hle17_magmom
 _atom_site_hse06_10hf_ddec_charge
 _atom_site_hse06_10hf_ddec_spin_density
 _atom_site_hse06_10hf_ddec_sum_bond_order
 _atom_site_hse06_10hf_magmom
 _atom_site_hse06_ddec_charge
 _atom_site_hse06_ddec_spin_density
 _atom_site_hse06_ddec_sum_bond_order
 _atom_site_hse06_magmom
 _atom_site_pbe_cm5_charge
 _atom_site_pbe_ddec_charge
 _atom_site_pbe_ddec_spin_density
 _atom_site_pbe_ddec_sum_bond_order
 _atom_site_pbe_magmom
Cu  Cu0  1  0.42047733  0.17066841  0.24998084  1  0.836125  -0.722279  1.812096  -0.489  0.811608  -0.793906  2.196607  -0.597  0.900099  -0.87338  2.126547  -0.679  0.758156  0.759599  -0.736785  2.242788  -0.544
Cu  Cu1  1  0.57952173  0.82933011  0.75001910  1  0.836143  0.722277  1.8121  0.489  0.811592  0.793908  2.196614  0.597  0.900144  0.873381  2.126569  0.679  0.758193  0.759618  0.736782  2.242831  0.544
H  H2  1  0.56787690  0.78836875  0.36167683  1  0.123155  -0.000493  0.936844  0.0  0.134882  -0.00055  0.991293  0.0  0.138433  -0.000386  0.990284  0.0  0.116306  0.132307  -0.000686  0.992197  -0.001
H  H3  1  0.92589180  0.20563372  0.13793683  1  0.123476  -0.000496  0.936007  0.0  0.13473  -0.00055  0.991008  0.0  0.138391  -0.000386  0.989874  0.0  0.11545  0.132074  -0.000685  0.992016  -0.001
H  H4  1  0.43212663  0.21163226  0.63832748  1  0.123109  0.000495  0.936904  0.0  0.134823  0.00055  0.991359  0.0  0.138374  0.000386  0.990352  0.0  0.116312  0.132252  0.000686  0.992258  0.001
H  H5  1  0.07410649  0.79436976  0.86206130  1  0.12342  0.000495  0.936056  0.0  0.134661  0.00055  0.991072  0.0  0.138322  0.000386  0.98994  0.0  0.115436  0.132005  0.000685  0.992079  0.001
H  H6  1  0.58876445  0.51708695  0.38388716  1  0.098826  -0.001428  0.929111  -0.002  0.10344  -0.001129  0.998463  -0.001  0.106046  -0.000827  0.994555  -0.001  0.123357  0.101264  -0.00137  1.001557  -0.001
H  H7  1  0.63268366  0.20459485  0.11597930  1  0.097987  -0.001431  0.930699  -0.002  0.103008  -0.001131  0.999564  -0.001  0.105595  -0.000828  0.99568  -0.001  0.123144  0.100907  -0.001374  1.002588  -0.001
H  H8  1  0.41123624  0.48291279  0.61611561  1  0.098816  0.001432  0.929182  0.002  0.103434  0.001128  0.998528  0.001  0.106036  0.000827  0.99462  0.001  0.123357  0.101261  0.00137  1.001626  0.001
H  H9  1  0.36731215  0.79540118  0.88401806  1  0.097895  0.001427  0.930805  0.002  0.102989  0.001131  0.999588  0.001  0.105577  0.000828  0.995701  0.001  0.123119  0.100881  0.001374  1.002621  0.001
H  H10  1  0.25491951  0.12014155  0.03621076  1  0.111207  0.000255  0.961681  0.0  0.114621  8.4e-05  1.034788  0.0  0.118163  0.000167  1.031595  0.0  0.10575  0.111614  -1e-05  1.037764  0.0
H  H11  1  0.58386874  0.21828931  0.46376728  1  0.110287  0.000254  0.961265  0.0  0.113705  8.6e-05  1.034498  0.0  0.117186  0.000169  1.031356  0.0  0.105124  0.110725  -7e-06  1.03746  0.0
H  H12  1  0.74507678  0.87986306  0.96379099  1  0.111158  -0.000254  0.961719  0.0  0.114576  -8.4e-05  1.034828  0.0  0.118114  -0.000167  1.031641  0.0  0.105713  0.111565  1e-05  1.03781  0.0
H  H13  1  0.41613269  0.78170184  0.53623368  1  0.110297  -0.000255  0.961165  0.0  0.113689  -8.6e-05  1.034439  0.0  0.11717  -0.000168  1.031299  0.0  0.10511  0.110708  7e-06  1.037405  0.0
H  H14  1  0.04884206  0.11340198  0.85125509  1  0.101613  0.000129  0.974634  0.0  0.110237  0.000209  1.037095  0.0  0.113891  0.000137  1.035124  0.0  0.100692  0.107603  0.000271  1.038557  0.0
H  H15  1  0.76248450  0.19800041  0.64887252  1  0.101789  0.00013  0.973749  0.0  0.110569  0.000209  1.036079  0.0  0.114068  0.000137  1.034273  0.0  0.101007  0.108026  0.000271  1.037455  0.0
H  H16  1  0.95115748  0.88660517  0.14874614  1  0.101565  -0.00013  0.97474  0.0  0.110206  -0.000209  1.037173  0.0  0.11386  -0.000137  1.035204  0.0  0.10068  0.107571  -0.000271  1.038635  0.0
H  H17  1  0.23752301  0.80199461  0.35112714  1  0.101804  -0.000134  0.973709  0.0  0.110586  -0.000208  1.036048  0.0  0.114085  -0.000137  1.034242  0.0  0.101026  0.10804  -0.000271  1.037429  0.0
H  H18  1  0.01102529  0.37688746  0.81782792  1  0.086372  9.5e-05  0.962916  0.0  0.097233  -3e-06  1.024795  0.0  0.099592  -6e-06  1.024808  0.0  0.100131  0.095483  -3e-06  1.024997  0.0
H  H19  1  0.05914962  0.19338381  0.68214230  1  0.086547  9.4e-05  0.963447  0.0  0.096953  -3e-06  1.025674  0.0  0.099283  -5e-06  1.025768  0.0  0.100238  0.095255  -2e-06  1.025806  0.0
H  H20  1  0.98897829  0.62312101  0.18217434  1  0.08636  -9.3e-05  0.96292  0.0  0.097225  3e-06  1.024797  0.0  0.0996  6e-06  1.024792  0.0  0.100121  0.095476  3e-06  1.024999  0.0
H  H21  1  0.94085750  0.80661371  0.31785529  1  0.08649  -9.4e-05  0.963483  0.0  0.096909  2e-06  1.025706  0.0  0.099238  5e-06  1.0258  0.0  0.10023  0.09521  2e-06  1.025836  0.0
H  H22  1  0.17854906  0.64440981  0.96955327  1  0.100443  -0.000502  0.98959  -0.001  0.109666  -0.00029  1.053377  0.0  0.112179  -0.000193  1.052572  0.0  0.103639  0.107834  -0.000377  1.054014  0.0
H  H23  1  0.17435689  0.20830387  0.53010152  1  0.099813  -0.000502  0.990922  -0.001  0.108564  -0.000294  1.055241  0.0  0.111074  -0.000195  1.054402  0.0  0.102366  0.106753  -0.000382  1.055855  0.0
H  H24  1  0.82145249  0.35559610  0.03045132  1  0.100446  0.000499  0.989538  0.001  0.109671  0.00029  1.053324  0.0  0.112179  0.000193  1.052522  0.0  0.103643  0.10784  0.000377  1.053961  0.0
H  H25  1  0.82564663  0.79169732  0.46989350  1  0.099702  0.000501  0.990893  0.001  0.108489  0.000293  1.055185  0.0  0.111002  0.000195  1.05434  0.0  0.102337  0.106678  0.000382  1.055798  0.0
C  C26  1  0.38937136  0.85232228  0.17387752  1  0.624535  0.00348  3.909812  0.006  0.581721  -0.000161  4.213126  0.002  0.61758  0.000427  4.205695  0.002  0.202833  0.557456  -0.000732  4.217626  0.002
C  C27  1  0.17793802  0.21547603  0.32581565  1  0.623252  0.003498  3.913194  0.006  0.580108  -0.000148  4.216776  0.002  0.61595  0.000439  4.209413  0.002  0.19917  0.555864  -0.000719  4.221228  0.002
C  C28  1  0.61062652  0.14767986  0.82612578  1  0.624256  -0.003479  3.910184  -0.006  0.581445  0.000165  4.213508  -0.002  0.617303  -0.000427  4.206082  -0.002  0.202642  0.557187  0.000733  4.218005  -0.002
C  C29  1  0.82206062  0.78452129  0.67418169  1  0.623228  -0.0035  3.913215  -0.006  0.580126  0.000152  4.216711  -0.002  0.615966  -0.00044  4.209351  -0.002  0.199162  0.555884  0.000719  4.221165  -0.002
C  C30  1  0.40011709  0.68585953  0.18394596  1  -0.023374  0.002621  3.676482  0.002  -0.00923  -0.001008  3.905575  -0.001  -0.008313  0.000752  3.920837  0.0  0.012584  -0.010065  -0.002573  3.895412  -0.003
C  C31  1  0.00139695  0.21588843  0.31575012  1  -0.025535  0.002515  3.675255  0.002  -0.011262  -0.001057  3.90437  -0.001  -0.010363  0.000707  3.919639  0.0  0.011841  -0.012079  -0.002638  3.894208  -0.003
C  C32  1  0.59988564  0.31414273  0.81605681  1  -0.023347  -0.002622  3.676531  -0.002  -0.009189  0.001006  3.905645  0.001  -0.008268  -0.00075  3.920903  0.0  0.01261  -0.010031  0.002573  3.895484  0.003
C  C33  1  0.99860049  0.78410889  0.68424620  1  -0.025571  -0.002532  3.675263  -0.002  -0.011261  0.001057  3.904309  0.001  -0.010362  -0.000708  3.919573  0.0  0.011826  -0.012078  0.002639  3.894148  0.003
C  C34  1  0.50084701  0.67749815  0.28829641  1  -0.126597  -0.012714  3.696745  -0.012  -0.1483  -0.005156  3.943418  -0.005  -0.154209  -0.004613  3.959919  -0.005  -0.08008  -0.144515  -0.005634  3.93248  -0.006
C  C35  1  0.88857582  0.21217262  0.21139718  1  -0.124733  -0.012617  3.692724  -0.012  -0.146039  -0.005124  3.939176  -0.005  -0.152031  -0.004578  3.955673  -0.005  -0.077619  -0.142218  -0.005594  3.928277  -0.006
C  C36  1  0.49915492  0.32250531  0.71170714  1  -0.126535  0.012708  3.6968  0.012  -0.148211  0.005155  3.943472  0.005  -0.154122  0.004612  3.959971  0.005  -0.080049  -0.144425  0.005634  3.932537  0.006
C  C37  1  0.11142244  0.78782716  0.78860043  1  -0.124631  0.012636  3.692698  0.012  -0.145947  0.005122  3.93913  0.005  -0.151937  0.00458  3.955625  0.005  -0.077588  -0.142125  0.005594  3.928227  0.006
C  C38  1  0.51303875  0.52474302  0.30097261  1  0.158486  0.011024  3.676803  0.011  0.125615  0.002198  3.942684  0.003  0.138504  0.00357  3.957061  0.005  0.060417  0.117236  0.000868  3.933448  0.002
C  C39  1  0.72329108  0.21181152  0.19885385  1  0.157584  0.010952  3.674534  0.011  0.124167  0.002174  3.940457  0.003  0.137041  0.003547  3.954905  0.005  0.05928  0.115742  0.000834  3.931151  0.002
C  C40  1  0.48696318  0.47526045  0.69903094  1  0.158513  -0.011027  3.676958  -0.011  0.125623  -0.002196  3.942859  -0.003  0.138518  -0.00357  3.957241  -0.005  0.060413  0.117238  -0.000867  3.933625  -0.002
C  C41  1  0.27670553  0.78818330  0.80114273  1  0.157643  -0.010951  3.674528  -0.011  0.124199  -0.002172  3.940424  -0.003  0.137074  -0.003547  3.954877  -0.005  0.05934  0.115781  -0.000833  3.931122  -0.002
C  C42  1  0.32778029  0.38551269  0.11020741  1  0.204597  0.001524  3.751885  0.003  0.205146  -0.002053  3.988984  -0.001  0.212979  -0.000686  4.013139  0.0  0.111067  0.200114  -0.003138  3.972973  -0.002
C  C43  1  0.77506259  0.21735760  0.38966822  1  0.201334  0.001504  3.752653  0.003  0.202221  -0.002043  3.989402  -0.001  0.210051  -0.00069  4.013575  0.0  0.109551  0.19719  -0.003118  3.973359  -0.002
C  C44  1  0.67222043  0.61449076  0.88979511  1  0.204666  -0.001516  3.751796  -0.003  0.205224  0.002052  3.988929  0.001  0.213059  0.000688  4.013083  0.0  0.111086  0.200192  0.003139  3.972917  0.002
C  C45  1  0.22493440  0.78263477  0.61032810  1  0.201323  -0.00151  3.752741  -0.003  0.202235  0.002043  3.989471  0.001  0.210067  0.000691  4.013644  0.0  0.109519  0.197205  0.003118  3.97343  0.002
C  C46  1  0.23675072  0.23415994  0.02105929  1  -0.14441  -0.006048  3.708205  -0.006  -0.165518  -0.001891  3.961042  -0.002  -0.172004  -0.001853  3.982146  -0.002  -0.087919  -0.161403  -0.00192  3.947395  -0.002
C  C47  1  0.71308412  0.21557571  0.47891542  1  -0.141681  -0.005996  3.706089  -0.006  -0.162818  -0.001871  3.958711  -0.002  -0.169235  -0.001835  3.979811  -0.002  -0.086942  -0.158738  -0.001893  3.945032  -0.002
C  C48  1  0.76324557  0.76584466  0.97894247  1  -0.144445  0.006043  3.708113  0.006  -0.165562  0.001892  3.96097  0.002  -0.172048  0.001853  3.982075  0.002  -0.087908  -0.161447  0.00192  3.947324  0.002
C  C49  1  0.28691609  0.78441545  0.52108373  1  -0.141714  0.006005  3.70598  0.006  -0.162823  0.001872  3.958596  0.002  -0.169243  0.001835  3.9797  0.002  -0.086914  -0.158744  0.001893  3.94492  0.002
C  C50  1  0.12446306  0.23156198  0.91749025  1  -0.036648  0.00543  3.73413  0.005  -0.049467  0.001507  3.9789  0.002  -0.048898  0.001684  3.99893  0.002  -0.081722  -0.049605  0.00129  3.965246  0.001
C  C51  1  0.81425869  0.20722659  0.58255383  1  -0.038117  0.00541  3.733344  0.005  -0.051149  0.001512  3.978422  0.002  -0.050441  0.001683  3.998422  0.002  -0.082761  -0.051374  0.0013  3.964772  0.001
C  C52  1  0.87553485  0.76844390  0.08251124  1  -0.036489  -0.005426  3.734045  -0.005  -0.049314  -0.001507  3.978805  -0.002  -0.048744  -0.001685  3.998837  -0.002  -0.081677  -0.04945  -0.00129  3.965147  -0.001
C  C53  1  0.18574757  0.79276474  0.41744350  1  -0.038033  -0.005413  3.733149  -0.005  -0.051085  -0.001512  3.978231  -0.002  -0.050378  -0.001683  3.998234  -0.002  -0.082769  -0.051309  -0.0013  3.964581  -0.001
C  C54  1  0.10229735  0.38008084  0.89902201  1  -0.068317  -0.004746  3.772598  -0.004  -0.083735  -0.001122  4.026184  -0.001  -0.087741  -0.00132  4.04908  -0.001  -0.090311  -0.081161  -0.000969  4.010719  -0.001
C  C55  1  0.98114085  0.20347720  0.60097118  1  -0.068961  -0.00468  3.772039  -0.004  -0.083922  -0.001112  4.025603  -0.001  -0.087916  -0.00131  4.048438  -0.001  -0.090313  -0.08139  -0.000958  4.010159  -0.001
C  C56  1  0.89770381  0.61992755  0.10098129  1  -0.068535  0.004741  3.772621  0.004  -0.083959  0.001121  4.026223  0.001  -0.087976  0.001322  4.049113  0.001  -0.090425  -0.081384  0.000969  4.010757  0.001
C  C57  1  0.01886140  0.79651652  0.39902564  1  -0.068881  0.004695  3.772254  0.004  -0.083841  0.001112  4.025819  0.001  -0.087834  0.001309  4.048658  0.001  -0.090267  -0.08131  0.000957  4.010371  0.001
C  C58  1  0.19390979  0.52954397  0.98297229  1  -0.104222  0.00378  3.751903  0.004  -0.127478  0.000557  4.001841  0.001  -0.129328  0.000972  4.024646  0.001  -0.090496  -0.125904  0.000115  3.986296  0.0
C  C59  1  0.04626192  0.21059066  0.51679438  1  -0.103303  0.003688  3.751269  0.003  -0.126138  0.000524  4.001025  0.0  -0.127943  0.000944  4.023836  0.001  -0.089241  -0.124602  6.9e-05  3.985463  0.0
C  C60  1  0.80609176  0.47046193  0.01703229  1  -0.103992  -0.003771  3.751734  -0.004  -0.127221  -0.000555  4.001679  -0.001  -0.129068  -0.000974  4.024494  -0.001  -0.09034  -0.125649  -0.000115  3.986134  0.0
C  C61  1  0.95374157  0.78940683  0.48320012  1  -0.103332  -0.003703  3.751525  -0.003  -0.126195  -0.000522  4.001297  0.0  -0.128004  -0.000944  4.024111  -0.001  -0.089302  -0.124657  -6.9e-05  3.985731  0.0
C  C62  1  0.30896362  0.53714190  0.09101898  1  0.007928  -0.009152  3.746308  -0.01  0.021506  -0.0047  3.965438  -0.005  0.017676  -0.004024  3.989676  -0.005  0.001862  0.023872  -0.005203  3.949177  -0.006
C  C63  1  0.94578045  0.21766807  0.40877223  1  0.010896  -0.009121  3.743409  -0.01  0.024005  -0.004707  3.96279  -0.006  0.020195  -0.004018  3.98701  -0.005  0.004189  0.026345  -0.005212  3.946552  -0.006
C  C64  1  0.69103589  0.46286149  0.90898561  1  0.007831  0.009148  3.746252  0.01  0.021339  0.004701  3.9655  0.005  0.017506  0.004024  3.989736  0.005  0.001767  0.023708  0.005203  3.949234  0.006
C  C65  1  0.05421616  0.78232677  0.59122357  1  0.010904  0.009131  3.743327  0.01  0.023983  0.004707  3.962722  0.006  0.020175  0.00402  3.986937  0.005  0.004235  0.026322  0.005212  3.946483  0.006
N  N66  1  0.42976972  0.38448468  0.21536595  1  -0.349278  -0.084993  3.343346  -0.101  -0.305749  -0.060288  3.63876  -0.077  -0.336787  -0.05186  3.65999  -0.069  -0.348808  -0.287166  -0.06499  3.626011  -0.08
N  N67  1  0.66886037  0.21432803  0.28456748  1  -0.346583  -0.084922  3.339796  -0.101  -0.302529  -0.060251  3.634321  -0.077  -0.333593  -0.051825  3.655634  -0.069  -0.34723  -0.283906  -0.064939  3.621518  -0.08
N  N68  1  0.57022858  0.61551873  0.78463605  1  -0.349305  0.084988  3.343423  0.101  -0.305748  0.060286  3.638821  0.077  -0.336796  0.05186  3.66007  0.069  -0.348822  -0.287174  0.06499  3.626099  0.08
N  N69  1  0.33113542  0.78566430  0.71542935  1  -0.346545  0.08493  3.339835  0.101  -0.30255  0.06025  3.634425  0.077  -0.333635  0.051825  3.655768  0.069  -0.34726  -0.283938  0.06494  3.621646  0.08
O  O70  1  0.39936996  0.94821457  0.26783078  1  -0.584735  -0.101184  2.059929  -0.128  -0.557326  -0.062359  2.333433  -0.087  -0.599552  -0.049875  2.327835  -0.073  -0.323388  -0.529282  -0.069736  2.337117  -0.094
O  O71  1  0.18008368  0.13170072  0.23188658  1  -0.585012  -0.101401  2.059573  -0.128  -0.556785  -0.062565  2.33247  -0.087  -0.599016  -0.050046  2.326895  -0.073  -0.32243  -0.52866  -0.069964  2.335955  -0.094
O  O72  1  0.60063034  0.05178761  0.73217303  1  -0.584761  0.101183  2.059941  0.128  -0.557337  0.062355  2.333416  0.087  -0.599575  0.049871  2.32783  0.073  -0.323436  -0.529301  0.069732  2.337116  0.094
O  O73  1  0.81991293  0.86829410  0.76811000  1  -0.58506  0.101403  2.059442  0.128  -0.556837  0.062562  2.332302  0.087  -0.599086  0.050043  2.326753  0.073  -0.322508  -0.528719  0.069963  2.335804  0.094
O  O74  1  0.37663078  0.89098252  0.08371747  1  -0.598253  0.00208  1.902165  0.002  -0.564025  0.001098  2.126831  0.001  -0.589169  0.001816  2.117962  0.002  -0.315642  -0.546513  0.000272  2.132482  0.0
O  O75  1  0.30660037  0.29285670  0.41603293  1  -0.596484  0.00209  1.903211  0.002  -0.562243  0.001111  2.127846  0.001  -0.58744  0.001829  2.11903  0.002  -0.313244  -0.544691  0.000294  2.13344  0.0
O  O76  1  0.62336427  0.10901834  0.91628506  1  -0.598  -0.002079  1.902339  -0.002  -0.56375  -0.0011  2.126976  -0.001  -0.588899  -0.001816  2.118117  -0.002  -0.315433  -0.54624  -0.000272  2.132622  0.0
O  O77  1  0.69339789  0.70714311  0.58396313  1  -0.596405  -0.002092  1.903246  -0.002  -0.562184  -0.001113  2.127847  -0.001  -0.587387  -0.001826  2.119039  -0.002  -0.313184  -0.544633  -0.000294  2.133441  0.0
