# generated using pymatgen
data_ZnH12C20(NO2)3
_symmetry_space_group_name_H-M   'P 1'
_cell_length_a   14.81582668
_cell_length_b   15.91388335
_cell_length_c   19.17094116
_cell_angle_alpha   89.98605833
_cell_angle_beta   90.00001887
_cell_angle_gamma   89.99831921
_symmetry_Int_Tables_number   1
_chemical_formula_structural   ZnH12C20(NO2)3
_chemical_formula_sum   'Zn2 H24 C40 N6 O12'
_cell_volume   4520.07332872
_cell_formula_units_Z   2
loop_
 _symmetry_equiv_pos_site_id
 _symmetry_equiv_pos_as_xyz
  1  'x, y, z'
loop_
 _atom_site_type_symbol
 _atom_site_label
 _atom_site_symmetry_multiplicity
 _atom_site_fract_x
 _atom_site_fract_y
 _atom_site_fract_z
 _atom_site_occupancy
 _atom_site_pbe_bader_charge
 _atom_site_pbe_bader_spin_density
 _atom_site_pbe_cm5_charge
 _atom_site_pbe_ddec_charge
 _atom_site_pbe_ddec_spin_density
 _atom_site_pbe_ddec_sum_bond_order
 _atom_site_pbe_magmom
Zn  Zn0  1  0.40586704  0.49714652  0.50458005  1  1.310004  0  0.680348  0.885456  0  2.435992  0
Zn  Zn1  1  0.59412721  0.49714332  0.50457904  1  1.291297  0  0.680363  0.885478  0  2.435862  0
H  H2  1  0.35527225  0.51550257  0.72535554  1  0.093751  0  0.106246  0.112341  0  0.995575  0
H  H3  1  0.08442097  0.36465712  0.48849381  1  0.116846  0  0.133349  0.13821  0  0.954781  0
H  H4  1  0.91558418  0.36465768  0.48849185  1  0.116918  0  0.133341  0.138222  0  0.954765  0
H  H5  1  0.08441607  0.63436617  0.51730700  1  0.1358  0  0.133681  0.139134  0  0.952557  0
H  H6  1  0.36728648  0.80843513  0.38002041  1  0.083977  0  0.094463  0.095576  0  1.023857  0
H  H7  1  0.30575838  0.89242211  0.33819811  1  0.043944  0  0.092318  0.085785  0  0.99331  0
H  H8  1  0.25122451  0.82606885  0.40123133  1  0.087482  0  0.105582  0.110857  0  0.972822  0
H  H9  1  0.63259698  0.18836118  0.38137100  1  0.073968  0  0.094374  0.095686  0  1.025976  0
H  H10  1  0.69367283  0.10535633  0.33787981  1  0.030069  0  0.091666  0.085043  0  0.994017  0
H  H11  1  0.74864547  0.16995674  0.40188729  1  0.080232  0  0.105518  0.11125  0  0.972908  0
H  H12  1  0.30631071  0.10537482  0.33789593  1  0.030329  0  0.091668  0.084977  0  0.993893  0
H  H13  1  0.64461411  0.51505076  0.28321034  1  0.092226  0  0.104696  0.111015  0  0.997326  0
H  H14  1  0.36737722  0.18836920  0.38139809  1  0.073815  0  0.09432  0.095593  0  1.026018  0
H  H15  1  0.25133269  0.16996292  0.40191069  1  0.079956  0  0.105531  0.111093  0  0.972736  0
H  H16  1  0.69421055  0.89240360  0.33817574  1  0.044186  0  0.092356  0.085863  0  0.993288  0
H  H17  1  0.63269928  0.80842395  0.38001627  1  0.083881  0  0.094494  0.095536  0  1.023745  0
H  H18  1  0.74876678  0.82606456  0.40120480  1  0.087947  0  0.105721  0.111071  0  0.972757  0
H  H19  1  0.35538421  0.51505221  0.28320247  1  0.092402  0  0.104738  0.111097  0  0.997363  0
H  H20  1  0.64473365  0.51550552  0.72535245  1  0.093856  0  0.106223  0.112267  0  0.995699  0
H  H21  1  0.35469880  0.54344152  0.85413982  1  0.13599  0  0.105408  0.103818  0  1.013485  0
H  H22  1  0.64530817  0.54299893  0.15417993  1  0.088155  0  0.104607  0.102637  0  1.014644  0
H  H23  1  0.35469732  0.54300166  0.15417259  1  0.088096  0  0.104659  0.102767  0  1.014547  0
H  H24  1  0.64531167  0.54344257  0.85413569  1  0.135837  0  0.105388  0.103841  0  1.0135  0
H  H25  1  0.91557860  0.63437050  0.51730503  1  0.1371  0  0.133715  0.139185  0  0.952554  0
C  C26  1  0.49999624  0.66046573  0.49374251  1  1.666578  0  0.214862  0.662337  0  4.251975  0
C  C27  1  0.95316229  0.57602354  0.51089523  1  0.089559  0  -0.049625  -0.087585  0  3.914428  0
C  C28  1  0.09333837  0.49949645  0.50287224  1  0.074208  0  0.0268  0.064109  0  4.078425  0
C  C29  1  0.90665850  0.49949663  0.50286975  1  0.074358  0  0.026846  0.064192  0  4.078175  0
C  C30  1  0.18923043  0.49907266  0.50352793  1  0.860191  0  0.247301  0.288049  0  3.911406  0
C  C31  1  0.81076510  0.49907421  0.50352489  1  0.8603  0  0.247305  0.2881  0  3.911662  0
C  C32  1  0.50000347  0.50265385  0.64020832  1  1.577472  0  0.218464  0.597554  0  4.163298  0
C  C33  1  0.49999803  0.50245641  0.36796502  1  1.573099  0  0.2132  0.587854  0  4.179961  0
C  C34  1  0.41821093  0.52154535  0.75428690  1  -0.001544  0  -0.080404  -0.086582  0  3.966661  0
C  C35  1  0.58183115  0.52115278  0.25406941  1  0.02108  0  -0.082876  -0.0901  0  3.974965  0
C  C36  1  0.41816900  0.52115314  0.25406574  1  0.021409  0  -0.082821  -0.09006  0  3.975017  0
C  C37  1  0.49999461  0.33453599  0.49329769  1  1.636139  0  0.21585  0.665418  0  4.252513  0
C  C38  1  0.58179749  0.52154625  0.75428431  1  -0.001791  0  -0.080386  -0.086443  0  3.966657  0
C  C39  1  0.41793465  0.53694759  0.82564350  1  -0.047617  0  -0.081898  -0.107392  0  3.965216  0
C  C40  1  0.58211842  0.53656011  0.18274079  1  -0.064288  0  -0.082991  -0.107736  0  3.970361  0
C  C41  1  0.41788661  0.53656111  0.18273712  1  -0.06382  0  -0.083098  -0.107977  0  3.970616  0
C  C42  1  0.58207804  0.53694785  0.82563987  1  -0.017591  0  -0.081977  -0.107593  0  3.965514  0
C  C43  1  0.50000824  0.54570183  0.86189118  1  -0.08607  0  -0.005096  0.017184  0  4.003261  0
C  C44  1  0.50000203  0.54536473  0.14656581  1  -9.1e-05  0  -0.006618  0.016663  0  4.004326  0
C  C45  1  0.49999993  0.51453079  0.71788173  1  -0.087339  0  -0.00773  -0.01493  0  3.93458  0
C  C46  1  0.49999850  0.51421227  0.29035863  1  -0.036044  0  -0.011279  -0.015915  0  3.943036  0
C  C47  1  0.50000377  0.56305674  0.07157385  1  0.910846  0  0.237673  0.245031  0  4.002651  0
C  C48  1  0.49998972  0.17271699  0.45843589  1  -0.239703  0  -0.028974  -0.012937  0  4.146061  0
C  C49  1  0.50000595  0.56325137  0.93689134  1  0.944327  0  0.239086  0.248585  0  3.991758  0
C  C50  1  0.41681991  0.04167108  0.43960701  1  0.586889  0  0.080977  0.113183  0  4.044633  0
C  C51  1  0.58316080  0.95350269  0.43999037  1  0.548361  0  0.080145  0.111633  0  4.045327  0
C  C52  1  0.41683393  0.95350434  0.43999713  1  0.548204  0  0.080051  0.111586  0  4.045336  0
C  C53  1  0.58316702  0.04167069  0.43960025  1  0.587125  0  0.081122  0.112973  0  4.044657  0
C  C54  1  0.49998973  0.08597969  0.44365268  1  0.119569  0  -0.016777  -0.062913  0  4.137769  0
C  C55  1  0.50000042  0.90923108  0.44433291  1  0.095895  0  -0.016191  -0.060484  0  4.132748  0
C  C56  1  0.31489513  0.85663564  0.38694964  1  0.329006  0  -0.136774  -0.166245  0  3.921997  0
C  C57  1  0.68485065  0.13984063  0.38728047  1  0.358076  0  -0.136635  -0.166971  0  3.922414  0
C  C58  1  0.31512980  0.13984883  0.38730180  1  0.358225  0  -0.136685  -0.166632  0  3.921919  0
C  C59  1  0.50000044  0.82243813  0.45915650  1  0.047116  0  -0.028177  -0.012348  0  4.142088  0
C  C60  1  0.68509655  0.85662807  0.38693300  1  0.328872  0  -0.13698  -0.166623  0  3.921819  0
C  C61  1  0.49999485  0.74858354  0.47610687  1  -0.336207  0  -0.03796  -0.177739  0  3.917987  0
C  C62  1  0.49998992  0.24650638  0.47557148  1  -0.055569  0  -0.037827  -0.178267  0  3.917658  0
C  C63  1  0.04683015  0.57602401  0.51089614  1  -0.085055  0  -0.049517  -0.087354  0  3.914393  0
C  C64  1  0.95318427  0.42301249  0.49462051  1  -0.063825  0  -0.049813  -0.087433  0  3.916272  0
C  C65  1  0.04681837  0.42301171  0.49462194  1  0.112549  0  -0.049795  -0.087296  0  3.916296  0
N  N66  1  0.57981232  0.57538732  0.96996132  1  -0.606415  0  -0.159632  -0.153712  0  3.221967  0
N  N67  1  0.42020917  0.57525298  0.03857142  1  -0.500653  0  -0.160013  -0.154013  0  3.227608  0
N  N68  1  0.57979932  0.57525017  0.03857249  1  -0.500868  0  -0.160113  -0.154155  0  3.227757  0
N  N69  1  0.42019854  0.57538951  0.96995974  1  -0.606679  0  -0.159505  -0.153613  0  3.221455  0
N  N70  1  0.73250219  0.49816390  0.50425253  1  -1.109471  0  -0.257664  -0.257935  0  3.094567  0
N  N71  1  0.26749945  0.49817152  0.50425872  1  -1.108975  0  -0.25763  -0.257886  0  3.094228  0
O  O72  1  0.42292583  0.62563544  0.50023893  1  -1.134355  0  -0.31895  -0.54986  0  2.250001  0
O  O73  1  0.66449023  0.08217155  0.44290727  1  -1.059535  0  -0.20205  -0.165698  0  2.558408  0
O  O74  1  0.33549340  0.08217103  0.44291974  1  -1.05964  0  -0.201774  -0.165683  0  2.558115  0
O  O75  1  0.66440361  0.91285046  0.44348795  1  -1.062682  0  -0.202802  -0.16732  0  2.558004  0
O  O76  1  0.57709608  0.36926988  0.49983662  1  -1.141199  0  -0.319003  -0.550114  0  2.254345  0
O  O77  1  0.42288126  0.36926948  0.49984077  1  -1.140324  0  -0.318946  -0.550037  0  2.254005  0
O  O78  1  0.57706573  0.62563396  0.50023635  1  -1.134461  0  -0.318941  -0.549819  0  2.250059  0
O  O79  1  0.42335711  0.49880528  0.61016801  1  -1.155814  0  -0.318424  -0.553156  0  2.31567  0
O  O80  1  0.57668163  0.49869595  0.39782425  1  -1.16633  0  -0.319454  -0.55443  0  2.321022  0
O  O81  1  0.42330240  0.49869805  0.39782266  1  -1.165951  0  -0.319498  -0.554527  0  2.320495  0
O  O82  1  0.57664049  0.49880318  0.61016855  1  -1.155771  0  -0.318436  -0.553223  0  2.315959  0
O  O83  1  0.33559712  0.91284993  0.44350824  1  -1.061841  0  -0.20272  -0.167511  0  2.558148  0
