# generated using pymatgen
data_HgH20C28Br2(N4O)2
_symmetry_space_group_name_H-M   'P 1'
_cell_length_a   3.95324352
_cell_length_b   11.85497149
_cell_length_c   14.20072179
_cell_angle_alpha   97.16044368
_cell_angle_beta   92.72928110
_cell_angle_gamma   90.13985161
_symmetry_Int_Tables_number   1
_chemical_formula_structural   HgH20C28Br2(N4O)2
_chemical_formula_sum   'Hg1 H20 C28 Br2 N8 O2'
_cell_volume   659.56216274
_cell_formula_units_Z   1
loop_
 _symmetry_equiv_pos_site_id
 _symmetry_equiv_pos_as_xyz
  1  'x, y, z'
loop_
 _atom_site_type_symbol
 _atom_site_label
 _atom_site_symmetry_multiplicity
 _atom_site_fract_x
 _atom_site_fract_y
 _atom_site_fract_z
 _atom_site_occupancy
 _atom_site_hle17_bader_spin_density
 _atom_site_hle17_ddec_charge
 _atom_site_hle17_ddec_spin_density
 _atom_site_hle17_ddec_sum_bond_order
 _atom_site_hle17_magmom
 _atom_site_hse06_10hf_bader_spin_density
 _atom_site_hse06_10hf_ddec_charge
 _atom_site_hse06_10hf_ddec_spin_density
 _atom_site_hse06_10hf_ddec_sum_bond_order
 _atom_site_hse06_10hf_magmom
 _atom_site_hse06_bader_spin_density
 _atom_site_hse06_ddec_charge
 _atom_site_hse06_ddec_spin_density
 _atom_site_hse06_ddec_sum_bond_order
 _atom_site_hse06_magmom
 _atom_site_pbe_bader_spin_density
 _atom_site_pbe_cm5_charge
 _atom_site_pbe_ddec_charge
 _atom_site_pbe_ddec_spin_density
 _atom_site_pbe_ddec_sum_bond_order
 _atom_site_pbe_magmom
Hg  Hg0  1  0.49999836  0.50000053  0.49999990  1  0  0.622611  0  2.138878  0  0  0.480933  0  2.628749  0  0  0.532303  0  2.598949  0  0  0.416292  0.445766  0  2.649431  0
H  H1  1  0.93990953  0.62536303  0.15270460  1  0  0.093008  0  0.947833  0  0  0.091866  0  1.023143  0  0  0.09659  0  1.019244  0  0  0.113033  0.088475  0  1.026013  0
H  H2  1  0.06008223  0.37464066  0.84729336  1  0  0.092997  0  0.947772  0  0  0.091871  0  1.023078  0  0  0.0966  0  1.019173  0  0  0.112994  0.088464  0  1.025998  0
H  H3  1  0.78442829  0.64731632  0.32479351  1  0  0.081682  0  0.974278  0  0  0.086721  0  1.045239  0  0  0.090167  0  1.042071  0  0  0.107433  0.084296  0  1.047459  0
H  H4  1  0.21556600  0.35268646  0.67520577  1  0  0.081727  0  0.974303  0  0  0.086772  0  1.045249  0  0  0.090209  0  1.04209  0  0  0.107463  0.084347  0  1.047471  0
H  H5  1  0.28079473  0.33681082  0.28086143  1  0  0.098911  0  0.948578  0  0  0.099288  0  1.024515  0  0  0.103588  0  1.02053  0  0  0.112567  0.096174  0  1.027377  0
H  H6  1  0.71920693  0.66318936  0.71913760  1  0  0.098944  0  0.948647  0  0  0.099319  0  1.024569  0  0  0.103629  0  1.020581  0  0  0.112551  0.096186  0  1.027441  0
H  H7  1  0.17878414  0.07971143  0.00118778  1  0  0.121275  0  0.986945  0  0  0.129101  0  1.048484  0  0  0.132751  0  1.047438  0  0  0.106641  0.126481  0  1.049441  0
H  H8  1  0.82120260  0.92029228  0.99881083  1  0  0.121254  0  0.986987  0  0  0.129104  0  1.048493  0  0  0.132753  0  1.047454  0  0  0.106626  0.126484  0  1.049451  0
H  H9  1  0.17896385  0.92413408  0.86416191  1  0  0.112273  0  0.954437  0  0  0.123586  0  1.014477  0  0  0.126438  0  1.011824  0  0  0.10918  0.121522  0  1.01636  0
H  H10  1  0.82104555  0.07586510  0.13584130  1  0  0.112275  0  0.95442  0  0  0.123577  0  1.014489  0  0  0.126439  0  1.01181  0  0  0.109173  0.121514  0  1.016373  0
H  H11  1  0.36601550  0.85750216  0.70021349  1  0  0.093235  0  0.94655  0  0  0.10447  0  1.007616  0  0  0.106858  0  1.00671  0  0  0.098413  0.102659  0  1.008423  0
H  H12  1  0.63400369  0.14249444  0.29978739  1  0  0.093123  0  0.946617  0  0  0.104369  0  1.007683  0  0  0.106753  0  1.006784  0  0  0.098366  0.102608  0  1.008438  0
H  H13  1  0.64609074  0.89947892  0.55567700  1  0  0.082514  0  0.98351  0  0  0.091061  0  1.052359  0  0  0.094008  0  1.050979  0  0  0.087565  0.088946  0  1.053489  0
H  H14  1  0.35390567  0.10051961  0.44432109  1  0  0.08247  0  0.983535  0  0  0.091005  0  1.052404  0  0  0.093953  0  1.051023  0  0  0.087541  0.088892  0  1.053534  0
H  H15  1  0.87963403  0.09409695  0.54748361  1  0  0.084786  0  0.963726  0  0  0.096849  0  1.024869  0  0  0.09901  0  1.024198  0  0  0.09508  0.095317  0  1.02536  0
H  H16  1  0.12035248  0.90590244  0.45251731  1  0  0.084713  0  0.963778  0  0  0.096787  0  1.024926  0  0  0.098948  0  1.024255  0  0  0.09506  0.095255  0  1.025415  0
H  H17  1  0.84757850  0.24368230  0.68444677  1  0  0.088465  0  0.983347  0  0  0.099599  0  1.049064  0  0  0.101678  0  1.04858  0  0  0.093524  0.098088  0  1.049568  0
H  H18  1  0.15241047  0.75631622  0.31555407  1  0  0.088525  0  0.98321  0  0  0.099657  0  1.048931  0  0  0.101736  0  1.048447  0  0  0.093544  0.098145  0  1.049435  0
H  H19  1  0.62658997  0.35286992  0.99021479  1  0  0.303239  0  0.886607  0  0  0.278238  0  0.963963  0  0  0.286855  0  0.956123  0  0  0.317152  0.272112  0  0.969545  0
H  H20  1  0.37340145  0.64712950  0.00978336  1  0  0.303228  0  0.886717  0  0  0.278232  0  0.964072  0  0  0.286849  0  0.956231  0  0  0.317149  0.272104  0  0.969659  0
C  C21  1  0.78577072  0.56098202  0.17973672  1  0  0.092704  0  3.67613  0  0  0.068019  0  3.944212  0  0  0.069863  0  3.958186  0  0  0.053658  0.066543  0  3.935056  0
C  C22  1  0.21422596  0.43901993  0.82026107  1  0  0.092793  0  3.675981  0  0  0.06808  0  3.944082  0  0  0.069925  0  3.958054  0  0  0.053753  0.066599  0  3.934921  0
C  C23  1  0.70504537  0.57318239  0.27539430  1  0  0.088006  0  3.66167  0  0  0.057294  0  3.918585  0  0  0.061773  0  3.934882  0  0  0.054111  0.054326  0  3.907537  0
C  C24  1  0.29495391  0.42682039  0.72460362  1  0  0.087894  0  3.661682  0  0  0.057191  0  3.918624  0  0  0.061676  0  3.934924  0  0  0.05401  0.054226  0  3.907575  0
C  C25  1  0.42386314  0.40217870  0.25180173  1  0  0.070139  0  3.664679  0  0  0.034242  0  3.914255  0  0  0.038425  0  3.932  0  0  0.054551  0.031504  0  3.902412  0
C  C26  1  0.57613615  0.59782408  0.74819619  1  0  0.069976  0  3.664763  0  0  0.034093  0  3.914343  0  0  0.038259  0  3.932084  0  0  0.054559  0.031375  0  3.902506  0
C  C27  1  0.49742403  0.39174036  0.15576870  1  0  0.05796  0  3.758412  0  0  0.068178  0  4.003046  0  0  0.064897  0  4.02305  0  0  0.119184  0.069875  0  3.989909  0
C  C28  1  0.50257261  0.60826073  0.84422969  1  0  0.057931  0  3.758325  0  0  0.068139  0  4.002946  0  0  0.064863  0  4.022954  0  0  0.119138  0.069836  0  3.989798  0
C  C29  1  0.37086290  0.28888418  0.09121404  1  0  0.525575  0  3.834003  0  0  0.476486  0  4.122499  0  0  0.505754  0  4.12142  0  0  0.244911  0.456917  0  4.122617  0
C  C30  1  0.62915158  0.71111938  0.90878270  1  0  0.525382  0  3.834498  0  0  0.476373  0  4.122901  0  0  0.505627  0  4.121844  0  0  0.244751  0.456803  0  4.123022  0
C  C31  1  0.45737672  0.19572074  0.92638484  1  0  0.425022  0  3.787845  0  0  0.401454  0  4.05293  0  0  0.418978  0  4.066457  0  0  0.225977  0.389874  0  4.043371  0
C  C32  1  0.54262259  0.80428026  0.07361638  1  0  0.42507  0  3.787819  0  0  0.401498  0  4.052934  0  0  0.419023  0  4.066459  0  0  0.225999  0.389916  0  4.043377  0
C  C33  1  0.29500972  0.09089541  0.93534037  1  0  -0.20839  0  3.701844  0  0  -0.22639  0  3.956145  0  0  -0.236183  0  3.975821  0  0  -0.096787  -0.220113  0  3.942973  0
C  C34  1  0.70498960  0.90910559  0.06466086  1  0  -0.20842  0  3.7019  0  0  -0.226418  0  3.956218  0  0  -0.236215  0  3.975894  0  0  -0.096796  -0.22014  0  3.943045  0
C  C35  1  0.29857063  0.00621225  0.85996521  1  0  -0.025858  0  3.694714  0  0  -0.052559  0  3.946765  0  0  -0.047646  0  3.963547  0  0  -0.064896  -0.05538  0  3.935192  0
C  C36  1  0.70143624  0.99378783  0.14003668  1  0  -0.025772  0  3.694694  0  0  -0.052498  0  3.946774  0  0  -0.047582  0  3.963561  0  0  -0.064879  -0.055326  0  3.935208  0
C  C37  1  0.45589363  0.02552074  0.77590363  1  0  0.007616  0  3.788472  0  0  0.026868  0  4.011549  0  0  0.02186  0  4.037289  0  0  -0.006276  0.029895  0  3.994242  0
C  C38  1  0.54411056  0.97447766  0.22409803  1  0  0.007452  0  3.788501  0  0  0.026738  0  4.011556  0  0  0.021727  0  4.0373  0  0  -0.006268  0.029764  0  3.99426  0
C  C39  1  0.47570112  0.94124605  0.69654709  1  0  -0.085587  0  3.733568  0  0  -0.105563  0  3.97994  0  0  -0.106263  0  4.002451  0  0  -0.083296  -0.104673  0  3.964463  0
C  C40  1  0.52431565  0.05875141  0.30345458  1  0  -0.085377  0  3.7337  0  0  -0.105359  0  3.980034  0  0  -0.106058  0  4.002551  0  0  -0.083285  -0.104513  0  3.964557  0
C  C41  1  0.62875163  0.96526214  0.61600514  1  0  -0.081956  0  3.780609  0  0  -0.097481  0  4.033533  0  0  -0.102633  0  4.057759  0  0  -0.097118  -0.093995  0  4.016844  0
C  C42  1  0.37126008  0.03473535  0.38399649  1  0  -0.082075  0  3.780739  0  0  -0.097601  0  4.033673  0  0  -0.102754  0  4.057898  0  0  -0.097149  -0.09412  0  4.017005  0
C  C43  1  0.76143720  0.07525052  0.61156364  1  0  -0.047191  0  3.774864  0  0  -0.060571  0  4.023767  0  0  -0.060564  0  4.046743  0  0  -0.088453  -0.0602  0  4.00779  0
C  C44  1  0.23857201  0.92474697  0.38843867  1  0  -0.047041  0  3.774967  0  0  -0.060433  0  4.023868  0  0  -0.060421  0  4.046838  0  0  -0.088393  -0.060064  0  4.007888  0
C  C45  1  0.74608777  0.15902911  0.68785399  1  0  -0.154708  0  3.732964  0  0  -0.1765  0  3.984737  0  0  -0.182451  0  4.007777  0  0  -0.097127  -0.172535  0  3.969087  0
C  C46  1  0.25391382  0.84096845  0.31214754  1  0  -0.154781  0  3.73292  0  0  -0.176574  0  3.984728  0  0  -0.182524  0  4.007769  0  0  -0.097186  -0.172608  0  3.969073  0
C  C47  1  0.59939731  0.13607228  0.77256462  1  0  0.210903  0  3.810452  0  0  0.21361  0  4.047092  0  0  0.219997  0  4.070134  0  0  0.106881  0.209425  0  4.031464  0
C  C48  1  0.40060185  0.86392614  0.22743770  1  0  0.210995  0  3.810347  0  0  0.213672  0  4.047016  0  0  0.220058  0  4.070059  0  0  0.106941  0.209487  0  4.031385  0
Br  Br49  1  0.93053977  0.66932534  0.52449110  1  0  -0.365413  0  1.105445  0  0  -0.309037  0  1.41778  0  0  -0.328748  0  1.399622  0  0  -0.187535  -0.295913  0  1.431098  0
Br  Br50  1  0.06945943  0.33067570  0.47550801  1  0  -0.365427  0  1.105459  0  0  -0.309064  0  1.417819  0  0  -0.328774  0  1.399653  0  0  -0.18754  -0.295941  0  1.431147  0
N  N51  1  0.68268946  0.47009778  0.11987193  1  0  -0.284507  0  3.068216  0  0  -0.259118  0  3.335226  0  0  -0.264477  0  3.348527  0  0  -0.299049  -0.255183  0  3.326426  0
N  N52  1  0.31731473  0.52990239  0.88012713  1  0  -0.284509  0  3.068205  0  0  -0.259106  0  3.33522  0  0  -0.264467  0  3.348523  0  0  -0.299044  -0.25517  0  3.326424  0
N  N53  1  0.52894632  0.49348934  0.31115019  1  0  -0.259479  0  3.212479  0  0  -0.196901  0  3.476375  0  0  -0.213481  0  3.498719  0  0  -0.296218  -0.185289  0  3.460729  0
N  N54  1  0.47105546  0.50651256  0.68884834  1  0  -0.25931  0  3.212489  0  0  -0.196754  0  3.476363  0  0  -0.213335  0  3.498718  0  0  -0.296163  -0.185142  0  3.460704  0
N  N55  1  0.48378430  0.28418865  0.00157452  1  0  -0.449921  0  3.334029  0  0  -0.395769  0  3.578503  0  0  -0.418667  0  3.584069  0  0  -0.383611  -0.380053  0  3.574128  0
N  N56  1  0.51620214  0.71581077  0.99842498  1  0  -0.44993  0  3.334022  0  0  -0.395807  0  3.578483  0  0  -0.418701  0  3.584056  0  0  -0.383609  -0.380091  0  3.574112  0
N  N57  1  0.60163886  0.21898638  0.84846666  1  0  -0.463084  0  3.049455  0  0  -0.4277  0  3.317578  0  0  -0.445162  0  3.332965  0  0  -0.327104  -0.415654  0  3.306832  0
N  N58  1  0.39836284  0.78101290  0.15153438  1  0  -0.463069  0  3.049477  0  0  -0.427658  0  3.317586  0  0  -0.44512  0  3.332972  0  0  -0.327074  -0.415619  0  3.306841  0
O  O59  1  0.18434407  0.21834309  0.12087186  1  0  -0.522564  0  1.937939  0  0  -0.479824  0  2.158064  0  0  -0.49939  0  2.153282  0  0  -0.280534  -0.466323  0  2.160969  0
O  O60  1  0.81564456  0.78165204  0.87912786  1  0  -0.522305  0  1.938444  0  0  -0.479656  0  2.15859  0  0  -0.499209  0  2.153817  0  0  -0.280381  -0.466159  0  2.161496  0
