# generated using pymatgen
data_HgTeH15C11S2N
_symmetry_space_group_name_H-M   'P 1'
_cell_length_a   10.29225726
_cell_length_b   11.09898219
_cell_length_c   11.09830229
_cell_angle_alpha   119.99812733
_cell_angle_beta   90.00121890
_cell_angle_gamma   89.97552078
_symmetry_Int_Tables_number   1
_chemical_formula_structural   HgTeH15C11S2N
_chemical_formula_sum   'Hg3 Te3 H45 C33 S6 N3'
_cell_volume   1097.96656111
_cell_formula_units_Z   3
loop_
 _symmetry_equiv_pos_site_id
 _symmetry_equiv_pos_as_xyz
  1  'x, y, z'
loop_
 _atom_site_type_symbol
 _atom_site_label
 _atom_site_symmetry_multiplicity
 _atom_site_fract_x
 _atom_site_fract_y
 _atom_site_fract_z
 _atom_site_occupancy
 _atom_site_pbe_bader_spin_density
 _atom_site_pbe_cm5_charge
 _atom_site_pbe_ddec_charge
 _atom_site_pbe_ddec_spin_density
 _atom_site_pbe_ddec_sum_bond_order
 _atom_site_pbe_magmom
Hg  Hg0  1  0.32991419  0.06093687  0.99412668  1  0  0.287511  0.171498  0  2.919761  0
Hg  Hg1  1  0.99687797  0.00545540  0.06676545  1  0  0.28733  0.17165  0  2.918281  0
Hg  Hg2  1  0.66347226  0.93312546  0.93897569  1  0  0.28735  0.17148  0  2.919595  0
Te  Te3  1  0.48929130  0.98914914  0.15610583  1  0  0.06534  0.0411  0  2.78399  0
Te  Te4  1  0.15619776  0.84342234  0.83276409  1  0  0.065643  0.040971  0  2.781879  0
Te  Te5  1  0.82290768  0.16683598  0.01080160  1  0  0.065303  0.040667  0  2.782894  0
H  H6  1  0.27443158  0.52786357  0.34238160  1  0  0.098973  0.079143  0  1.036108  0
H  H7  1  0.94109855  0.65730900  0.18539222  1  0  0.09899  0.079366  0  1.036315  0
H  H8  1  0.60785766  0.81463538  0.47202071  1  0  0.099145  0.079331  0  1.036115  0
H  H9  1  0.24233942  0.61689556  0.52490224  1  0  0.097149  0.070429  0  1.018779  0
H  H10  1  0.90894631  0.47483531  0.09194997  1  0  0.097178  0.070721  0  1.018269  0
H  H11  1  0.57555084  0.90810199  0.38303031  1  0  0.097073  0.07028  0  1.019727  0
H  H12  1  0.10518968  0.71333024  0.40536011  1  0  0.091426  0.135905  0  1.002678  0
H  H13  1  0.77160131  0.59469707  0.30787092  1  0  0.091212  0.135497  0  1.002752  0
H  H14  1  0.43850602  0.69217600  0.28681963  1  0  0.091363  0.135598  0  1.002582  0
H  H15  1  0.00397098  0.63112754  0.47233265  1  0  0.084597  0.120612  0  1.019545  0
H  H16  1  0.67054206  0.52774337  0.15856978  1  0  0.084676  0.120542  0  1.020045  0
H  H17  1  0.33727716  0.84137118  0.36910215  1  0  0.084671  0.120682  0  1.019726  0
H  H18  1  0.04261633  0.54343174  0.29175155  1  0  0.08308  0.118082  0  1.040748  0
H  H19  1  0.70925016  0.70826785  0.25134564  1  0  0.083091  0.118227  0  1.04079  0
H  H20  1  0.37602264  0.74852711  0.45682076  1  0  0.08298  0.118152  0  1.040455  0
H  H21  1  0.06278857  0.34293875  0.52431180  1  0  0.099258  0.081402  0  1.023195  0
H  H22  1  0.72957800  0.47555792  0.81848165  1  0  0.099402  0.082141  0  1.022582  0
H  H23  1  0.39591233  0.18142463  0.65719085  1  0  0.099548  0.082061  0  1.02256  0
H  H24  1  0.08693444  0.52668893  0.61071535  1  0  0.096307  0.067096  0  1.02458  0
H  H25  1  0.75378012  0.38911366  0.91582263  1  0  0.09658  0.067325  0  1.024613  0
H  H26  1  0.42011209  0.08412809  0.47339233  1  0  0.096581  0.067132  0  1.025035  0
H  H27  1  0.22201983  0.41563270  0.71872711  1  0  0.089163  0.128322  0  1.021262  0
H  H28  1  0.88904212  0.28128403  0.69680463  1  0  0.089364  0.128632  0  1.020691  0
H  H29  1  0.55508100  0.30321521  0.58448289  1  0  0.089108  0.128352  0  1.0212  0
H  H30  1  0.32281301  0.49320180  0.64702568  1  0  0.086309  0.121415  0  1.008175  0
H  H31  1  0.98975342  0.35298387  0.84618750  1  0  0.086401  0.121769  0  1.007556  0
H  H32  1  0.65598929  0.15396810  0.50686972  1  0  0.086346  0.121491  0  1.008184  0
H  H33  1  0.29913058  0.30930586  0.55504119  1  0  0.084898  0.120225  0  1.033556  0
H  H34  1  0.96590763  0.44505320  0.75435048  1  0  0.084702  0.119734  0  1.034793  0
H  H35  1  0.63218428  0.24581209  0.69077032  1  0  0.084732  0.120042  0  1.034065  0
H  H36  1  0.49394914  0.44299051  0.91575416  1  0  0.090746  0.090153  0  1.038673  0
H  H37  1  0.16062920  0.08426692  0.52736537  1  0  0.090784  0.090403  0  1.038568  0
H  H38  1  0.82733099  0.47277537  0.55689849  1  0  0.090799  0.090274  0  1.038252  0
H  H39  1  0.26051918  0.41988648  0.95648776  1  0  0.091995  0.094808  0  1.024189  0
H  H40  1  0.92717626  0.04358083  0.46346089  1  0  0.091955  0.094688  0  1.024016  0
H  H41  1  0.59388764  0.53690846  0.58011887  1  0  0.091988  0.094944  0  1.024139  0
H  H42  1  0.11923776  0.63189094  0.06737704  1  0  0.095522  0.095681  0  1.03311  0
H  H43  1  0.78595666  0.93288104  0.56466154  1  0  0.095245  0.095254  0  1.032918  0
H  H44  1  0.45258010  0.43567525  0.36823451  1  0  0.095535  0.095565  0  1.03294  0
H  H45  1  0.21325893  0.86413335  0.14554778  1  0  0.077011  0.084413  0  1.072965  0
H  H46  1  0.87991381  0.85458246  0.71865534  1  0  0.077386  0.084882  0  1.072509  0
H  H47  1  0.54649243  0.28127895  0.13595673  1  0  0.077212  0.084328  0  1.073481  0
H  H48  1  0.58802158  0.67601316  0.98902322  1  0  0.082815  0.085262  0  1.083053  0
H  H49  1  0.25474271  0.01078615  0.68704155  1  0  0.082861  0.085125  0  1.08376  0
H  H50  1  0.92132135  0.31277886  0.32378396  1  0  0.082861  0.085345  0  1.084058  0
C  C51  1  0.17180853  0.29382050  0.29306544  1  0  0.119221  0.181938  0  4.062964  0
C  C52  1  0.83857134  0.70680049  0.00076974  1  0  0.119829  0.182623  0  4.062576  0
C  C53  1  0.50523769  0.99928822  0.70620126  1  0  0.119863  0.183078  0  4.06247  0
C  C54  1  0.20044300  0.54813935  0.42144728  1  0  -0.068784  -0.0263  0  3.917648  0
C  C55  1  0.86710994  0.57832207  0.12657958  1  0  -0.068628  -0.02707  0  3.91829  0
C  C56  1  0.53377566  0.87344128  0.45187030  1  0  -0.068298  -0.025551  0  3.918934  0
C  C57  1  0.08059993  0.61297650  0.39641619  1  0  -0.248718  -0.378174  0  3.909567  0
C  C58  1  0.74716734  0.60359299  0.21638503  1  0  -0.248864  -0.378026  0  3.909902  0
C  C59  1  0.41394725  0.78359559  0.38721690  1  0  -0.248956  -0.378205  0  3.908916  0
C  C60  1  0.13400022  0.42503282  0.54657485  1  0  -0.06833  -0.023219  0  3.919393  0
C  C61  1  0.80078774  0.45328144  0.87834691  1  0  -0.068219  -0.023635  0  3.919875  0
C  C62  1  0.46714670  0.12162682  0.57504052  1  0  -0.068163  -0.022665  0  3.918918  0
C  C63  1  0.25171624  0.40995396  0.62110149  1  0  -0.246905  -0.382456  0  3.926277  0
C  C64  1  0.91860895  0.37887242  0.78883199  1  0  -0.247174  -0.382818  0  3.926957  0
C  C65  1  0.58482158  0.21125451  0.59012057  1  0  -0.246907  -0.382901  0  3.926938  0
C  C66  1  0.43250362  0.53552335  0.96567103  1  0  -0.094007  -0.072549  0  3.987878  0
C  C67  1  0.09922598  0.03437848  0.56997400  1  0  -0.094359  -0.072654  0  3.986951  0
C  C68  1  0.76588777  0.43021493  0.46442288  1  0  -0.094151  -0.072016  0  3.986951  0
C  C69  1  0.30093906  0.52218682  0.98770390  1  0  -0.096043  -0.090062  0  4.017431  0
C  C70  1  0.96763493  0.01241631  0.53460220  1  0  -0.095456  -0.09002  0  4.017342  0
C  C71  1  0.63433040  0.46569764  0.47782795  1  0  -0.095716  -0.089878  0  4.017178  0
C  C72  1  0.22223245  0.64053250  0.05046146  1  0  -0.093173  -0.068701  0  3.979072  0
C  C73  1  0.88896350  0.94975387  0.59025398  1  0  -0.093058  -0.068214  0  3.979085  0
C  C74  1  0.55561479  0.41005095  0.35952588  1  0  -0.093461  -0.069307  0  3.979234  0
C  C75  1  0.27493851  0.77198017  0.09376998  1  0  -0.109565  -0.114965  0  4.021633  0
C  C76  1  0.94164893  0.90629350  0.67831498  1  0  -0.110203  -0.115806  0  4.021557  0
C  C77  1  0.60825286  0.32174717  0.22800795  1  0  -0.109896  -0.114898  0  4.021567  0
C  C78  1  0.48571539  0.66648973  0.00762272  1  0  -0.105833  -0.108914  0  4.000573  0
C  C79  1  0.15243088  0.99223722  0.65889224  1  0  -0.105622  -0.109069  0  4.000519  0
C  C80  1  0.81904098  0.34108395  0.33339239  1  0  -0.105868  -0.110327  0  4.001794  0
C  C81  1  0.40722695  0.78517816  0.07285090  1  0  -0.07914  -0.014629  0  3.906311  0
C  C82  1  0.07399131  0.92696232  0.71227063  1  0  -0.079029  -0.013876  0  3.904588  0
C  C83  1  0.74057457  0.28764273  0.21473788  1  0  -0.079104  -0.013571  0  3.90559  0
S  S84  1  0.20766427  0.29705481  0.14304628  1  0  -0.176253  -0.290636  0  2.501052  0
S  S85  1  0.87447138  0.85672921  0.15406196  1  0  -0.176571  -0.291512  0  2.500556  0
S  S86  1  0.54135528  0.84599748  0.70280154  1  0  -0.176648  -0.29161  0  2.501353  0
S  S87  1  0.13520968  0.14345422  0.29604593  1  0  -0.171952  -0.301129  0  2.528106  0
S  S88  1  0.80202315  0.70393157  0.84744839  1  0  -0.172164  -0.30135  0  2.528508  0
S  S89  1  0.46854162  0.15256366  0.85663528  1  0  -0.172118  -0.301238  0  2.527641  0
N  N90  1  0.16984835  0.41561760  0.41427423  1  0  -0.262583  -0.01545  0  3.600367  0
N  N91  1  0.83657239  0.58556119  0.00125748  1  0  -0.262876  -0.015146  0  3.601066  0
N  N92  1  0.50314373  0.99875384  0.58442266  1  0  -0.263615  -0.017289  0  3.602494  0
