# generated using pymatgen
data_NaH14C6IO3
_symmetry_space_group_name_H-M   'P 1'
_cell_length_a   7.76614619
_cell_length_b   12.07107901
_cell_length_c   12.29598081
_cell_angle_alpha   84.16380509
_cell_angle_beta   71.60566959
_cell_angle_gamma   71.21333806
_symmetry_Int_Tables_number   1
_chemical_formula_structural   NaH14C6IO3
_chemical_formula_sum   'Na4 H56 C24 I4 O12'
_cell_volume   1035.52859139
_cell_formula_units_Z   4
loop_
 _symmetry_equiv_pos_site_id
 _symmetry_equiv_pos_as_xyz
  1  'x, y, z'
loop_
 _atom_site_type_symbol
 _atom_site_label
 _atom_site_symmetry_multiplicity
 _atom_site_fract_x
 _atom_site_fract_y
 _atom_site_fract_z
 _atom_site_occupancy
 _atom_site_hle17_bader_spin_density
 _atom_site_hle17_ddec_charge
 _atom_site_hle17_ddec_spin_density
 _atom_site_hle17_ddec_sum_bond_order
 _atom_site_hle17_magmom
 _atom_site_hse06_10hf_bader_spin_density
 _atom_site_hse06_10hf_ddec_charge
 _atom_site_hse06_10hf_ddec_spin_density
 _atom_site_hse06_10hf_ddec_sum_bond_order
 _atom_site_hse06_10hf_magmom
 _atom_site_hse06_bader_spin_density
 _atom_site_hse06_ddec_charge
 _atom_site_hse06_ddec_spin_density
 _atom_site_hse06_ddec_sum_bond_order
 _atom_site_hse06_magmom
 _atom_site_pbe_bader_spin_density
 _atom_site_pbe_cm5_charge
 _atom_site_pbe_ddec_charge
 _atom_site_pbe_ddec_spin_density
 _atom_site_pbe_ddec_sum_bond_order
 _atom_site_pbe_magmom
Na  Na0  1  0.08634927  0.32767047  0.74996442  1  0  0.850823  0  0.403145  0  0  0.778166  0  0.56996  0  0  0.793214  0  0.547252  0  0  0.504084  0.767379  0  0.585919  0
Na  Na1  1  0.33603230  0.82747414  0.25007605  1  0  0.851112  0  0.402187  0  0  0.778155  0  0.569362  0  0  0.793194  0  0.546679  0  0  0.503993  0.767342  0  0.585371  0
Na  Na2  1  0.91365258  0.67232931  0.25003508  1  0  0.850812  0  0.403165  0  0  0.778162  0  0.569957  0  0  0.79321  0  0.547253  0  0  0.504089  0.767366  0  0.585944  0
Na  Na3  1  0.66396829  0.17252652  0.74992427  1  0  0.851108  0  0.402184  0  0  0.77815  0  0.569366  0  0  0.793189  0  0.54668  0  0  0.503984  0.767339  0  0.585371  0
H  H4  1  0.10024204  0.36900165  0.01062578  1  0  0.063175  0  0.931004  0  0  0.075927  0  0.998042  0  0  0.076906  0  0.997091  0  0  0.101113  0.07511  0  0.998936  0
H  H5  1  0.02005292  0.86883152  0.51054635  1  0  0.06356  0  0.932142  0  0  0.075917  0  0.999491  0  0  0.076891  0  0.998469  0  0  0.100511  0.07508  0  1.000415  0
H  H6  1  0.96920585  0.63101940  0.51045380  1  0  0.063448  0  0.930703  0  0  0.075668  0  0.998292  0  0  0.076677  0  0.997313  0  0  0.100498  0.074827  0  0.99922  0
H  H7  1  0.38950883  0.13111167  0.01060894  1  0  0.06323  0  0.930702  0  0  0.07577  0  0.998196  0  0  0.076725  0  0.997192  0  0  0.100509  0.074944  0  0.999113  0
H  H8  1  0.89976149  0.63099637  0.98937292  1  0  0.063165  0  0.931032  0  0  0.075944  0  0.998043  0  0  0.076924  0  0.997092  0  0  0.101106  0.075124  0  0.998942  0
H  H9  1  0.97994954  0.13116651  0.48945614  1  0  0.063522  0  0.932162  0  0  0.075923  0  0.999515  0  0  0.076897  0  0.998493  0  0  0.100536  0.075084  0  1.000439  0
H  H10  1  0.03079491  0.36898038  0.48954543  1  0  0.063459  0  0.930727  0  0  0.075662  0  0.998294  0  0  0.076668  0  0.99731  0  0  0.10049  0.074824  0  0.999228  0
H  H11  1  0.61048851  0.86888899  0.98939056  1  0  0.06323  0  0.93069  0  0  0.075751  0  0.998187  0  0  0.076709  0  0.997182  0  0  0.100492  0.074927  0  0.999103  0
H  H12  1  0.34174824  0.33281003  0.01545281  1  0  0.056301  0  0.954263  0  0  0.071205  0  1.020114  0  0  0.07118  0  1.02052  0  0  0.092923  0.071154  0  1.019918  0
H  H13  1  0.80995241  0.83266225  0.51533537  1  0  0.057984  0  0.956924  0  0  0.072987  0  1.022112  0  0  0.073001  0  1.022457  0  0  0.093775  0.072882  0  1.021953  0
H  H14  1  0.17445753  0.66725134  0.51522716  1  0  0.056166  0  0.955251  0  0  0.071046  0  1.021088  0  0  0.071028  0  1.02152  0  0  0.09314  0.070999  0  1.020881  0
H  H15  1  0.14321362  0.16716033  0.01546057  1  0  0.057577  0  0.956062  0  0  0.072044  0  1.022307  0  0  0.071986  0  1.022696  0  0  0.093676  0.071996  0  1.022109  0
H  H16  1  0.65825556  0.66718800  0.98454291  1  0  0.056266  0  0.954281  0  0  0.071155  0  1.020167  0  0  0.071131  0  1.020573  0  0  0.092896  0.0711  0  1.019979  0
H  H17  1  0.19004934  0.16733665  0.48466604  1  0  0.057985  0  0.95692  0  0  0.073025  0  1.022117  0  0  0.073021  0  1.022481  0  0  0.093784  0.072918  0  1.021956  0
H  H18  1  0.82554411  0.33274668  0.48477207  1  0  0.05619  0  0.955225  0  0  0.071065  0  1.021033  0  0  0.071044  0  1.021459  0  0  0.093139  0.071023  0  1.020829  0
H  H19  1  0.85678524  0.83283945  0.98453920  1  0  0.057598  0  0.956069  0  0  0.072046  0  1.022314  0  0  0.071989  0  1.022706  0  0  0.093686  0.072  0  1.02212  0
H  H20  1  0.43188460  0.42904897  0.82854170  1  0  0.039071  0  0.96204  0  0  0.04892  0  1.037813  0  0  0.050186  0  1.035863  0  0  0.095132  0.047853  0  1.03944  0
H  H21  1  0.81020856  0.92900743  0.32851102  1  0  0.040053  0  0.961856  0  0  0.05001  0  1.038165  0  0  0.051298  0  1.03621  0  0  0.095273  0.048941  0  1.039802  0
H  H22  1  0.36102625  0.57092530  0.32844660  1  0  0.038902  0  0.961789  0  0  0.048845  0  1.037746  0  0  0.050094  0  1.035796  0  0  0.094546  0.047797  0  1.039334  0
H  H23  1  0.23998612  0.07108303  0.82844337  1  0  0.038159  0  0.96098  0  0  0.048218  0  1.036859  0  0  0.049442  0  1.034952  0  0  0.094514  0.047181  0  1.038494  0
H  H24  1  0.56811480  0.57095081  0.17145618  1  0  0.039094  0  0.962011  0  0  0.048943  0  1.037794  0  0  0.05021  0  1.035844  0  0  0.095146  0.047875  0  1.039419  0
H  H25  1  0.18979090  0.07099497  0.67149228  1  0  0.040159  0  0.961912  0  0  0.050107  0  1.038189  0  0  0.051397  0  1.03624  0  0  0.095321  0.049035  0  1.039825  0
H  H26  1  0.63897685  0.42907360  0.67155209  1  0  0.038927  0  0.961787  0  0  0.048884  0  1.037745  0  0  0.050129  0  1.035798  0  0  0.094593  0.047828  0  1.039344  0
H  H27  1  0.76001324  0.92891412  0.17155722  1  0  0.038146  0  0.960979  0  0  0.048194  0  1.036882  0  0  0.049415  0  1.034975  0  0  0.094513  0.047168  0  1.038512  0
H  H28  1  0.25968924  0.52781944  0.93817919  1  0  0.058979  0  0.945776  0  0  0.071138  0  1.013129  0  0  0.071858  0  1.012571  0  0  0.090268  0.070525  0  1.013626  0
H  H29  1  0.77411163  0.02770390  0.43823262  1  0  0.058456  0  0.945584  0  0  0.071006  0  1.013036  0  0  0.0718  0  1.012448  0  0  0.090406  0.070361  0  1.013561  0
H  H30  1  0.28739119  0.47228300  0.43819781  1  0  0.058295  0  0.947343  0  0  0.070526  0  1.014491  0  0  0.07128  0  1.013934  0  0  0.089749  0.069873  0  1.014995  0
H  H31  1  0.30271153  0.97224046  0.93802086  1  0  0.059388  0  0.945585  0  0  0.071267  0  1.013026  0  0  0.071988  0  1.012504  0  0  0.090413  0.070677  0  1.013513  0
H  H32  1  0.74031240  0.47217859  0.06182004  1  0  0.058945  0  0.945785  0  0  0.071129  0  1.013112  0  0  0.071849  0  1.012553  0  0  0.09025  0.070489  0  1.013633  0
H  H33  1  0.22589158  0.97229587  0.56177231  1  0  0.058498  0  0.945677  0  0  0.071051  0  1.013098  0  0  0.071848  0  1.012511  0  0  0.090442  0.070401  0  1.013622  0
H  H34  1  0.71260920  0.52771590  0.56180223  1  0  0.058319  0  0.947322  0  0  0.070561  0  1.014477  0  0  0.071313  0  1.013919  0  0  0.089763  0.069909  0  1.014979  0
H  H35  1  0.69728929  0.02775757  0.06197919  1  0  0.059342  0  0.945638  0  0  0.071235  0  1.013072  0  0  0.071952  0  1.012553  0  0  0.090415  0.070644  0  1.013562  0
H  H36  1  0.08922798  0.60183604  0.69073720  1  0  0.085893  0  0.967423  0  0  0.104039  0  1.03169  0  0  0.104635  0  1.031604  0  0  0.101316  0.103545  0  1.03179  0
H  H37  1  0.11812452  0.10140650  0.19061846  1  0  0.0863  0  0.968045  0  0  0.104611  0  1.032171  0  0  0.105215  0  1.03208  0  0  0.10176  0.104103  0  1.032292  0
H  H38  1  0.19129065  0.39831197  0.19051448  1  0  0.086799  0  0.968672  0  0  0.104995  0  1.032716  0  0  0.105588  0  1.032632  0  0  0.101765  0.104497  0  1.032831  0
H  H39  1  0.72030787  0.89852026  0.69059623  1  0  0.087002  0  0.968101  0  0  0.104928  0  1.032624  0  0  0.105504  0  1.032604  0  0  0.102169  0.104431  0  1.032736  0
H  H40  1  0.91076984  0.39816636  0.30926366  1  0  0.085926  0  0.967413  0  0  0.104056  0  1.031699  0  0  0.104648  0  1.03162  0  0  0.101326  0.103561  0  1.031798  0
H  H41  1  0.88187716  0.89859416  0.80938213  1  0  0.086334  0  0.968075  0  0  0.104684  0  1.03216  0  0  0.105289  0  1.032066  0  0  0.101798  0.104176  0  1.032289  0
H  H42  1  0.80870827  0.60168606  0.80948611  1  0  0.086761  0  0.968689  0  0  0.104965  0  1.032727  0  0  0.105559  0  1.03264  0  0  0.10175  0.104469  0  1.032842  0
H  H43  1  0.27968907  0.10148389  0.30940056  1  0  0.086966  0  0.968153  0  0  0.104885  0  1.032682  0  0  0.105465  0  1.032656  0  0  0.102156  0.10439  0  1.032783  0
H  H44  1  0.33870375  0.54553567  0.67406789  1  0  0.07423  0  0.962474  0  0  0.087721  0  1.035829  0  0  0.088567  0  1.035682  0  0  0.089693  0.086996  0  1.036057  0
H  H45  1  0.94156893  0.04527041  0.17390370  1  0  0.075069  0  0.962155  0  0  0.088901  0  1.035087  0  0  0.089717  0  1.034948  0  0  0.08949  0.088168  0  1.035327  0
H  H46  1  0.38442927  0.45457127  0.17385681  1  0  0.074655  0  0.961555  0  0  0.088247  0  1.034885  0  0  0.089115  0  1.03467  0  0  0.089588  0.087504  0  1.035154  0
H  H47  1  0.48744982  0.95485242  0.67396902  1  0  0.075117  0  0.96274  0  0  0.088946  0  1.035692  0  0  0.089787  0  1.035547  0  0  0.09037  0.088236  0  1.035902  0
H  H48  1  0.66129293  0.45446848  0.32593189  1  0  0.074238  0  0.962454  0  0  0.087733  0  1.035818  0  0  0.088578  0  1.035671  0  0  0.089678  0.087004  0  1.036049  0
H  H49  1  0.05843048  0.95472937  0.82609824  1  0  0.075028  0  0.962137  0  0  0.088861  0  1.035098  0  0  0.089676  0  1.03496  0  0  0.089508  0.088138  0  1.035329  0
H  H50  1  0.61557090  0.54542589  0.82614297  1  0  0.074647  0  0.961589  0  0  0.088243  0  1.034891  0  0  0.089111  0  1.034673  0  0  0.089584  0.087502  0  1.035158  0
H  H51  1  0.51254381  0.04515348  0.32603021  1  0  0.075111  0  0.962724  0  0  0.088927  0  1.035677  0  0  0.089768  0  1.03553  0  0  0.090372  0.088212  0  1.035892  0
H  H52  1  0.18763849  0.65313125  0.78275578  1  0  0.073869  0  0.948292  0  0  0.090272  0  1.016444  0  0  0.091211  0  1.015797  0  0  0.0887  0.089488  0  1.017005  0
H  H53  1  0.87637896  0.15293008  0.28252284  1  0  0.073835  0  0.948558  0  0  0.090401  0  1.016449  0  0  0.09136  0  1.01579  0  0  0.088593  0.089592  0  1.017038  0
H  H54  1  0.34108222  0.34692677  0.28251458  1  0  0.073052  0  0.949495  0  0  0.0896  0  1.01748  0  0  0.090525  0  1.016873  0  0  0.088552  0.088795  0  1.018049  0
H  H55  1  0.52997374  0.84717052  0.78257376  1  0  0.073334  0  0.949489  0  0  0.090146  0  1.017126  0  0  0.091097  0  1.016472  0  0  0.088987  0.089356  0  1.017692  0
H  H56  1  0.81235716  0.34687116  0.21724453  1  0  0.073869  0  0.948332  0  0  0.090279  0  1.016471  0  0  0.09122  0  1.015823  0  0  0.088707  0.089496  0  1.01703  0
H  H57  1  0.12362000  0.84707057  0.71747910  1  0  0.073819  0  0.948553  0  0  0.090399  0  1.016443  0  0  0.091357  0  1.015783  0  0  0.088603  0.089594  0  1.017028  0
H  H58  1  0.65891481  0.65307126  0.71748655  1  0  0.073003  0  0.949542  0  0  0.089545  0  1.017536  0  0  0.090469  0  1.016927  0  0  0.08854  0.088742  0  1.018103  0
H  H59  1  0.47002424  0.15283101  0.21742195  1  0  0.073287  0  0.949488  0  0  0.090092  0  1.017134  0  0  0.091043  0  1.01648  0  0  0.088971  0.089298  0  1.017702  0
C  C60  1  0.25102673  0.35080669  0.95852586  1  0  0.042295  0  3.678982  0  0  -0.017082  0  3.949069  0  0  -0.011045  0  3.954683  0  0  -0.082685  -0.021163  0  3.945225  0
C  C61  1  0.93951528  0.85070472  0.45842756  1  0  0.041275  0  3.684334  0  0  -0.017677  0  3.954212  0  0  -0.011469  0  3.959569  0  0  -0.083083  -0.021798  0  3.950518  0
C  C62  1  0.10173511  0.64922159  0.45835012  1  0  0.042  0  3.680546  0  0  -0.017155  0  3.950599  0  0  -0.011156  0  3.956323  0  0  -0.083867  -0.021294  0  3.946851  0
C  C63  1  0.29078658  0.14926288  0.95851316  1  0  0.042366  0  3.68056  0  0  -0.017096  0  3.95148  0  0  -0.010818  0  3.956775  0  0  -0.082757  -0.021265  0  3.947833  0
C  C64  1  0.74897376  0.64919309  0.04147229  1  0  0.042256  0  3.679022  0  0  -0.017145  0  3.949161  0  0  -0.01111  0  3.954771  0  0  -0.082689  -0.021221  0  3.945312  0
C  C65  1  0.06048836  0.14929418  0.54157331  1  0  0.041442  0  3.684177  0  0  -0.017682  0  3.95422  0  0  -0.011463  0  3.959587  0  0  -0.083116  -0.021805  0  3.950519  0
C  C66  1  0.89826717  0.35077731  0.54164939  1  0  0.041899  0  3.680671  0  0  -0.017139  0  3.950562  0  0  -0.011116  0  3.956245  0  0  -0.083865  -0.021298  0  3.946845  0
C  C67  1  0.70921201  0.85073689  0.04148553  1  0  0.042325  0  3.680434  0  0  -0.017046  0  3.951272  0  0  -0.01078  0  3.956575  0  0  -0.082731  -0.02122  0  3.947637  0
C  C68  1  0.28264388  0.45330348  0.88428463  1  0  0.053307  0  3.673401  0  0  -0.000629  0  3.935592  0  0  0.005005  0  3.941622  0  0  -0.079063  -0.004344  0  3.931492  0
C  C69  1  0.87950504  0.95318978  0.38426248  1  0  0.052781  0  3.674622  0  0  -0.002607  0  3.938707  0  0  0.002834  0  3.944845  0  0  -0.079711  -0.006221  0  3.934438  0
C  C70  1  0.23594969  0.54676619  0.38418141  1  0  0.055448  0  3.674532  0  0  0.001368  0  3.936448  0  0  0.006975  0  3.942567  0  0  -0.07663  -0.002282  0  3.932257  0
C  C71  1  0.33348126  0.04682464  0.88420921  1  0  0.054665  0  3.670243  0  0  0.000756  0  3.932549  0  0  0.006339  0  3.938571  0  0  -0.077842  -0.003027  0  3.928534  0
C  C72  1  0.71735966  0.54669455  0.11571406  1  0  0.05335  0  3.673382  0  0  -0.000623  0  3.935576  0  0  0.005011  0  3.941607  0  0  -0.079059  -0.004312  0  3.931474  0
C  C73  1  0.12049990  0.04681087  0.61573893  1  0  0.052524  0  3.674839  0  0  -0.002808  0  3.938911  0  0  0.00263  0  3.945047  0  0  -0.079808  -0.006413  0  3.934638  0
C  C74  1  0.76405042  0.45323271  0.61581755  1  0  0.055383  0  3.674544  0  0  0.001226  0  3.93651  0  0  0.006819  0  3.942648  0  0  -0.076734  -0.002418  0  3.932325  0
C  C75  1  0.66651913  0.95317426  0.11579084  1  0  0.05482  0  3.670144  0  0  0.000891  0  3.932475  0  0  0.006484  0  3.938496  0  0  -0.077791  -0.002905  0  3.928471  0
C  C76  1  0.19602654  0.57689180  0.73661093  1  0  -0.088226  0  3.67415  0  0  -0.17995  0  3.936081  0  0  -0.174644  0  3.940397  0  0  -0.150279  -0.18335  0  3.933133  0
C  C77  1  0.99031620  0.07662441  0.23646204  1  0  -0.090138  0  3.674918  0  0  -0.182429  0  3.936534  0  0  -0.177094  0  3.940797  0  0  -0.151319  -0.185833  0  3.933635  0
C  C78  1  0.27316058  0.42319279  0.23639492  1  0  -0.089443  0  3.67625  0  0  -0.181387  0  3.938251  0  0  -0.17607  0  3.942527  0  0  -0.151269  -0.184792  0  3.935366  0
C  C79  1  0.56769534  0.92341930  0.73647122  1  0  -0.090017  0  3.677366  0  0  -0.182591  0  3.939765  0  0  -0.177325  0  3.944073  0  0  -0.152575  -0.185958  0  3.936769  0
C  C80  1  0.80397284  0.42311236  0.26338750  1  0  -0.088302  0  3.674218  0  0  -0.180064  0  3.936152  0  0  -0.174761  0  3.940468  0  0  -0.150326  -0.18346  0  3.933208  0
C  C81  1  0.00968283  0.92337450  0.76354072  1  0  -0.090113  0  3.674958  0  0  -0.182481  0  3.936611  0  0  -0.177142  0  3.94087  0  0  -0.151415  -0.185896  0  3.933716  0
C  C82  1  0.72683915  0.57680524  0.76360485  1  0  -0.089349  0  3.676247  0  0  -0.181282  0  3.938259  0  0  -0.175959  0  3.942531  0  0  -0.151236  -0.184692  0  3.935372  0
C  C83  1  0.43230258  0.07658397  0.26352775  1  0  -0.089882  0  3.677212  0  0  -0.182412  0  3.939609  0  0  -0.177143  0  3.943908  0  0  -0.152523  -0.185773  0  3.936608  0
I  I84  1  0.47353263  0.25022091  0.55253819  1  0  -0.724391  0  0.598505  0  0  -0.662688  0  0.839129  0  0  -0.67534  0  0.816382  0  0  -0.336831  -0.653406  0  0.854995  0
I  I85  1  0.22295066  0.75010879  0.05317358  1  0  -0.724594  0  0.598779  0  0  -0.66281  0  0.840041  0  0  -0.675483  0  0.817223  0  0  -0.337347  -0.653492  0  0.85595  0
I  I86  1  0.52647214  0.74978062  0.44746023  1  0  -0.724379  0  0.598503  0  0  -0.662691  0  0.839134  0  0  -0.675342  0  0.81639  0  0  -0.336838  -0.653407  0  0.855007  0
I  I87  1  0.77704929  0.24989099  0.94682646  1  0  -0.724597  0  0.598786  0  0  -0.662813  0  0.840041  0  0  -0.675487  0  0.817224  0  0  -0.33735  -0.653493  0  0.85593  0
O  O88  1  0.30629335  0.25007096  0.88756076  1  0  -0.391485  0  2.323143  0  0  -0.320289  0  2.584337  0  0  -0.336278  0  2.584726  0  0  -0.277187  -0.308953  0  2.583512  0
O  O89  1  0.05607212  0.74997024  0.38737006  1  0  -0.391182  0  2.322983  0  0  -0.319693  0  2.583569  0  0  -0.335655  0  2.583939  0  0  -0.276307  -0.308384  0  2.582763  0
O  O90  1  0.69370546  0.74992620  0.11243766  1  0  -0.391453  0  2.323125  0  0  -0.320276  0  2.584273  0  0  -0.33627  0  2.584691  0  0  -0.277189  -0.308933  0  2.583438  0
O  O91  1  0.94393108  0.25002953  0.61263080  1  0  -0.391186  0  2.322915  0  0  -0.319696  0  2.583509  0  0  -0.335659  0  2.583865  0  0  -0.27629  -0.308379  0  2.5827  0
O  O92  1  0.15566988  0.48622992  0.81531309  1  0  -0.326601  0  2.30868  0  0  -0.249325  0  2.564768  0  0  -0.264887  0  2.566054  0  0  -0.291584  -0.238448  0  2.563545  0
O  O93  1  0.04256490  0.98600637  0.31528296  1  0  -0.326754  0  2.308909  0  0  -0.248769  0  2.565289  0  0  -0.264328  0  2.566632  0  0  -0.291166  -0.23785  0  2.564022  0
O  O94  1  0.14203333  0.51382361  0.31513080  1  0  -0.327582  0  2.309398  0  0  -0.250162  0  2.565627  0  0  -0.265683  0  2.566903  0  0  -0.292257  -0.239269  0  2.564375  0
O  O95  1  0.52938602  0.01403164  0.81525142  1  0  -0.327556  0  2.307586  0  0  -0.249392  0  2.56329  0  0  -0.264931  0  2.564585  0  0  -0.291742  -0.238484  0  2.562081  0
O  O96  1  0.84433000  0.51377161  0.18468614  1  0  -0.326561  0  2.308757  0  0  -0.249226  0  2.564815  0  0  -0.264784  0  2.566101  0  0  -0.291533  -0.238355  0  2.563583  0
O  O97  1  0.95743477  0.01399341  0.68472006  1  0  -0.326731  0  2.308851  0  0  -0.248745  0  2.565226  0  0  -0.264301  0  2.566571  0  0  -0.29112  -0.237825  0  2.56396  0
O  O98  1  0.85796553  0.48617617  0.68486898  1  0  -0.327544  0  2.309359  0  0  -0.250132  0  2.565618  0  0  -0.265656  0  2.566889  0  0  -0.292224  -0.239238  0  2.56436  0
O  O99  1  0.47061284  0.98596814  0.18474836  1  0  -0.327661  0  2.307458  0  0  -0.249525  0  2.563178  0  0  -0.265065  0  2.564468  0  0  -0.291809  -0.238611  0  2.56197  0
