# generated using pymatgen
data_Th8As12H74C72S12O83
_symmetry_space_group_name_H-M   'P 1'
_cell_length_a   15.06041489
_cell_length_b   15.91499252
_cell_length_c   17.72853068
_cell_angle_alpha   108.48515082
_cell_angle_beta   109.10931350
_cell_angle_gamma   101.27595301
_symmetry_Int_Tables_number   1
_chemical_formula_structural   Th8As12H74C72S12O83
_chemical_formula_sum   'Th8 As12 H74 C72 S12 O83'
_cell_volume   3589.26826768
_cell_formula_units_Z   1
loop_
 _symmetry_equiv_pos_site_id
 _symmetry_equiv_pos_as_xyz
  1  'x, y, z'
loop_
 _atom_site_type_symbol
 _atom_site_label
 _atom_site_symmetry_multiplicity
 _atom_site_fract_x
 _atom_site_fract_y
 _atom_site_fract_z
 _atom_site_occupancy
 _atom_site_pbe_bader_charge
 _atom_site_pbe_bader_spin_density
 _atom_site_pbe_cm5_charge
 _atom_site_pbe_ddec_charge
 _atom_site_pbe_ddec_spin_density
 _atom_site_pbe_ddec_sum_bond_order
 _atom_site_pbe_magmom
Th  Th0  1  0.60518859  0.54105285  0.45137006  1  2.792301  0  1.597473  2.338878  0  3.306446  0
Th  Th1  1  0.39481298  0.45894681  0.54862874  1  2.792358  0  1.59744  2.338812  0  3.306361  0
Th  Th2  1  0.43103924  0.28376252  0.21849803  1  2.854842  0  1.595994  2.432706  0  3.283782  0
Th  Th3  1  0.56896678  0.71623782  0.78150503  1  2.854638  0  1.59604  2.432776  0  3.28384  0
Th  Th4  1  0.83361728  0.53957720  0.67700857  1  2.870297  0  1.61773  2.470045  0  3.258624  0
Th  Th5  1  0.16638521  0.46042105  0.32298951  1  2.870349  0  1.617773  2.470111  0  3.258631  0
Th  Th6  1  0.52309477  0.78965805  0.47889803  1  2.883448  0  1.632372  2.495923  0  3.273858  0
Th  Th7  1  0.47690447  0.21034298  0.52110446  1  2.88356  0  1.632452  2.496034  0  3.273525  0
As  As8  1  0.64358434  0.34037277  0.44513231  1  2.295167  0  0.627671  1.500023  0  4.508869  0
As  As9  1  0.35641907  0.65962615  0.55487131  1  2.295274  0  0.627816  1.50026  0  4.508719  0
As  As10  1  0.40358578  0.53034418  0.29220801  1  2.282308  0  0.630394  1.513381  0  4.438534  0
As  As11  1  0.59641278  0.46965688  0.70779091  1  2.282581  0  0.630383  1.513403  0  4.438784  0
As  As12  1  0.71424114  0.72820253  0.64235732  1  2.281659  0  0.642702  1.531761  0  4.367908  0
As  As13  1  0.28575622  0.27179713  0.35763974  1  2.282007  0  0.642673  1.531665  0  4.368056  0
As  As14  1  0.17940466  0.29507441  0.12154847  1  2.275057  0  0.642814  1.494792  0  4.362266  0
As  As15  1  0.82060158  0.70492454  0.87845031  1  2.275063  0  0.642893  1.494836  0  4.361984  0
As  As16  1  0.39769543  0.07407371  0.27687177  1  2.268473  0  0.648932  1.522934  0  4.295021  0
As  As17  1  0.60230732  0.92592731  0.72313283  1  2.268811  0  0.648853  1.522749  0  4.295298  0
As  As18  1  0.76027244  0.28607308  0.65648983  1  2.261926  0  0.649401  1.497622  0  4.348662  0
As  As19  1  0.23972611  0.71393003  0.34351871  1  2.262006  0  0.649411  1.497787  0  4.348276  0
H  H20  1  0.65271449  0.27635544  0.23333236  1  0.634628  0  0.338168  0.423241  0  0.856311  0
H  H21  1  0.34728043  0.72362738  0.76665353  1  0.634479  0  0.338171  0.423288  0  0.856038  0
H  H22  1  0.57942382  0.18068157  0.21768453  1  0.643061  0  0.32782  0.422698  0  0.874888  0
H  H23  1  0.42056722  0.81930618  0.78230225  1  0.643134  0  0.327788  0.422664  0  0.874946  0
H  H24  1  0.37000101  0.16625631  0.02776915  1  0.619625  0  0.31994  0.401651  0  0.907406  0
H  H25  1  0.62999896  0.83374475  0.97222904  1  0.61954  0  0.31994  0.401676  0  0.907359  0
H  H26  1  0.48570318  0.20847029  0.06201642  1  0.642726  0  0.335063  0.423732  0  0.859827  0
H  H27  1  0.51429568  0.79152373  0.93798169  1  0.642699  0  0.335084  0.423782  0  0.859781  0
H  H28  1  0.05303721  0.51048430  0.74739752  1  0.625219  0  0.33017  0.417045  0  0.868884  0
H  H29  1  0.94696476  0.48951253  0.25260171  1  0.625346  0  0.330196  0.417081  0  0.868774  0
H  H30  1  0.04484040  0.49828522  0.65164879  1  0.676543  0  0.303731  0.412254  0  0.91573  0
H  H31  1  0.95516248  0.50171021  0.34834973  1  0.675279  0  0.30376  0.412329  0  0.915622  0
H  H32  1  0.00594908  0.71846594  0.79502789  1  0.662163  0  0.308204  0.408952  0  0.913021  0
H  H33  1  0.99405123  0.28153019  0.20497180  1  0.662306  0  0.308173  0.408895  0  0.913102  0
H  H34  1  0.03515680  0.65580994  0.72646572  1  0.603923  0  0.30689  0.384523  0  0.938939  0
H  H35  1  0.96484442  0.34418477  0.27353438  1  0.603984  0  0.30691  0.384538  0  0.938862  0
H  H36  1  0.46588644  0.73259363  0.27472736  1  0.639399  0  0.31927  0.398134  0  0.909166  0
H  H37  1  0.53410998  0.26740740  0.72527603  1  0.639305  0  0.319303  0.398128  0  0.909185  0
H  H38  1  0.58252489  0.76276401  0.32131410  1  0.619029  0  0.335743  0.417749  0  0.860691  0
H  H39  1  0.41747325  0.23723986  0.67868664  1  0.653655  0  0.335782  0.417727  0  0.860725  0
H  H40  1  0.66377292  0.15666070  0.38153004  1  0.14338  0  0.115527  0.128759  0  1.002557  0
H  H41  1  0.33622689  0.84333401  0.61847023  1  0.143434  0  0.115501  0.128712  0  1.002436  0
H  H42  1  0.96602472  0.37694638  0.40449958  1  0.147968  0  0.113849  0.120003  0  1.050748  0
H  H43  1  0.03397302  0.62305044  0.59550185  1  0.14787  0  0.113866  0.120033  0  1.050633  0
H  H44  1  0.27209367  0.57992093  0.16695400  1  0.135422  0  0.111478  0.117953  0  1.020794  0
H  H45  1  0.72790287  0.42008435  0.83304558  1  0.13546  0  0.111496  0.117994  0  1.020769  0
H  H46  1  0.54596493  0.55252030  0.07279391  1  0.10667  0  0.109567  0.11373  0  1.022611  0
H  H47  1  0.45402435  0.44747444  0.92720004  1  0.106751  0  0.109598  0.113719  0  1.022708  0
H  H48  1  0.88069778  0.85558501  0.80764241  1  0.148133  0  0.110961  0.113779  0  1.033994  0
H  H49  1  0.11929324  0.14442449  0.19235571  1  0.148034  0  0.110941  0.113729  0  1.034035  0
H  H50  1  0.96725798  0.92956155  0.58284158  1  0.114071  0  0.105622  0.102606  0  1.037576  0
H  H51  1  0.03274225  0.07043037  0.41715462  1  0.114507  0  0.105668  0.102604  0  1.037479  0
H  H52  1  0.18514077  0.14768401  0.07283070  1  0.655886  0  0.296058  0.368087  0  0.985583  0
H  H53  1  0.81486262  0.85231282  0.92716779  1  0.656071  0  0.296054  0.368034  0  0.985643  0
H  H54  1  0.45754552  0.97339957  0.32592099  1  0.661312  0  0.313084  0.399432  0  0.911155  0
H  H55  1  0.54245483  0.02659866  0.67407988  1  0.661303  0  0.31311  0.399483  0  0.910992  0
H  H56  1  0.78598517  0.09462360  0.33527029  1  0.051766  0  0.110693  0.109244  0  0.979338  0
H  H57  1  0.21401959  0.90537321  0.66473310  1  0.051894  0  0.110704  0.109209  0  0.979379  0
H  H58  1  0.78944430  0.24709014  0.77357986  1  0.600906  0  0.327773  0.391179  0  0.885638  0
H  H59  1  0.21054855  0.75290875  0.22642587  1  0.601036  0  0.327799  0.391245  0  0.885752  0
H  H60  1  0.93736711  0.20590448  0.34668036  1  0.091619  0  0.106674  0.109973  0  1.015886  0
H  H61  1  0.06263772  0.79409445  0.65332139  1  0.091726  0  0.10667  0.109969  0  1.015989  0
H  H62  1  0.26875355  0.60929328  0.03594818  1  0.15213  0  0.111783  0.130961  0  1.000834  0
H  H63  1  0.73123736  0.39070006  0.96404412  1  0.152155  0  0.111829  0.131048  0  1.00084  0
H  H64  1  0.40622121  0.59535668  0.98858351  1  0.102625  0  0.112766  0.118123  0  0.984774  0
H  H65  1  0.59376916  0.40463316  0.01140594  1  0.102729  0  0.112808  0.118145  0  0.9847  0
H  H66  1  0.04584618  0.97100681  0.85229275  1  0.150996  0  0.11268  0.125891  0  0.99219  0
H  H67  1  0.95414467  0.02900619  0.14770915  1  0.151386  0  0.112678  0.125918  0  0.992229  0
H  H68  1  0.08717289  0.01179956  0.74060168  1  0.07859  0  0.110722  0.10632  0  0.976253  0
H  H69  1  0.91282389  0.98819449  0.25939134  1  0.078681  0  0.110769  0.106359  0  0.976165  0
H  H70  1  0.24096558  0.32942311  0.99609051  1  0.11196  0  0.113988  0.121976  0  0.992131  0
H  H71  1  0.75903075  0.67057165  0.00390147  1  0.111971  0  0.114028  0.121951  0  0.992189  0
H  H72  1  0.24820533  0.97651048  0.30894306  1  0.105566  0  0.104102  0.111916  0  1.051691  0
H  H73  1  0.75180544  0.02349335  0.69106403  1  0.105752  0  0.104114  0.11189  0  1.051809  0
H  H74  1  0.07359037  0.90093976  0.99276425  1  0.146752  0  0.113265  0.132055  0  0.995393  0
H  H75  1  0.92641251  0.09905772  0.00724332  1  0.147138  0  0.11327  0.132096  0  0.995311  0
H  H76  1  0.94011524  0.30367241  0.63217577  1  0.108469  0  0.114377  0.120855  0  0.995533  0
H  H77  1  0.05987431  0.69633497  0.36782471  1  0.108567  0  0.114321  0.120849  0  0.995639  0
H  H78  1  0.07183000  0.59263922  0.06000992  1  0.129666  0  0.110891  0.121818  0  1.000769  0
H  H79  1  0.92816800  0.40735832  0.93998953  1  0.129265  0  0.110862  0.121846  0  1.000674  0
H  H80  1  0.24583512  0.04018854  0.52725984  1  0.14474  0  0.113396  0.128857  0  1.021436  0
H  H81  1  0.75417386  0.95982019  0.47275267  1  0.144732  0  0.11336  0.128711  0  1.02134  0
H  H82  1  0.17363018  0.37501855  0.87201722  1  0.081948  0  0.111904  0.115373  0  0.977933  0
H  H83  1  0.82636639  0.62497691  0.12797615  1  0.081892  0  0.111924  0.115351  0  0.977966  0
H  H84  1  0.07269719  0.86782059  0.22461477  1  0.064077  0  0.102442  0.101669  0  0.993847  0
H  H85  1  0.92731009  0.13218532  0.77539646  1  0.063818  0  0.102405  0.101658  0  0.993772  0
H  H86  1  0.98456658  0.83395342  0.06628759  1  0.101394  0  0.097425  0.089788  0  1.059687  0
H  H87  1  0.01543892  0.16604548  0.93371886  1  0.101388  0  0.097486  0.089859  0  1.059618  0
H  H88  1  0.01936977  0.19586664  0.56500689  1  0.142335  0  0.108645  0.126354  0  1.02102  0
H  H89  1  0.98063455  0.80415267  0.43500342  1  0.14227  0  0.108614  0.126336  0  1.020974  0
H  H90  1  0.98602086  0.58832835  0.15691952  1  0.096897  0  0.107539  0.108473  0  1.006387  0
H  H91  1  0.01397724  0.41167341  0.84307892  1  0.096882  0  0.107541  0.108486  0  1.006434  0
H  H92  1  0.07482494  0.97695471  0.51511572  1  0.066504  0  0.104556  0.097745  0  1.007891  0
H  H93  1  0.92518637  0.02305262  0.48489479  1  0.066492  0  0.10455  0.097788  0  1.007899  0
C  C94  1  0.74479453  0.30067409  0.41436189  1  -0.352811  0  -0.039572  -0.234698  0  4.013129  0
C  C95  1  0.25520462  0.69932274  0.58563823  1  -0.353204  0  -0.039574  -0.234712  0  4.013306  0
C  C96  1  0.82924572  0.36318515  0.42036053  1  -0.238634  0  -0.013311  -0.096303  0  4.007277  0
C  C97  1  0.17075299  0.63681238  0.57963911  1  -0.238268  0  -0.013357  -0.096375  0  4.007306  0
C  C98  1  0.40913298  0.54848109  0.19081193  1  -0.363252  0  -0.037591  -0.231305  0  3.99918  0
C  C99  1  0.59086378  0.45152280  0.80918393  1  -0.363536  0  -0.037573  -0.231354  0  3.999129  0
C  C100  1  0.48549673  0.53886727  0.16348242  1  -0.151669  0  -0.011821  -0.082418  0  3.991768  0
C  C101  1  0.51449931  0.46113661  0.83651605  1  -0.151632  0  -0.011867  -0.08237  0  3.991966  0
C  C102  1  0.83345848  0.82656147  0.67022398  1  -0.341006  0  -0.026178  -0.203548  0  3.934624  0
C  C103  1  0.16653898  0.17344241  0.32977320  1  -0.341231  0  -0.0262  -0.203596  0  3.9346  0
C  C104  1  0.85804910  0.84629930  0.60643934  1  -0.161022  0  -0.009347  -0.080197  0  3.980672  0
C  C105  1  0.14195116  0.15370458  0.39355862  1  -0.1609  0  -0.009337  -0.080322  0  3.980724  0
C  C106  1  0.72932044  0.20412182  0.38477870  1  -0.018598  0  -0.077232  -0.077148  0  3.998371  0
C  C107  1  0.27067607  0.79587149  0.61521911  1  -0.018458  0  -0.07724  -0.077179  0  3.998501  0
C  C108  1  0.89897712  0.32841410  0.39723650  1  -0.029099  0  -0.078384  -0.071794  0  3.932781  0
C  C109  1  0.10101924  0.67158274  0.60276059  1  -0.02905  0  -0.078435  -0.071788  0  3.932555  0
C  C110  1  0.33147339  0.57406847  0.14535526  1  -0.032378  0  -0.079833  -0.08159  0  4.00988  0
C  C111  1  0.66852056  0.42593541  0.85464094  1  -0.032249  0  -0.07977  -0.081453  0  4.009573  0
C  C112  1  0.48457023  0.55744281  0.09151688  1  0.033906  0  -0.078929  -0.088227  0  3.96535  0
C  C113  1  0.51542117  0.44255193  0.90847709  1  0.033698  0  -0.078976  -0.088289  0  3.965707  0
C  C114  1  0.89982965  0.87218559  0.75863122  1  -0.024311  0  -0.068277  -0.042866  0  3.94958  0
C  C115  1  0.10016653  0.12782462  0.24136799  1  -0.024386  0  -0.068145  -0.042576  0  3.949175  0
C  C116  1  0.94881465  0.91463883  0.63271923  1  0.050913  0  -0.082765  -0.094674  0  3.992127  0
C  C117  1  0.05118453  0.08535803  0.36727528  1  0.051283  0  -0.082773  -0.094562  0  3.99184  0
C  C118  1  0.12201466  0.34264450  0.03602442  1  -0.276616  0  -0.039423  -0.226317  0  3.981527  0
C  C119  1  0.87798420  0.65734952  0.96397313  1  -0.278315  0  -0.039389  -0.226229  0  3.981508  0
C  C120  1  0.26018751  0.99581730  0.19760720  1  -0.337853  0  -0.036542  -0.219153  0  3.95563  0
C  C121  1  0.73981488  0.00418864  0.80239872  1  -0.337444  0  -0.036584  -0.21914  0  3.955545  0
C  C122  1  0.21141405  0.97456929  0.10834567  1  -0.137641  0  -0.010395  -0.064649  0  3.976488  0
C  C123  1  0.78858849  0.02543314  0.89165985  1  -0.13786  0  -0.010409  -0.064715  0  3.976551  0
C  C124  1  0.79851415  0.16994306  0.35956185  1  0.033798  0  -0.075373  -0.057868  0  3.959029  0
C  C125  1  0.20148757  0.83005307  0.64043767  1  0.033548  0  -0.07536  -0.057759  0  3.959131  0
C  C126  1  0.80489689  0.19185501  0.59213509  1  -0.33485  0  -0.037341  -0.226266  0  3.978508  0
C  C127  1  0.19510280  0.80815518  0.40786735  1  -0.335317  0  -0.037345  -0.226351  0  3.97889  0
C  C128  1  0.96537905  0.63404151  0.97868585  1  -0.169018  0  -0.010701  -0.071854  0  3.991531  0
C  C129  1  0.03462366  0.36595742  0.02131532  1  -0.169423  0  -0.010735  -0.071884  0  3.99177  0
C  C130  1  0.88303961  0.23189115  0.36612749  1  0.021509  0  -0.07118  -0.045059  0  3.922812  0
C  C131  1  0.11696121  0.76810640  0.63386937  1  0.021474  0  -0.071162  -0.045114  0  3.922968  0
C  C132  1  0.24744404  0.90463677  0.45345461  1  -0.145476  0  -0.011954  -0.075392  0  4.003198  0
C  C133  1  0.75256378  0.09536073  0.54655096  1  -0.145805  0  -0.011855  -0.075313  0  4.00274  0
C  C134  1  0.33015476  0.59080247  0.07218904  1  -0.061866  0  -0.071766  -0.053222  0  3.918653  0
C  C135  1  0.66983879  0.40919438  0.92780615  1  -0.06211  0  -0.071833  -0.053462  0  3.918695  0
C  C136  1  0.40698641  0.58277037  0.04573917  1  -0.078545  0  -0.071825  -0.051326  0  3.939701  0
C  C137  1  0.59300499  0.41722438  0.95425424  1  -0.078083  0  -0.071892  -0.051289  0  3.939668  0
C  C138  1  0.99213125  0.93788038  0.78385458  1  0.003484  0  -0.067323  -0.040525  0  3.90669  0
C  C139  1  0.00786714  0.06212419  0.21614588  1  0.003086  0  -0.067403  -0.040732  0  3.906793  0
C  C140  1  0.01563022  0.95983603  0.72102279  1  -0.152976  0  -0.076198  -0.066098  0  3.980068  0
C  C141  1  0.98436826  0.04016083  0.27897152  1  -0.153787  0  -0.076241  -0.066136  0  3.980061  0
C  C142  1  0.17198223  0.34592138  0.98243666  1  -0.023597  0  -0.077759  -0.073706  0  4.01419  0
C  C143  1  0.82801485  0.65407549  0.01755669  1  -0.022254  0  -0.077899  -0.073862  0  4.014453  0
C  C144  1  0.20986894  0.95804555  0.23942862  1  -0.020338  0  -0.089126  -0.081029  0  4.030274  0
C  C145  1  0.79013646  0.04195899  0.76057718  1  -0.021019  0  -0.089103  -0.080929  0  4.030465  0
C  C146  1  0.11177265  0.91669229  0.06183869  1  -0.000217  0  -0.07468  -0.061602  0  3.906999  0
C  C147  1  0.88822968  0.08331154  0.93816774  1  -0.00149  0  -0.074706  -0.061589  0  3.907036  0
C  C148  1  0.90074837  0.22814014  0.59842324  1  -0.016868  0  -0.074942  -0.059524  0  3.984379  0
C  C149  1  0.09924481  0.77186163  0.40157439  1  -0.016825  0  -0.074785  -0.059404  0  3.983952  0
C  C150  1  0.00355221  0.60986549  0.04865532  1  -0.013075  0  -0.076719  -0.076525  0  3.938717  0
C  C151  1  0.99644737  0.39012854  0.95134130  1  -0.012738  0  -0.076696  -0.076565  0  3.938765  0
C  C152  1  0.20413331  0.96521030  0.49232881  1  0.004318  0  -0.077793  -0.076174  0  3.925814  0
C  C153  1  0.79588184  0.03480194  0.50768533  1  0.004663  0  -0.077744  -0.075909  0  3.925808  0
C  C154  1  0.13367914  0.37120502  0.91289964  1  -0.07467  0  -0.078059  -0.06751  0  3.961588  0
C  C155  1  0.86631768  0.62879113  0.08709513  1  -0.074188  0  -0.077982  -0.067326  0  3.961582  0
C  C156  1  0.11144208  0.89750127  0.19180921  1  -0.019404  0  -0.08837  -0.078857  0  3.994904  0
C  C157  1  0.88856445  0.10250253  0.80820176  1  -0.01948  0  -0.088439  -0.079055  0  3.995314  0
C  C158  1  0.06238268  0.87797800  0.10350626  1  -0.03816  0  -0.080611  -0.049976  0  3.966627  0
C  C159  1  0.93762054  0.12202440  0.89650338  1  -0.036682  0  -0.080539  -0.049918  0  3.966753  0
C  C160  1  0.94461607  0.16760447  0.56009494  1  -0.043874  0  -0.077723  -0.063181  0  3.93219  0
C  C161  1  0.05538882  0.83240851  0.43991314  1  -0.043339  0  -0.077791  -0.063231  0  3.932209  0
C  C162  1  0.95446573  0.60776186  0.10299984  1  -0.003113  0  -0.071922  -0.034125  0  3.943188  0
C  C163  1  0.04552993  0.39223499  0.89699593  1  -0.002433  0  -0.071886  -0.034065  0  3.943187  0
C  C164  1  0.10792885  0.92872546  0.48476120  1  -0.068918  0  -0.078542  -0.066672  0  3.978834  0
C  C165  1  0.89207587  0.07127911  0.51524046  1  -0.068738  0  -0.078594  -0.066818  0  3.978511  0
S  S166  1  0.84679165  0.48634001  0.45517297  1  3.187371  0  0.556071  1.222065  0  6.105732  0
S  S167  1  0.15321224  0.51365824  0.54482607  1  3.187286  0  0.556153  1.222169  0  6.105959  0
S  S168  1  0.58523946  0.50405810  0.21830322  1  3.212154  0  0.536835  1.210116  0  6.156653  0
S  S169  1  0.41475847  0.49594510  0.78169051  1  3.211688  0  0.536835  1.210164  0  6.156262  0
S  S170  1  0.78160847  0.78069079  0.49151106  1  3.206114  0  0.538526  1.202849  0  6.160033  0
S  S171  1  0.21839036  0.21931100  0.50848364  1  3.206231  0  0.538642  1.20308  0  6.159468  0
S  S172  1  0.27265468  0.01986115  0.05159148  1  3.168236  0  0.506782  1.157596  0  6.208651  0
S  S173  1  0.72734502  0.98013920  0.94840812  1  3.168011  0  0.506796  1.157808  0  6.208498  0
S  S174  1  0.02811584  0.63220841  0.90868280  1  3.18097  0  0.518354  1.167454  0  6.206648  0
S  S175  1  0.97188544  0.36778843  0.09131510  1  3.180567  0  0.51823  1.167266  0  6.20671  0
S  S176  1  0.37014037  0.95072519  0.46388508  1  3.204941  0  0.543652  1.209859  0  6.14681  0
S  S177  1  0.62987621  0.04929118  0.53614418  1  3.204994  0  0.543354  1.209346  0  6.147611  0
O  O178  1  0.56287831  0.36180280  0.36407633  1  -1.187149  0  -0.499224  -0.885273  0  2.160043  0
O  O179  1  0.43712444  0.63819823  0.63592715  1  -1.187157  0  -0.499254  -0.885375  0  2.160169  0
O  O180  1  0.68644463  0.44715555  0.53214793  1  -1.176709  0  -0.474987  -0.893596  0  2.183496  0
O  O181  1  0.31355782  0.55284267  0.46785522  1  -1.176777  0  -0.475046  -0.893647  0  2.183432  0
O  O182  1  0.74706613  0.48910199  0.41071656  1  -1.339098  0  -0.333733  -0.637964  0  2.37859  0
O  O183  1  0.25293555  0.51089203  0.58928066  1  -1.339196  0  -0.333719  -0.63793  0  2.37859  0
O  O184  1  0.48853416  0.62333201  0.38958610  1  -1.179743  0  -0.493411  -0.888329  0  2.139489  0
O  O185  1  0.51146618  0.37666620  0.61041814  1  -1.179751  0  -0.493407  -0.888314  0  2.139505  0
O  O186  1  0.44477428  0.44210365  0.31049324  1  -1.170612  0  -0.485382  -0.884681  0  2.195394  0
O  O187  1  0.55522328  0.55789460  0.68950403  1  -1.170575  0  -0.485387  -0.884685  0  2.195429  0
O  O188  1  0.61352218  0.55970773  0.31183119  1  -1.349665  0  -0.347759  -0.652594  0  2.37956  0
O  O189  1  0.38647260  0.44029262  0.68816761  1  -1.349443  0  -0.347719  -0.652557  0  2.379541  0
O  O190  1  0.61154637  0.70007997  0.54732794  1  -1.174991  0  -0.494162  -0.894695  0  2.20009  0
O  O191  1  0.38845265  0.29992040  0.45266810  1  -1.174981  0  -0.494189  -0.894746  0  2.200188  0
O  O192  1  0.73363876  0.62096365  0.61088085  1  -1.174759  0  -0.497715  -0.873493  0  2.125209  0
O  O193  1  0.26636268  0.37903955  0.38911386  1  -1.175015  0  -0.497712  -0.873461  0  2.125256  0
O  O194  1  0.75725137  0.68231827  0.48082946  1  -1.336231  0  -0.33883  -0.633355  0  2.354076  0
O  O195  1  0.24274666  0.31767929  0.51916492  1  -1.336284  0  -0.338804  -0.633342  0  2.354016  0
O  O196  1  0.50000150  0.49999984  0.49999735  1  -1.206554  0  -0.830993  -1.003133  0  2.005359  0
O  O197  1  0.54045925  0.40176236  0.19398978  1  -1.339773  0  -0.379271  -0.667373  0  2.317436  0
O  O198  1  0.45953942  0.59824294  0.80600533  1  -1.339648  0  -0.379244  -0.667405  0  2.317475  0
O  O199  1  0.30233430  0.32211613  0.13929743  1  -1.160019  0  -0.500718  -0.855515  0  2.064864  0
O  O200  1  0.69767124  0.67788282  0.86070172  1  -1.159747  0  -0.500755  -0.855499  0  2.06465  0
O  O201  1  0.46125184  0.15570493  0.25350068  1  -1.149704  0  -0.474599  -0.859904  0  2.062307  0
O  O202  1  0.53875331  0.84429891  0.74650541  1  -1.149636  0  -0.474583  -0.859832  0  2.062446  0
O  O203  1  0.29036795  0.12537494  0.09312536  1  -1.34127  0  -0.371791  -0.722658  0  2.378844  0
O  O204  1  0.70963617  0.87462400  0.90687508  1  -1.341353  0  -0.371755  -0.722657  0  2.378692  0
O  O205  1  0.58539940  0.23155582  0.19774866  1  -1.241899  0  -0.564818  -0.780305  0  2.011684  0
O  O206  1  0.41459516  0.76843193  0.80223798  1  -1.241892  0  -0.564787  -0.780323  0  2.011399  0
O  O207  1  0.42589466  0.22546016  0.05770008  1  -1.224613  0  -0.580004  -0.765313  0  2.004887  0
O  O208  1  0.57410458  0.77453881  0.94229449  1  -1.224527  0  -0.580021  -0.765396  0  2.004865  0
O  O209  1  0.31524783  0.24354982  0.27052970  1  -1.158775  0  -0.488076  -0.858848  0  2.140901  0
O  O210  1  0.68474974  0.75644844  0.72946589  1  -1.158763  0  -0.48811  -0.858921  0  2.141005  0
O  O211  1  0.58428049  0.25334035  0.46367872  1  -1.15907  0  -0.496125  -0.848404  0  2.188774  0
O  O212  1  0.41571517  0.74665650  0.53631761  1  -1.159042  0  -0.496134  -0.848424  0  2.188694  0
O  O213  1  0.88215956  0.52610809  0.55183457  1  -1.316727  0  -0.362853  -0.651411  0  2.350802  0
O  O214  1  0.11784125  0.47388944  0.44816566  1  -1.31678  0  -0.362862  -0.651446  0  2.350984  0
O  O215  1  0.82164563  0.38415091  0.65152907  1  -1.151032  0  -0.49122  -0.848063  0  2.06412  0
O  O216  1  0.17835541  0.61584729  0.34847650  1  -1.150978  0  -0.491118  -0.847984  0  2.063983  0
O  O217  1  0.01999291  0.52268632  0.69685088  1  -1.280229  0  -0.576782  -0.816303  0  2.080712  0
O  O218  1  0.98001337  0.47731473  0.30315077  1  -1.279075  0  -0.576853  -0.816425  0  2.080537  0
O  O219  1  0.98663296  0.68822030  0.73090174  1  -1.246399  0  -0.595272  -0.780031  0  2.057157  0
O  O220  1  0.01337021  0.31177794  0.26909766  1  -1.246586  0  -0.595251  -0.779987  0  2.057168  0
O  O221  1  0.71623627  0.48657844  0.72267057  1  -1.158129  0  -0.490691  -0.852996  0  2.138537  0
O  O222  1  0.28376286  0.51342617  0.27732390  1  -1.157878  0  -0.490706  -0.852987  0  2.138473  0
O  O223  1  0.83989909  0.67297604  0.78644771  1  -1.142303  0  -0.484117  -0.859377  0  2.186415  0
O  O224  1  0.16010039  0.32702363  0.21354769  1  -1.14223  0  -0.48411  -0.859396  0  2.186546  0
O  O225  1  0.95311686  0.55473958  0.82239663  1  -1.342182  0  -0.38523  -0.691742  0  2.328772  0
O  O226  1  0.04688160  0.44525726  0.17760105  1  -1.342124  0  -0.385252  -0.691742  0  2.328815  0
O  O227  1  0.92110448  0.52825713  0.43031757  1  -1.329657  0  -0.309495  -0.550627  0  2.236448  0
O  O228  1  0.07889854  0.47174462  0.56968393  1  -1.329523  0  -0.309545  -0.550687  0  2.236561  0
O  O229  1  0.69078642  0.80905959  0.47158857  1  -1.352533  0  -0.370594  -0.685612  0  2.363048  0
O  O230  1  0.30920936  0.19094356  0.52841243  1  -1.35284  0  -0.37069  -0.685749  0  2.362869  0
O  O231  1  0.52489854  0.77921164  0.32595633  1  -1.22538  0  -0.569601  -0.753197  0  2.035736  0
O  O232  1  0.47510009  0.22079362  0.67404665  1  -1.259948  0  -0.569697  -0.753191  0  2.035758  0
O  O233  1  0.61193759  0.88059168  0.62607026  1  -1.161279  0  -0.506157  -0.876932  0  2.132317  0
O  O234  1  0.38806316  0.11940372  0.37393273  1  -1.161198  0  -0.506168  -0.876953  0  2.132293  0
O  O235  1  0.36097986  0.73305884  0.36230891  1  -1.133309  0  -0.473677  -0.861789  0  2.103867  0
O  O236  1  0.63901746  0.26695063  0.63769604  1  -1.133196  0  -0.473684  -0.86179  0  2.104039  0
O  O237  1  0.43044643  0.90928408  0.51537078  1  -1.343179  0  -0.346925  -0.651109  0  2.397368  0
O  O238  1  0.56956357  0.09071762  0.48463999  1  -1.343315  0  -0.346741  -0.65083  0  2.397221  0
O  O239  1  0.60113272  0.94727693  0.48593502  1  -1.333977  0  -0.36711  -0.638625  0  2.380582  0
O  O240  1  0.39886757  0.05271916  0.51406973  1  -1.334208  0  -0.367067  -0.638553  0  2.381271  0
O  O241  1  0.66158804  0.52317982  0.18776731  1  -1.311244  0  -0.332255  -0.553306  0  2.098344  0
O  O242  1  0.33840342  0.47682898  0.81223242  1  -1.311278  0  -0.33229  -0.553338  0  2.097821  0
O  O243  1  0.83915392  0.80578031  0.44584519  1  -1.321307  0  -0.328224  -0.556567  0  2.143441  0
O  O244  1  0.16083687  0.19421866  0.55414927  1  -1.321038  0  -0.328297  -0.556661  0  2.143042  0
O  O245  1  0.12699636  0.17166093  0.06868252  1  -1.16373  0  -0.422381  -0.662684  0  2.01009  0
O  O246  1  0.87300969  0.82833943  0.93131661  1  -1.163792  0  -0.422432  -0.662702  0  2.010113  0
O  O247  1  0.47061170  0.00024429  0.28584502  1  -1.144485  0  -0.431742  -0.663336  0  1.921322  0
O  O248  1  0.52939356  0.99975392  0.71415947  1  -1.144679  0  -0.431721  -0.663353  0  1.921339  0
O  O249  1  0.20259177  0.98074865  0.96038142  1  -1.329238  0  -0.342477  -0.568649  0  2.131582  0
O  O250  1  0.79741084  0.01925592  0.03962022  1  -1.329112  0  -0.342531  -0.568761  0  2.131492  0
O  O251  1  0.36672301  0.00220028  0.07202426  1  -1.311598  0  -0.341551  -0.574101  0  2.116809  0
O  O252  1  0.63327559  0.99779302  0.92797639  1  -1.311528  0  -0.341518  -0.574163  0  2.116863  0
O  O253  1  0.82076335  0.30342556  0.76786860  1  -1.112409  0  -0.419079  -0.669655  0  2.01573  0
O  O254  1  0.17922929  0.69657474  0.23213691  1  -1.112419  0  -0.419201  -0.669871  0  2.015898  0
O  O255  1  0.11666414  0.60871579  0.94358373  1  -1.330299  0  -0.334624  -0.573428  0  2.17078  0
O  O256  1  0.88333586  0.39127545  0.05640938  1  -1.330251  0  -0.334668  -0.573439  0  2.170944  0
O  O257  1  0.04560793  0.72430644  0.90474858  1  -1.319746  0  -0.321638  -0.587062  0  2.223646  0
O  O258  1  0.95439168  0.27568969  0.09525035  1  -1.319628  0  -0.321483  -0.586882  0  2.223464  0
O  O259  1  0.36417063  0.92232997  0.37507415  1  -1.324431  0  -0.313247  -0.6092  0  2.269286  0
O  O260  1  0.63584358  0.07767953  0.62492934  1  -1.324474  0  -0.313108  -0.608905  0  2.27079  0
