# generated using pymatgen
data_AgH10C9(NO)3
_symmetry_space_group_name_H-M   'P 1'
_cell_length_a   7.94722085
_cell_length_b   7.99501438
_cell_length_c   10.24386442
_cell_angle_alpha   97.61264865
_cell_angle_beta   94.62622794
_cell_angle_gamma   108.49412320
_symmetry_Int_Tables_number   1
_chemical_formula_structural   AgH10C9(NO)3
_chemical_formula_sum   'Ag2 H20 C18 N6 O6'
_cell_volume   606.58930323
_cell_formula_units_Z   2
loop_
 _symmetry_equiv_pos_site_id
 _symmetry_equiv_pos_as_xyz
  1  'x, y, z'
loop_
 _atom_site_type_symbol
 _atom_site_label
 _atom_site_symmetry_multiplicity
 _atom_site_fract_x
 _atom_site_fract_y
 _atom_site_fract_z
 _atom_site_occupancy
 _atom_site_hle17_bader_spin_density
 _atom_site_hle17_ddec_charge
 _atom_site_hle17_ddec_spin_density
 _atom_site_hle17_ddec_sum_bond_order
 _atom_site_hle17_magmom
 _atom_site_hse06_10hf_bader_spin_density
 _atom_site_hse06_10hf_ddec_charge
 _atom_site_hse06_10hf_ddec_spin_density
 _atom_site_hse06_10hf_ddec_sum_bond_order
 _atom_site_hse06_10hf_magmom
 _atom_site_hse06_bader_spin_density
 _atom_site_hse06_ddec_charge
 _atom_site_hse06_ddec_spin_density
 _atom_site_hse06_ddec_sum_bond_order
 _atom_site_hse06_magmom
 _atom_site_pbe_bader_spin_density
 _atom_site_pbe_cm5_charge
 _atom_site_pbe_ddec_charge
 _atom_site_pbe_ddec_spin_density
 _atom_site_pbe_ddec_sum_bond_order
 _atom_site_pbe_magmom
Ag  Ag0  1  0.15580114  0.39777464  0.81836567  1  0  0.486154  0  1.428086  0  0  0.336897  0  1.856351  0  0  0.368619  0  1.811102  0  0  0.467822  0.314773  0  1.887925  0
Ag  Ag1  1  0.84419717  0.60222330  0.18163821  1  0  0.486137  0  1.428118  0  0  0.336892  0  1.85639  0  0  0.368612  0  1.811139  0  0  0.467835  0.314764  0  1.887965  0
H  H2  1  0.78273274  0.24417255  0.89859622  1  0  0.080167  0  0.952265  0  0  0.089206  0  1.021619  0  0  0.091833  0  1.018923  0  0  0.116593  0.087249  0  1.023649  0
H  H3  1  0.21726258  0.75582397  0.10140343  1  0  0.08019  0  0.952264  0  0  0.089222  0  1.021626  0  0  0.091849  0  1.01893  0  0  0.116593  0.087264  0  1.023657  0
H  H4  1  0.40202017  0.41014232  0.67081286  1  0  0.089063  0  0.988745  0  0  0.097582  0  1.061394  0  0  0.101266  0  1.056414  0  0  0.099979  0.094711  0  1.065172  0
H  H5  1  0.59798386  0.58986472  0.32918438  1  0  0.089036  0  0.98875  0  0  0.097553  0  1.061399  0  0  0.101237  0  1.056417  0  0  0.099971  0.09468  0  1.06518  0
H  H6  1  0.65449086  0.58374509  0.56102136  1  0  0.112681  0  0.936219  0  0  0.125794  0  0.989411  0  0  0.128121  0  0.989407  0  0  0.116179  0.124099  0  0.989478  0
H  H7  1  0.34551992  0.41626340  0.43898328  1  0  0.112613  0  0.936207  0  0  0.125767  0  0.989358  0  0  0.128099  0  0.989348  0  0  0.116184  0.124075  0  0.989421  0
H  H8  1  0.96432627  0.57709714  0.62568759  1  0  0.089113  0  0.9365  0  0  0.098494  0  0.997157  0  0  0.101244  0  0.994338  0  0  0.120179  0.09642  0  0.999297  0
H  H9  1  0.03568235  0.42290882  0.37432060  1  0  0.089055  0  0.936509  0  0  0.098423  0  0.997172  0  0  0.101171  0  0.994353  0  0  0.120151  0.096348  0  0.999313  0
H  H10  1  0.48201920  0.10276084  0.91050049  1  0  0.077657  0  0.952697  0  0  0.083677  0  1.029498  0  0  0.086586  0  1.023964  0  0  0.118256  0.081468  0  1.033391  0
H  H11  1  0.51798114  0.89723550  0.08949557  1  0  0.077668  0  0.952792  0  0  0.083737  0  1.02954  0  0  0.08665  0  1.023996  0  0  0.118266  0.081527  0  1.033434  0
H  H12  1  0.24753323  0.99634400  0.98146015  1  0  0.042741  0  0.923705  0  0  0.05932  0  0.985068  0  0  0.058953  0  0.985294  0  0  0.105572  0.059434  0  0.985111  0
H  H13  1  0.75246507  0.00365386  0.01854079  1  0  0.042783  0  0.923687  0  0  0.059331  0  0.985061  0  0  0.058961  0  0.985287  0  0  0.10558  0.059446  0  0.985101  0
H  H14  1  0.04390140  0.88586361  0.77106984  1  0  0.081724  0  0.925446  0  0  0.100115  0  0.981426  0  0  0.10027  0  0.982824  0  0  0.094468  0.099985  0  0.980394  0
H  H15  1  0.95609690  0.11413425  0.22893110  1  0  0.081737  0  0.925465  0  0  0.100148  0  0.981408  0  0  0.100303  0  0.982806  0  0  0.094478  0.10002  0  0.980376  0
H  H16  1  0.93186236  0.04027190  0.81364723  1  0  0.066006  0  0.94766  0  0  0.082574  0  1.0173  0  0  0.083723  0  1.015801  0  0  0.087  0.081678  0  1.018395  0
H  H17  1  0.06813765  0.95972722  0.18635198  1  0  0.066015  0  0.947631  0  0  0.082575  0  1.01728  0  0  0.083721  0  1.015782  0  0  0.08701  0.081679  0  1.018374  0
H  H18  1  0.75772536  0.74429927  0.86323473  1  0  0.080947  0  0.957063  0  0  0.095219  0  1.02164  0  0  0.094844  0  1.02505  0  0  0.089932  0.095416  0  1.019362  0
H  H19  1  0.24227260  0.25570125  0.13676544  1  0  0.080904  0  0.957034  0  0  0.095206  0  1.021608  0  0  0.094837  0  1.025002  0  0  0.089919  0.095395  0  1.019343  0
H  H20  1  0.94706962  0.73243411  0.96092005  1  0  0.052635  0  0.962103  0  0  0.066854  0  1.041343  0  0  0.067735  0  1.039955  0  0  0.078808  0.066034  0  1.042637  0
H  H21  1  0.05292913  0.26756496  0.03907713  1  0  0.052601  0  0.962127  0  0  0.066819  0  1.041395  0  0  0.067699  0  1.040007  0  0  0.07878  0.066  0  1.042685  0
C  C22  1  0.75048214  0.31882750  0.82425499  1  0  0.096141  0  3.667075  0  0  0.058945  0  3.908351  0  0  0.065239  0  3.927473  0  0  0.056798  0.054247  0  3.895909  0
C  C23  1  0.24951787  0.68117159  0.17574324  1  0  0.096082  0  3.666997  0  0  0.058875  0  3.908253  0  0  0.06517  0  3.927373  0  0  0.05677  0.054177  0  3.895811  0
C  C24  1  0.57383490  0.31448025  0.79532415  1  0  0.002952  0  3.779578  0  0  0.029905  0  4.007954  0  0  0.022426  0  4.032183  0  0  -0.000776  0.034611  0  3.991415  0
C  C25  1  0.42616247  0.68551482  0.20467258  1  0  0.002929  0  3.779782  0  0  0.029942  0  4.008074  0  0  0.02246  0  4.032306  0  0  -0.000824  0.034648  0  3.991532  0
C  C26  1  0.53792041  0.41103080  0.69836357  1  0  -0.02553  0  3.659115  0  0  -0.054488  0  3.901643  0  0  -0.050657  0  3.919221  0  0  -0.055894  -0.056092  0  3.889277  0
C  C27  1  0.46208269  0.58897354  0.30163239  1  0  -0.025346  0  3.65912  0  0  -0.054311  0  3.901594  0  0  -0.05048  0  3.91918  0  0  -0.055806  -0.055911  0  3.88922  0
C  C28  1  0.67797760  0.50737065  0.63661432  1  0  -0.084872  0  3.701673  0  0  -0.096813  0  3.952784  0  0  -0.103137  0  3.973181  0  0  -0.069342  -0.092855  0  3.938575  0
C  C29  1  0.32203021  0.49263649  0.36338805  1  0  -0.084829  0  3.701659  0  0  -0.096816  0  3.952758  0  0  -0.103147  0  3.973156  0  0  -0.069325  -0.092859  0  3.938548  0
C  C30  1  0.85006501  0.50464694  0.67170352  1  0  0.145257  0  3.649741  0  0  0.113076  0  3.897123  0  0  0.121183  0  3.913945  0  0  0.058659  0.107265  0  3.885783  0
C  C31  1  0.14993983  0.49535898  0.32830149  1  0  0.145302  0  3.649802  0  0  0.11316  0  3.897165  0  0  0.121269  0  3.91399  0  0  0.058668  0.10735  0  3.885823  0
C  C32  1  0.44039332  0.20250954  0.86536301  1  0  0.168665  0  3.667235  0  0  0.120929  0  3.917826  0  0  0.135098  0  3.93152  0  0  0.088634  0.111422  0  3.908089  0
C  C33  1  0.55959116  0.79748851  0.13463702  1  0  0.168736  0  3.666576  0  0  0.120922  0  3.917169  0  0  0.135093  0  3.930865  0  0  0.088692  0.111413  0  3.907435  0
C  C34  1  0.17021850  0.07942572  0.94837487  1  0  0.141348  0  3.635938  0  0  0.126572  0  3.872867  0  0  0.130242  0  3.891373  0  0  -0.001803  0.124141  0  3.860231  0
C  C35  1  0.82977775  0.92057351  0.05162605  1  0  0.141219  0  3.635984  0  0  0.126503  0  3.872806  0  0  0.130183  0  3.891301  0  0  -0.001857  0.124071  0  3.860176  0
C  C36  1  0.00354688  0.95767969  0.85537789  1  0  -0.147165  0  3.6596  0  0  -0.188895  0  3.911595  0  0  -0.190799  0  3.926392  0  0  -0.163137  -0.187294  0  3.901096  0
C  C37  1  0.99645142  0.04231814  0.14462208  1  0  -0.147164  0  3.659579  0  0  -0.1889  0  3.911543  0  0  -0.190804  0  3.926338  0  0  -0.163145  -0.187298  0  3.90104  0
C  C38  1  0.88018247  0.82516645  0.92932823  1  0  -0.151437  0  3.67375  0  0  -0.192061  0  3.922332  0  0  -0.194686  0  3.938856  0  0  -0.167724  -0.190054  0  3.91091  0
C  C39  1  0.11981456  0.17483131  0.07066871  1  0  -0.151443  0  3.673807  0  0  -0.192082  0  3.922384  0  0  -0.194703  0  3.938908  0  0  -0.167729  -0.190095  0  3.911005  0
N  N40  1  0.88598679  0.41207137  0.76484015  1  0  -0.30175  0  3.342537  0  0  -0.217563  0  3.626274  0  0  -0.236635  0  3.64229  0  0  -0.343052  -0.204576  0  3.615751  0
N  N41  1  0.11401370  0.58792927  0.23516509  1  0  -0.301764  0  3.342577  0  0  -0.217615  0  3.626333  0  0  -0.236687  0  3.642345  0  0  -0.343053  -0.204626  0  3.615809  0
N  N42  1  0.28337757  0.21132172  0.87708862  1  0  -0.32584  0  3.23869  0  0  -0.235052  0  3.524571  0  0  -0.25856  0  3.54194  0  0  -0.34738  -0.219304  0  3.512575  0
N  N43  1  0.71663203  0.78867587  0.12290915  1  0  -0.325933  0  3.237994  0  0  -0.235144  0  3.523884  0  0  -0.258657  0  3.541254  0  0  -0.34746  -0.219396  0  3.511889  0
N  N44  1  0.38103566  0.74702304  0.75132548  1  0  0.712872  0  4.122127  0  0  0.734138  0  4.424209  0  0  0.763078  0  4.430833  0  0  0.084877  0.714361  0  4.41943  0
N  N45  1  0.61896263  0.25297476  0.24867350  1  0  0.712778  0  4.122261  0  0  0.734052  0  4.42433  0  0  0.76299  0  4.430964  0  0  0.084919  0.714276  0  4.419545  0
O  O46  1  0.34435845  0.72129133  0.86896818  1  0  -0.523815  0  1.766179  0  0  -0.498214  0  2.017889  0  0  -0.51854  0  2.0093  0  0  -0.226077  -0.483198  0  2.02288  0
O  O47  1  0.65560922  0.27870546  0.13102573  1  0  -0.523739  0  1.766311  0  0  -0.498158  0  2.018036  0  0  -0.518484  0  2.009452  0  0  -0.226089  -0.483141  0  2.023024  0
O  O48  1  0.28069179  0.63811097  0.65203559  1  0  -0.512941  0  1.754189  0  0  -0.494123  0  1.981573  0  0  -0.51199  0  1.973641  0  0  -0.214193  -0.481296  0  1.986298  0
O  O49  1  0.71931599  0.36189581  0.34795503  1  0  -0.512875  0  1.754052  0  0  -0.494062  0  1.981452  0  0  -0.511924  0  1.973511  0  0  -0.214172  -0.481233  0  1.986174  0
O  O50  1  0.51388020  0.87509577  0.73665993  1  0  -0.452725  0  1.702061  0  0  -0.44205  0  1.903247  0  0  -0.455425  0  1.897926  0  0  -0.194333  -0.432598  0  1.90693  0
O  O51  1  0.48613295  0.12489415  0.26335207  1  0  -0.452743  0  1.702103  0  0  -0.442077  0  1.903293  0  0  -0.455449  0  1.897973  0  0  -0.194402  -0.432622  0  1.906973  0
