# generated using pymatgen
data_H8PbC12(NO3)2
_symmetry_space_group_name_H-M   'P 1'
_cell_length_a   8.08357049
_cell_length_b   13.52264012
_cell_length_c   15.54377424
_cell_angle_alpha   90.00020990
_cell_angle_beta   90.00007620
_cell_angle_gamma   89.99991216
_symmetry_Int_Tables_number   1
_chemical_formula_structural   H8PbC12(NO3)2
_chemical_formula_sum   'H32 Pb4 C48 N8 O24'
_cell_volume   1699.10884351
_cell_formula_units_Z   4
loop_
 _symmetry_equiv_pos_site_id
 _symmetry_equiv_pos_as_xyz
  1  'x, y, z'
loop_
 _atom_site_type_symbol
 _atom_site_label
 _atom_site_symmetry_multiplicity
 _atom_site_fract_x
 _atom_site_fract_y
 _atom_site_fract_z
 _atom_site_occupancy
 _atom_site_pbe_bader_charge
 _atom_site_pbe_bader_spin_density
 _atom_site_pbe_cm5_charge
 _atom_site_pbe_ddec_charge
 _atom_site_pbe_ddec_spin_density
 _atom_site_pbe_ddec_sum_bond_order
 _atom_site_pbe_magmom
H  H0  1  0.02689187  0.98904185  0.24625834  1  0.139926  0  0.136022  0.130264  0  0.979366  0
H  H1  1  0.52689184  0.51095970  0.25374180  1  0.139903  0  0.136004  0.130264  0  0.979412  0
H  H2  1  0.97310558  0.48904070  0.25374320  1  0.139924  0  0.136003  0.130244  0  0.97941  0
H  H3  1  0.47310931  0.01095897  0.24625762  1  0.13993  0  0.136005  0.130248  0  0.979397  0
H  H4  1  0.97310065  0.01096058  0.75374007  1  0.139974  0  0.135992  0.130242  0  0.979403  0
H  H5  1  0.47310439  0.48903977  0.74625726  1  0.139908  0  0.136016  0.130274  0  0.979413  0
H  H6  1  0.02688570  0.51095877  0.74625907  1  0.139898  0  0.136019  0.130234  0  0.97936  0
H  H7  1  0.52689558  0.98904197  0.75374144  1  0.139973  0  0.136006  0.130254  0  0.979419  0
H  H8  1  0.09412705  0.11013753  0.36818877  1  0.104541  0  0.119122  0.132994  0  0.973891  0
H  H9  1  0.59412945  0.38986471  0.13181050  1  0.104554  0  0.11912  0.133019  0  0.973721  0
H  H10  1  0.90586889  0.61013368  0.13181224  1  0.104572  0  0.119121  0.132972  0  0.973765  0
H  H11  1  0.40587443  0.88986382  0.36818817  1  0.104566  0  0.119119  0.132972  0  0.973814  0
H  H12  1  0.90586299  0.88986416  0.63181093  1  0.104552  0  0.119153  0.133046  0  0.973864  0
H  H13  1  0.40586925  0.61013550  0.86818727  1  0.104595  0  0.119121  0.132989  0  0.973794  0
H  H14  1  0.09413105  0.38986283  0.86818939  1  0.104566  0  0.119105  0.132963  0  0.973768  0
H  H15  1  0.59412798  0.11013639  0.63181025  1  0.104536  0  0.119117  0.132976  0  0.973778  0
H  H16  1  0.22172238  0.32381796  0.17451547  1  0.124572  0  0.118171  0.132807  0  0.982532  0
H  H17  1  0.72172706  0.17618490  0.32548647  1  0.12458  0  0.118183  0.132822  0  0.982544  0
H  H18  1  0.77827178  0.82381433  0.32548685  1  0.124617  0  0.118172  0.132779  0  0.982514  0
H  H19  1  0.27827614  0.67618256  0.17451218  1  0.124537  0  0.118191  0.132805  0  0.982512  0
H  H20  1  0.77827385  0.67618595  0.82548616  1  0.124591  0  0.118195  0.132853  0  0.982516  0
H  H21  1  0.27827783  0.82381531  0.67451323  1  0.124563  0  0.118169  0.132806  0  0.982549  0
H  H22  1  0.22172939  0.17618588  0.67451092  1  0.125047  0  0.118177  0.132794  0  0.982554  0
H  H23  1  0.72172751  0.32381469  0.82548752  1  0.125045  0  0.118187  0.132822  0  0.98251  0
H  H24  1  0.15660513  0.19454269  0.06047730  1  0.22971  0  0.133222  0.13671  0  1.030052  0
H  H25  1  0.65660854  0.30546097  0.43952330  1  0.229824  0  0.133206  0.136639  0  1.030131  0
H  H26  1  0.84338689  0.69454097  0.43952397  1  0.229644  0  0.133216  0.13671  0  1.030155  0
H  H27  1  0.34339433  0.80545659  0.06047575  1  0.229659  0  0.133212  0.1367  0  1.030094  0
H  H28  1  0.84338615  0.80546195  0.93952304  1  0.229937  0  0.133199  0.136634  0  1.030155  0
H  H29  1  0.34339264  0.69453998  0.56047576  1  0.22966  0  0.133227  0.136687  0  1.03016  0
H  H30  1  0.15661181  0.30546072  0.56047380  1  0.229775  0  0.13322  0.136683  0  1.030131  0
H  H31  1  0.65661303  0.19454066  0.93952460  1  0.229791  0  0.13323  0.136736  0  1.030112  0
Pb  Pb32  1  0.75000158  0.99999978  0.05865332  1  1.430751  0  0.608525  1.075252  0  1.985757  0
Pb  Pb33  1  0.24999836  0.50000157  0.44134863  1  1.430806  0  0.608513  1.075205  0  1.985794  0
Pb  Pb34  1  0.25000212  0.00000265  0.94134611  1  1.430754  0  0.608495  1.07516  0  1.985821  0
Pb  Pb35  1  0.75000281  0.49999938  0.55865429  1  1.430791  0  0.608513  1.075205  0  1.985839  0
C  C36  1  0.07494730  0.06335423  0.23660933  1  0.382844  0  0.044124  -0.030026  0  3.853293  0
C  C37  1  0.57495116  0.43664876  0.26339122  1  0.382488  0  0.044126  -0.030102  0  3.853217  0
C  C38  1  0.92504876  0.56335241  0.26339154  1  0.382801  0  0.044171  -0.030061  0  3.853192  0
C  C39  1  0.42505137  0.93664507  0.23660888  1  0.382519  0  0.044125  -0.03003  0  3.85336  0
C  C40  1  0.92504027  0.93664894  0.76338909  1  0.382261  0  0.044067  -0.030172  0  3.853325  0
C  C41  1  0.42504878  0.56335144  0.73660912  1  0.38248  0  0.044133  -0.030106  0  3.853203  0
C  C42  1  0.07494870  0.43664705  0.73661009  1  0.382758  0  0.044123  -0.02998  0  3.853325  0
C  C43  1  0.57495228  0.06335144  0.76338954  1  0.382721  0  0.044119  -0.030114  0  3.853305  0
C  C44  1  0.10992194  0.13080198  0.30091943  1  -0.014337  0  -0.070384  -0.121063  0  3.979927  0
C  C45  1  0.60992704  0.36919876  0.19908242  1  -0.01423  0  -0.070349  -0.120958  0  3.97955  0
C  C46  1  0.89007271  0.63079992  0.19908293  1  -0.014284  0  -0.070356  -0.120894  0  3.979617  0
C  C47  1  0.39007937  0.86919834  0.30091747  1  -0.014358  0  -0.070347  -0.120926  0  3.97996  0
C  C48  1  0.89006686  0.86920045  0.69908027  1  -0.014321  0  -0.070324  -0.120999  0  3.979852  0
C  C49  1  0.39007537  0.63080070  0.80091728  1  -0.014357  0  -0.070353  -0.120944  0  3.97969  0
C  C50  1  0.10992599  0.36919955  0.80091549  1  -0.014254  0  -0.070338  -0.120986  0  3.979884  0
C  C51  1  0.60992551  0.13080113  0.69908288  1  -0.014252  0  -0.070345  -0.120935  0  3.979765  0
C  C52  1  0.16254334  0.22638014  0.27981147  1  0.03287  0  -0.005859  -0.005072  0  3.95661  0
C  C53  1  0.66254998  0.27362130  0.22018978  1  0.032735  0  -0.005945  -0.005287  0  3.956637  0
C  C54  1  0.83744859  0.72637526  0.22019119  1  0.032994  0  -0.005868  -0.005199  0  3.956617  0
C  C55  1  0.33745792  0.77362083  0.27980981  1  0.032827  0  -0.005857  -0.005153  0  3.956742  0
C  C56  1  0.83744670  0.77362229  0.72018823  1  0.032728  0  -0.005914  -0.005127  0  3.956449  0
C  C57  1  0.33745615  0.72637817  0.77980992  1  0.032813  0  -0.005909  -0.005223  0  3.956668  0
C  C58  1  0.16254887  0.27362125  0.77981044  1  0.032803  0  -0.005937  -0.005217  0  3.956558  0
C  C59  1  0.66255068  0.22637716  0.72019053  1  0.032777  0  -0.005887  -0.005173  0  3.956588  0
C  C60  1  0.18116121  0.24998554  0.19266859  1  -0.009776  0  -0.070491  -0.110805  0  3.966027  0
C  C61  1  0.68116566  0.25001662  0.30733460  1  -0.009659  0  -0.070552  -0.110888  0  3.966243  0
C  C62  1  0.81883067  0.74998179  0.30733543  1  -0.009578  0  -0.070547  -0.110811  0  3.966215  0
C  C63  1  0.31883983  0.75001431  0.19266684  1  -0.009631  0  -0.070512  -0.110783  0  3.965968  0
C  C64  1  0.81883254  0.75001541  0.80733304  1  -0.009672  0  -0.070561  -0.110903  0  3.965927  0
C  C65  1  0.31883799  0.74998507  0.69266510  1  -0.009648  0  -0.070519  -0.110825  0  3.966134  0
C  C66  1  0.18116680  0.25001472  0.69266491  1  -0.010124  0  -0.070493  -0.110755  0  3.965843  0
C  C67  1  0.68116877  0.24998368  0.80733543  1  -0.010155  0  -0.070509  -0.110766  0  3.96605  0
C  C68  1  0.14700057  0.18108763  0.12954094  1  0.351359  0  0.047437  -0.034929  0  3.817002  0
C  C69  1  0.64700376  0.31891530  0.37046094  1  0.351196  0  0.047453  -0.034814  0  3.817146  0
C  C70  1  0.85299396  0.68108708  0.37046286  1  0.351148  0  0.047435  -0.034968  0  3.817352  0
C  C71  1  0.35300278  0.81891417  0.12953815  1  0.351365  0  0.047423  -0.034968  0  3.817162  0
C  C72  1  0.85299195  0.81891479  0.87046069  1  0.351114  0  0.047475  -0.034868  0  3.817018  0
C  C73  1  0.35299617  0.68108639  0.62953812  1  0.351326  0  0.047455  -0.0349  0  3.817214  0
C  C74  1  0.14699980  0.31891682  0.62953748  1  0.351253  0  0.04744  -0.034975  0  3.817137  0
C  C75  1  0.64700706  0.18108604  0.87046220  1  0.35118  0  0.047368  -0.03512  0  3.817191  0
C  C76  1  0.19457373  0.30351831  0.34776099  1  1.595051  0  0.196526  0.54729  0  4.275375  0
C  C77  1  0.69457668  0.19648383  0.15224092  1  1.595132  0  0.196571  0.547459  0  4.275321  0
C  C78  1  0.80541801  0.80351539  0.15224319  1  1.594871  0  0.196471  0.54727  0  4.275443  0
C  C79  1  0.30542770  0.69647999  0.34775779  1  1.595033  0  0.196447  0.547167  0  4.27555  0
C  C80  1  0.80542250  0.69648337  0.65223999  1  1.595163  0  0.196542  0.547398  0  4.275222  0
C  C81  1  0.30543068  0.80351564  0.84775878  1  1.595138  0  0.196499  0.547218  0  4.275462  0
C  C82  1  0.19458069  0.19648260  0.84775780  1  1.595107  0  0.196476  0.547289  0  4.275418  0
C  C83  1  0.69458089  0.30351652  0.65224063  1  1.595122  0  0.196454  0.547212  0  4.275498  0
N  N84  1  0.09343404  0.08921659  0.15232161  1  -0.651922  0  -0.105931  0.332114  0  3.957301  0
N  N85  1  0.59343570  0.41078712  0.34767831  1  -0.651924  0  -0.105881  0.332216  0  3.957177  0
N  N86  1  0.90656196  0.58921442  0.34767998  1  -0.651873  0  -0.105926  0.332234  0  3.957126  0
N  N87  1  0.40656565  0.91078235  0.15231913  1  -0.651984  0  -0.105957  0.332084  0  3.957378  0
N  N88  1  0.90655724  0.91078731  0.84767874  1  -0.65127  0  -0.105934  0.33225  0  3.957109  0
N  N89  1  0.40656423  0.58921382  0.65232011  1  -0.651876  0  -0.105924  0.332234  0  3.957122  0
N  N90  1  0.09343551  0.41078579  0.65232036  1  -0.651956  0  -0.105953  0.332173  0  3.957333  0
N  N91  1  0.59344047  0.08921342  0.84767864  1  -0.651843  0  -0.105892  0.33232  0  3.957068  0
O  O92  1  0.05584422  0.02450870  0.09174547  1  -0.652298  0  -0.210374  -0.517108  0  2.092747  0
O  O93  1  0.55584711  0.47549209  0.40825506  1  -0.65236  0  -0.210355  -0.517131  0  2.092827  0
O  O94  1  0.94415194  0.52450823  0.40825784  1  -0.652391  0  -0.210362  -0.517127  0  2.092672  0
O  O95  1  0.44415408  0.97548998  0.09174387  1  -0.652327  0  -0.210353  -0.517074  0  2.092755  0
O  O96  1  0.94414582  0.97549594  0.90825487  1  -0.65276  0  -0.210312  -0.517117  0  2.092704  0
O  O97  1  0.44415283  0.52450664  0.59174271  1  -0.652394  0  -0.210364  -0.517143  0  2.09271  0
O  O98  1  0.05584799  0.47549346  0.59174572  1  -0.652307  0  -0.210327  -0.51709  0  2.092806  0
O  O99  1  0.55585204  0.02450801  0.90825647  1  -0.652334  0  -0.210314  -0.517094  0  2.092716  0
O  O100  1  0.22276409  0.39097009  0.31827860  1  -1.161942  0  -0.30835  -0.56084  0  2.236015  0
O  O101  1  0.72276363  0.10903350  0.18172398  1  -1.161923  0  -0.308368  -0.560916  0  2.236042  0
O  O102  1  0.77722742  0.89096584  0.18172586  1  -1.16186  0  -0.308373  -0.56088  0  2.236032  0
O  O103  1  0.27723603  0.60903030  0.31827445  1  -1.161966  0  -0.308313  -0.560794  0  2.236083  0
O  O104  1  0.77723708  0.60903085  0.68172239  1  -1.161958  0  -0.308339  -0.560881  0  2.235992  0
O  O105  1  0.27724373  0.89096744  0.81827701  1  -1.161917  0  -0.308363  -0.560806  0  2.23597  0
O  O106  1  0.22276881  0.10903214  0.81827448  1  -1.161909  0  -0.308299  -0.560813  0  2.236037  0
O  O107  1  0.72277133  0.39096769  0.68172525  1  -1.161872  0  -0.308333  -0.560813  0  2.236035  0
O  O108  1  0.19151828  0.27977830  0.42598520  1  -1.18585  0  -0.327473  -0.56991  0  2.109483  0
O  O109  1  0.69152468  0.22022237  0.07401671  1  -1.185894  0  -0.327486  -0.569966  0  2.109421  0
O  O110  1  0.80847104  0.77977725  0.07401827  1  -1.185808  0  -0.327428  -0.569881  0  2.109458  0
O  O111  1  0.30848088  0.72022108  0.42598207  1  -1.185719  0  -0.327457  -0.56986  0  2.109458  0
O  O112  1  0.80847671  0.72022191  0.57401579  1  -1.185924  0  -0.327476  -0.56996  0  2.109436  0
O  O113  1  0.30848639  0.77977636  0.92598299  1  -1.185893  0  -0.327443  -0.569864  0  2.10952  0
O  O114  1  0.19152642  0.22022369  0.92598208  1  -1.185804  0  -0.327459  -0.569908  0  2.109435  0
O  O115  1  0.69152772  0.27977617  0.57401699  1  -1.18586  0  -0.327451  -0.569891  0  2.109489  0
