# generated using pymatgen
data_GdH5C4SN2O7
_symmetry_space_group_name_H-M   'P 1'
_cell_length_a   6.50133613
_cell_length_b   11.20351319
_cell_length_c   12.20996142
_cell_angle_alpha   108.38198499
_cell_angle_beta   90.00003209
_cell_angle_gamma   89.99993579
_symmetry_Int_Tables_number   1
_chemical_formula_structural   GdH5C4SN2O7
_chemical_formula_sum   'Gd4 H20 C16 S4 N8 O28'
_cell_volume   843.96805791
_cell_formula_units_Z   4
loop_
 _symmetry_equiv_pos_site_id
 _symmetry_equiv_pos_as_xyz
  1  'x, y, z'
loop_
 _atom_site_type_symbol
 _atom_site_label
 _atom_site_symmetry_multiplicity
 _atom_site_fract_x
 _atom_site_fract_y
 _atom_site_fract_z
 _atom_site_occupancy
 _atom_site_hle17_bader_spin_density
 _atom_site_hle17_ddec_charge
 _atom_site_hle17_ddec_spin_density
 _atom_site_hle17_ddec_sum_bond_order
 _atom_site_hle17_magmom
 _atom_site_hse06_10hf_bader_spin_density
 _atom_site_hse06_10hf_ddec_charge
 _atom_site_hse06_10hf_ddec_spin_density
 _atom_site_hse06_10hf_ddec_sum_bond_order
 _atom_site_hse06_10hf_magmom
 _atom_site_hse06_bader_spin_density
 _atom_site_hse06_ddec_charge
 _atom_site_hse06_ddec_spin_density
 _atom_site_hse06_ddec_sum_bond_order
 _atom_site_hse06_magmom
 _atom_site_pbe_bader_spin_density
 _atom_site_pbe_cm5_charge
 _atom_site_pbe_ddec_charge
 _atom_site_pbe_ddec_spin_density
 _atom_site_pbe_ddec_sum_bond_order
 _atom_site_pbe_magmom
Gd  Gd0  1  0.86373877  0.83964231  0.39286776  1  0  2.195664  0  1.807976  0  0  2.101775  0  2.171222  0  0  2.153531  0  2.115439  0  0  1.51834  2.060803  0  2.21695  0
Gd  Gd1  1  0.36373744  0.16035755  0.10713171  1  0  2.195701  0  1.80792  0  0  2.101792  0  2.171199  0  0  2.153558  0  2.115403  0  0  1.518344  2.060816  0  2.216939  0
Gd  Gd2  1  0.13626139  0.16035714  0.60713250  1  0  2.195669  0  1.807965  0  0  2.101789  0  2.17121  0  0  2.15356  0  2.115406  0  0  1.518352  2.060819  0  2.216944  0
Gd  Gd3  1  0.63626118  0.83964285  0.89286800  1  0  2.195684  0  1.807962  0  0  2.101787  0  2.171231  0  0  2.153557  0  2.115428  0  0  1.518357  2.060825  0  2.216953  0
H  H4  1  0.72069173  0.43678959  0.55965124  1  0  0.122436  0  0.963833  0  0  0.131737  0  1.025319  0  0  0.134606  0  1.023129  0  0  0.128595  0.129415  0  1.027317  0
H  H5  1  0.22068689  0.56321129  0.94035037  1  0  0.122405  0  0.963851  0  0  0.131708  0  1.02534  0  0  0.134577  0  1.023151  0  0  0.128595  0.129375  0  1.027357  0
H  H6  1  0.27931150  0.56320987  0.44035066  1  0  0.122437  0  0.963829  0  0  0.131728  0  1.025327  0  0  0.134596  0  1.023138  0  0  0.128601  0.129396  0  1.027338  0
H  H7  1  0.77931018  0.43678910  0.05964852  1  0  0.122421  0  0.963798  0  0  0.131717  0  1.025302  0  0  0.134586  0  1.023113  0  0  0.1286  0.129396  0  1.027301  0
H  H8  1  0.77854885  0.48301212  0.23164770  1  0  0.094683  0  0.95762  0  0  0.102218  0  1.023135  0  0  0.105192  0  1.019327  0  0  0.137899  0.100027  0  1.025898  0
H  H9  1  0.27855007  0.51698779  0.26835258  1  0  0.094684  0  0.957608  0  0  0.102217  0  1.023124  0  0  0.105191  0  1.019315  0  0  0.137891  0.100028  0  1.025883  0
H  H10  1  0.22145438  0.51698452  0.76835258  1  0  0.09474  0  0.957547  0  0  0.102245  0  1.023085  0  0  0.10522  0  1.019276  0  0  0.13788  0.100057  0  1.025846  0
H  H11  1  0.72145008  0.48301542  0.73164712  1  0  0.094739  0  0.957547  0  0  0.102243  0  1.023092  0  0  0.105218  0  1.019282  0  0  0.137891  0.100054  0  1.025853  0
H  H12  1  0.72414793  0.32935581  0.34704740  1  0  0.329346  0  0.85312  0  0  0.311572  0  0.907745  0  0  0.319276  0  0.902058  0  0  0.339975  0.306097  0  0.911933  0
H  H13  1  0.22414874  0.67064508  0.15295396  1  0  0.329326  0  0.853099  0  0  0.31155  0  0.907728  0  0  0.319253  0  0.902042  0  0  0.339976  0.306077  0  0.911915  0
H  H14  1  0.27585222  0.67064271  0.65295423  1  0  0.329323  0  0.85311  0  0  0.311564  0  0.907733  0  0  0.319266  0  0.902048  0  0  0.339977  0.306091  0  0.911923  0
H  H15  1  0.77584988  0.32935718  0.84704465  1  0  0.329338  0  0.85309  0  0  0.31155  0  0.907742  0  0  0.319253  0  0.902056  0  0  0.339967  0.306078  0  0.911931  0
H  H16  1  0.04467619  0.91359206  0.19636044  1  0  0.452678  0  0.834954  0  0  0.422307  0  0.896528  0  0  0.432751  0  0.881262  0  0  0.310897  0.414902  0  0.907345  0
H  H17  1  0.54467427  0.08640707  0.30364036  1  0  0.452662  0  0.834984  0  0  0.422274  0  0.896574  0  0  0.432719  0  0.881306  0  0  0.310904  0.41487  0  0.907388  0
H  H18  1  0.95532243  0.08640834  0.80364009  1  0  0.452666  0  0.834971  0  0  0.422296  0  0.896543  0  0  0.432741  0  0.881275  0  0  0.310901  0.414892  0  0.90736  0
H  H19  1  0.45532281  0.91359239  0.69636072  1  0  0.45267  0  0.834963  0  0  0.422299  0  0.896536  0  0  0.432743  0  0.881269  0  0  0.310905  0.414896  0  0.907352  0
H  H20  1  0.07126241  0.03371566  0.31206578  1  0  0.454528  0  0.834133  0  0  0.423636  0  0.896714  0  0  0.435145  0  0.879777  0  0  0.310318  0.415428  0  0.908782  0
H  H21  1  0.57126173  0.96628438  0.18793447  1  0  0.454535  0  0.834124  0  0  0.423644  0  0.896702  0  0  0.435153  0  0.879766  0  0  0.31032  0.415436  0  0.908771  0
H  H22  1  0.92873621  0.96628567  0.68793502  1  0  0.454523  0  0.834146  0  0  0.423631  0  0.896728  0  0  0.435139  0  0.879792  0  0  0.310312  0.415425  0  0.908795  0
H  H23  1  0.42873534  0.03371508  0.81206579  1  0  0.454514  0  0.834154  0  0  0.423621  0  0.896738  0  0  0.43513  0  0.879801  0  0  0.310304  0.415414  0  0.908806  0
C  C24  1  0.73892790  0.48705809  0.49786532  1  0  0.038588  0  3.610895  0  0  -0.017055  0  3.880031  0  0  -0.010234  0  3.896216  0  0  0.0281  -0.02143  0  3.869556  0
C  C25  1  0.23892424  0.51294185  0.00213577  1  0  0.0387  0  3.610876  0  0  -0.017019  0  3.879998  0  0  -0.010199  0  3.896184  0  0  0.028064  -0.021386  0  3.869534  0
C  C26  1  0.26107379  0.51293949  0.50213522  1  0  0.038554  0  3.610723  0  0  -0.017072  0  3.879858  0  0  -0.010254  0  3.896045  0  0  0.028056  -0.021439  0  3.869388  0
C  C27  1  0.76107284  0.48705948  0.99786421  1  0  0.038625  0  3.610649  0  0  -0.017031  0  3.879792  0  0  -0.010213  0  3.895977  0  0  0.028072  -0.021404  0  3.869318  0
C  C28  1  0.77217326  0.50876968  0.32451622  1  0  0.262138  0  3.641831  0  0  0.201768  0  3.923643  0  0  0.215673  0  3.934293  0  0  0.159492  0.192737  0  3.916059  0
C  C29  1  0.27217136  0.49123212  0.17548459  1  0  0.262235  0  3.641727  0  0  0.201861  0  3.923552  0  0  0.215766  0  3.9342  0  0  0.159553  0.192832  0  3.915968  0
C  C30  1  0.22783151  0.49123072  0.67548513  1  0  0.262059  0  3.641792  0  0  0.201734  0  3.923617  0  0  0.215638  0  3.934265  0  0  0.159522  0.192702  0  3.916039  0
C  C31  1  0.72782879  0.50876921  0.82451539  1  0  0.262082  0  3.641748  0  0  0.201745  0  3.923561  0  0  0.215649  0  3.934208  0  0  0.15951  0.192714  0  3.915984  0
C  C32  1  0.76748653  0.61219821  0.50792876  1  0  -0.023676  0  3.816887  0  0  -0.018616  0  4.078707  0  0  -0.025475  0  4.100212  0  0  0.064988  -0.014264  0  4.064279  0
C  C33  1  0.26748209  0.38780264  0.99207203  1  0  -0.023772  0  3.817023  0  0  -0.01856  0  4.07863  0  0  -0.025407  0  4.100144  0  0  0.065048  -0.014207  0  4.064201  0
C  C34  1  0.23251824  0.38780124  0.49207150  1  0  -0.02365  0  3.816827  0  0  -0.018566  0  4.078607  0  0  -0.025426  0  4.100107  0  0  0.06503  -0.014211  0  4.064172  0
C  C35  1  0.73251653  0.61219870  0.00792877  1  0  -0.023704  0  3.816738  0  0  -0.018614  0  4.078524  0  0  -0.025475  0  4.100025  0  0  0.065016  -0.014262  0  4.064099  0
C  C36  1  0.77925020  0.72659469  0.60816324  1  0  0.713596  0  3.885068  0  0  0.662122  0  4.184063  0  0  0.699096  0  4.171555  0  0  0.233809  0.636969  0  4.191768  0
C  C37  1  0.27924896  0.27340615  0.89183755  1  0  0.713455  0  3.885198  0  0  0.661987  0  4.184123  0  0  0.698926  0  4.171666  0  0  0.233753  0.636833  0  4.191827  0
C  C38  1  0.22074995  0.27340477  0.39183702  1  0  0.713574  0  3.885065  0  0  0.6621  0  4.184058  0  0  0.699086  0  4.171533  0  0  0.233795  0.636944  0  4.191754  0
C  C39  1  0.72075120  0.72659518  0.10816325  1  0  0.713717  0  3.884916  0  0  0.66225  0  4.18388  0  0  0.699234  0  4.171356  0  0  0.233864  0.637095  0  4.191584  0
S  S40  1  0.32235932  0.83578112  0.46083078  1  0  1.650044  0  5.781305  0  0  1.528524  0  6.32843  0  0  1.585549  0  6.290113  0  0  0.588718  1.488916  0  6.353315  0
S  S41  1  0.82235851  0.16421877  0.03916951  1  0  1.649906  0  5.781372  0  0  1.528382  0  6.328494  0  0  1.585404  0  6.290183  0  0  0.588642  1.488774  0  6.353383  0
S  S42  1  0.67763929  0.16421834  0.53917031  1  0  1.649928  0  5.781394  0  0  1.528408  0  6.328521  0  0  1.585435  0  6.290202  0  0  0.58867  1.4888  0  6.353404  0
S  S43  1  0.17764010  0.83578069  0.96083075  1  0  1.650033  0  5.781319  0  0  1.528517  0  6.328432  0  0  1.585537  0  6.29012  0  0  0.588714  1.488909  0  6.353325  0
N  N44  1  0.74367154  0.42407506  0.38204275  1  0  -0.269781  0  3.42767  0  0  -0.203886  0  3.672538  0  0  -0.220329  0  3.68682  0  0  -0.366295  -0.192936  0  3.662842  0
N  N45  1  0.24366942  0.57592582  0.11795861  1  0  -0.269781  0  3.42752  0  0  -0.203866  0  3.672388  0  0  -0.22031  0  3.68668  0  0  -0.366287  -0.192917  0  3.662691  0
N  N46  1  0.25633323  0.57592346  0.61795888  1  0  -0.269667  0  3.427533  0  0  -0.203828  0  3.672433  0  0  -0.22027  0  3.686722  0  0  -0.36628  -0.19288  0  3.662738  0
N  N47  1  0.75633074  0.42407551  0.88204054  1  0  -0.269723  0  3.427524  0  0  -0.20382  0  3.672399  0  0  -0.220262  0  3.686686  0  0  -0.366274  -0.192871  0  3.662707  0
N  N48  1  0.78830218  0.62375224  0.39873959  1  0  -0.50168  0  3.25683  0  0  -0.462388  0  3.539145  0  0  -0.478768  0  3.557671  0  0  -0.426222  -0.450698  0  3.526435  0
N  N49  1  0.28829889  0.37624861  0.10126096  1  0  -0.501745  0  3.256894  0  0  -0.462503  0  3.539183  0  0  -0.478885  0  3.557706  0  0  -0.42628  -0.450812  0  3.526473  0
N  N50  1  0.21170413  0.37624628  0.60126122  1  0  -0.501748  0  3.256855  0  0  -0.462462  0  3.539148  0  0  -0.478842  0  3.557671  0  0  -0.426259  -0.450772  0  3.526439  0
N  N51  1  0.71170280  0.62375366  0.89873847  1  0  -0.501775  0  3.256817  0  0  -0.462493  0  3.539119  0  0  -0.478874  0  3.557642  0  0  -0.426277  -0.450804  0  3.526415  0
O  O52  1  0.72589200  0.72137400  0.70651162  1  0  -0.710882  0  2.030488  0  0  -0.668548  0  2.288789  0  0  -0.694893  0  2.277642  0  0  -0.401681  -0.649679  0  2.296162  0
O  O53  1  0.22588910  0.27862687  0.79348835  1  0  -0.7108  0  2.030435  0  0  -0.668487  0  2.288729  0  0  -0.694819  0  2.277598  0  0  -0.401677  -0.649615  0  2.2961  0
O  O54  1  0.27410969  0.27862640  0.29348809  1  0  -0.71086  0  2.030424  0  0  -0.668526  0  2.288723  0  0  -0.694873  0  2.277571  0  0  -0.401681  -0.649652  0  2.296092  0
O  O55  1  0.77410952  0.72137352  0.20651136  1  0  -0.710908  0  2.030483  0  0  -0.668583  0  2.28878  0  0  -0.694929  0  2.277631  0  0  -0.40168  -0.649708  0  2.296149  0
O  O56  1  0.84414137  0.82561074  0.58742673  1  0  -0.708896  0  2.037841  0  0  -0.657385  0  2.278292  0  0  -0.683709  0  2.265831  0  0  -0.356145  -0.638648  0  2.28655  0
O  O57  1  0.34414034  0.17438913  0.91257380  1  0  -0.708844  0  2.037958  0  0  -0.657353  0  2.278401  0  0  -0.683668  0  2.265956  0  0  -0.35611  -0.638615  0  2.286657  0
O  O58  1  0.15585878  0.17438872  0.41257353  1  0  -0.708879  0  2.037897  0  0  -0.657371  0  2.278343  0  0  -0.683703  0  2.265877  0  0  -0.356113  -0.638634  0  2.286596  0
O  O59  1  0.65585827  0.82561127  0.08742673  1  0  -0.708958  0  2.037841  0  0  -0.657447  0  2.278286  0  0  -0.683777  0  2.265818  0  0  -0.356171  -0.638711  0  2.286543  0
O  O60  1  0.50845640  0.86316293  0.40352617  1  0  -0.781324  0  2.020546  0  0  -0.735385  0  2.292186  0  0  -0.757678  0  2.272636  0  0  -0.421241  -0.718986  0  2.305442  0
O  O61  1  0.00845510  0.13683715  0.09647407  1  0  -0.781303  0  2.020558  0  0  -0.73534  0  2.292186  0  0  -0.757632  0  2.272635  0  0  -0.42122  -0.718938  0  2.305443  0
O  O62  1  0.49154222  0.13683653  0.59647491  1  0  -0.781323  0  2.02049  0  0  -0.735372  0  2.29211  0  0  -0.757661  0  2.272553  0  0  -0.421254  -0.718973  0  2.305367  0
O  O63  1  0.99154351  0.86316325  0.90352646  1  0  -0.781311  0  2.020561  0  0  -0.735358  0  2.29218  0  0  -0.757651  0  2.272631  0  0  -0.421233  -0.718958  0  2.30544  0
O  O64  1  0.37303053  0.80163723  0.56413480  1  0  -0.708621  0  1.963788  0  0  -0.649734  0  2.204621  0  0  -0.671863  0  2.189019  0  0  -0.316555  -0.634345  0  2.215186  0
O  O65  1  0.87303007  0.19836356  0.93586600  1  0  -0.708597  0  1.963797  0  0  -0.649706  0  2.204634  0  0  -0.671838  0  2.189037  0  0  -0.316561  -0.634318  0  2.215202  0
O  O66  1  0.62696808  0.19836223  0.43586628  1  0  -0.708574  0  1.963807  0  0  -0.649668  0  2.204628  0  0  -0.671809  0  2.189039  0  0  -0.316544  -0.634279  0  2.215192  0
O  O67  1  0.12696854  0.80163684  0.06413453  1  0  -0.708609  0  1.963801  0  0  -0.649722  0  2.204634  0  0  -0.671851  0  2.189036  0  0  -0.316552  -0.634331  0  2.215199  0
O  O68  1  0.19636989  0.73599485  0.37676108  1  0  -0.800892  0  1.94414  0  0  -0.758341  0  2.21113  0  0  -0.780215  0  2.193611  0  0  -0.407338  -0.742168  0  2.222673  0
O  O69  1  0.69636897  0.26400606  0.12324027  1  0  -0.800819  0  1.944192  0  0  -0.758293  0  2.211227  0  0  -0.780165  0  2.193701  0  0  -0.407285  -0.742119  0  2.22277  0
O  O70  1  0.80363026  0.26400555  0.62323945  1  0  -0.800838  0  1.944165  0  0  -0.758315  0  2.211188  0  0  -0.780205  0  2.193701  0  0  -0.407308  -0.742144  0  2.222734  0
O  O71  1  0.30362964  0.73599433  0.87676026  1  0  -0.80089  0  1.944138  0  0  -0.758356  0  2.211157  0  0  -0.780235  0  2.193647  0  0  -0.407326  -0.742183  0  2.222703  0
O  O72  1  0.18106981  0.94880870  0.49230761  1  0  -0.889507  0  2.142773  0  0  -0.837657  0  2.424036  0  0  -0.861983  0  2.406147  0  0  -0.476433  -0.819441  0  2.435798  0
O  O73  1  0.68106919  0.05119127  0.00769266  1  0  -0.889481  0  2.142695  0  0  -0.837632  0  2.42397  0  0  -0.861958  0  2.406083  0  0  -0.476422  -0.819415  0  2.435734  0
O  O74  1  0.81892880  0.05119169  0.50769292  1  0  -0.889486  0  2.142785  0  0  -0.837632  0  2.424044  0  0  -0.861955  0  2.406155  0  0  -0.476417  -0.819414  0  2.435804  0
O  O75  1  0.31892943  0.94880912  0.99230787  1  0  -0.889523  0  2.142747  0  0  -0.837666  0  2.424008  0  0  -0.861992  0  2.406123  0  0  -0.476432  -0.819449  0  2.435773  0
O  O76  1  0.99400105  0.95430272  0.27574725  1  0  -0.918457  0  1.858131  0  0  -0.876682  0  2.050656  0  0  -0.895686  0  2.016027  0  0  -0.649242  -0.862724  0  2.075156  0
O  O77  1  0.49400007  0.04569706  0.22425306  1  0  -0.918452  0  1.858138  0  0  -0.876655  0  2.050709  0  0  -0.89566  0  2.016076  0  0  -0.649253  -0.862705  0  2.075227  0
O  O78  1  0.00599757  0.04569768  0.72425328  1  0  -0.918432  0  1.858164  0  0  -0.876653  0  2.050692  0  0  -0.895659  0  2.016061  0  0  -0.649231  -0.862698  0  2.075195  0
O  O79  1  0.50599701  0.95430239  0.77574721  1  0  -0.918435  0  1.858149  0  0  -0.876655  0  2.050672  0  0  -0.895661  0  2.016042  0  0  -0.649237  -0.862697  0  2.075169  0
