# generated using pymatgen
data_Zn4H5C24S4N2ClO17
_symmetry_space_group_name_H-M   'P 1'
_cell_length_a   19.61440145
_cell_length_b   19.60436053
_cell_length_c   33.31091064
_cell_angle_alpha   79.15303831
_cell_angle_beta   79.15844966
_cell_angle_gamma   63.96241245
_symmetry_Int_Tables_number   1
_chemical_formula_structural   Zn4H5C24S4N2ClO17
_chemical_formula_sum   'Zn16 H20 C96 S16 N8 Cl4 O68'
_cell_volume   11222.26466053
_cell_formula_units_Z   4
loop_
 _symmetry_equiv_pos_site_id
 _symmetry_equiv_pos_as_xyz
  1  'x, y, z'
loop_
 _atom_site_type_symbol
 _atom_site_label
 _atom_site_symmetry_multiplicity
 _atom_site_fract_x
 _atom_site_fract_y
 _atom_site_fract_z
 _atom_site_occupancy
 _atom_site_pbe_bader_charge
 _atom_site_pbe_bader_spin_density
 _atom_site_pbe_cm5_charge
 _atom_site_pbe_ddec_charge
 _atom_site_pbe_ddec_spin_density
 _atom_site_pbe_ddec_sum_bond_order
 _atom_site_pbe_magmom
Zn  Zn0  1  0.05411092  0.40081878  0.47703070  1  1.315494  0  0.671246  0.971867  0  2.328859  0
Zn  Zn1  1  0.98873115  0.48303253  0.56033290  1  1.322976  0  0.689973  0.992036  0  2.322739  0
Zn  Zn2  1  0.05842629  0.56179319  0.48106010  1  1.327243  0  0.683223  0.987056  0  2.339504  0
Zn  Zn3  1  0.89965688  0.55360473  0.48046578  1  1.326062  0  0.682448  0.98489  0  2.345486  0
Zn  Zn4  1  0.69318925  0.34936235  0.27131196  1  1.317595  0  0.673501  0.968717  0  2.355679  0
Zn  Zn5  1  0.68918022  0.18919083  0.26500322  1  1.3056  0  0.673215  0.967379  0  2.366223  0
Zn  Zn6  1  0.77201312  0.26506859  0.19019887  1  1.325498  0  0.683202  0.986077  0  2.333313  0
Zn  Zn7  1  0.84701234  0.19552811  0.27429217  1  1.321973  0  0.680572  0.973476  0  2.357465  0
Zn  Zn8  1  0.26970134  0.76555750  0.68893037  1  1.307417  0  0.672135  0.959729  0  2.380269  0
Zn  Zn9  1  0.34978880  0.69604771  0.77164161  1  1.32453  0  0.681655  0.980111  0  2.338954  0
Zn  Zn10  1  0.19410952  0.84816386  0.77019120  1  1.318642  0  0.67431  0.973259  0  2.360135  0
Zn  Zn11  1  0.19195921  0.68638963  0.76478714  1  1.317943  0  0.681902  0.981983  0  2.324912  0
Zn  Zn12  1  0.56172937  0.05929168  0.98179035  1  1.316553  0  0.673601  0.964496  0  2.369505  0
Zn  Zn13  1  0.40110903  0.05473397  0.97839152  1  1.315924  0  0.67284  0.96236  0  2.367993  0
Zn  Zn14  1  0.55559584  0.90017298  0.97740037  1  1.317703  0  0.674625  0.968685  0  2.364587  0
Zn  Zn15  1  0.48567513  0.98287232  0.05997131  1  1.321888  0  0.672732  0.965477  0  2.365969  0
H  H16  1  0.94331476  0.24726201  0.35742645  1  0.094411  0  0.113053  0.12132  0  0.987061  0
H  H17  1  0.75061350  0.46529038  0.34351559  1  0.098815  0  0.112938  0.132541  0  0.989246  0
H  H18  1  0.99021544  0.29808003  0.40496727  1  0.099057  0  0.113066  0.119754  0  0.985508  0
H  H19  1  0.10532948  0.58937797  0.69693590  1  0.091597  0  0.115208  0.124534  0  0.981907  0
H  H20  1  0.20282529  0.70454998  0.59644371  1  0.121062  0  0.110651  0.129681  0  0.994735  0
H  H21  1  0.05551800  0.54820132  0.64627723  1  0.142047  0  0.117423  0.127781  0  0.979913  0
H  H22  1  0.46239449  0.23658768  0.34198215  1  0.111177  0  0.124178  0.150207  0  0.966607  0
H  H23  1  0.48488203  0.70144826  0.60187229  1  0.123863  0  0.123148  0.149225  0  0.967723  0
H  H24  1  0.20447043  0.97903685  0.59997319  1  0.127043  0  0.123581  0.149835  0  0.967359  0
H  H25  1  0.95141143  0.96388902  0.34392126  1  0.145092  0  0.126532  0.154838  0  0.961739  0
H  H26  1  0.55111089  0.05372948  0.15147106  1  0.092148  0  0.111759  0.11955  0  0.989556  0
H  H27  1  0.64963576  0.15829241  0.04600501  1  0.128564  0  0.112608  0.132622  0  0.990789  0
H  H28  1  0.59934513  0.10601826  0.19742416  1  0.140835  0  0.112489  0.1207  0  0.990503  0
H  H29  1  0.54569417  0.76863307  0.14849731  1  0.111243  0  0.124246  0.150557  0  0.965189  0
H  H30  1  0.16231226  0.14145031  0.04257073  1  0.136836  0  0.124909  0.150983  0  0.965101  0
H  H31  1  0.49975041  0.79310548  0.89857716  1  0.121465  0  0.114533  0.122482  0  0.983685  0
H  H32  1  0.29350945  0.00079891  0.90234686  1  0.12345  0  0.111123  0.130778  0  0.993523  0
H  H33  1  0.44728801  0.74956864  0.85033628  1  0.093146  0  0.117385  0.127532  0  0.980184  0
H  H34  1  0.29807785  0.28228731  0.90304951  1  0.139574  0  0.124077  0.15022  0  0.96579  0
H  H35  1  0.78745719  0.00911868  0.90628353  1  0.117544  0  0.125114  0.151566  0  0.964542  0
C  C36  1  0.06419219  0.31721569  0.55952777  1  1.616603  0  0.2226  0.621587  0  4.205175  0
C  C37  1  0.07244602  0.57091900  0.56567629  1  1.562649  0  0.230395  0.617562  0  4.149213  0
C  C38  1  0.17988746  0.44002491  0.43697712  1  1.615707  0  0.221955  0.618716  0  4.208836  0
C  C39  1  0.93516798  0.68146057  0.43862928  1  1.6242  0  0.222271  0.617278  0  4.207569  0
C  C40  1  0.92736355  0.43197579  0.43223375  1  1.581898  0  0.229431  0.620439  0  4.150112  0
C  C41  1  0.82271757  0.55945671  0.56366661  1  1.622915  0  0.223863  0.617352  0  4.207401  0
C  C42  1  0.56599524  0.30790196  0.31155738  1  1.577374  0  0.22066  0.61485  0  4.210603  0
C  C43  1  0.67768990  0.18905796  0.17865927  1  1.569233  0  0.228738  0.61737  0  4.149698  0
C  C44  1  0.69540198  0.43090016  0.18875901  1  1.619612  0  0.221936  0.617942  0  4.208329  0
C  C45  1  0.93574063  0.18294400  0.19222241  1  1.634868  0  0.222441  0.617329  0  4.211322  0
C  C46  1  0.81464676  0.32331582  0.32004401  1  1.568715  0  0.232361  0.609404  0  4.155202  0
C  C47  1  0.81217400  0.06397058  0.30944816  1  1.587498  0  0.22064  0.612248  0  4.215099  0
C  C48  1  0.43662668  0.69184820  0.68878702  1  1.555818  0  0.220168  0.612877  0  4.214166  0
C  C49  1  0.31735717  0.81985989  0.81862357  1  1.5807  0  0.228473  0.61506  0  4.155557  0
C  C50  1  0.18574489  0.93291575  0.68692715  1  1.587588  0  0.220273  0.612019  0  4.212114  0
C  C51  1  0.06870249  0.80867461  0.80928586  1  1.603713  0  0.221569  0.616895  0  4.211989  0
C  C52  1  0.18752559  0.67518940  0.67893835  1  1.554486  0  0.232146  0.608684  0  4.151764  0
C  C53  1  0.31010572  0.56861556  0.81128862  1  1.621097  0  0.222566  0.616657  0  4.213126  0
C  C54  1  0.43715559  0.18408660  0.93833165  1  1.596716  0  0.219555  0.611741  0  4.215612  0
C  C55  1  0.42962798  0.92826152  0.93154022  1  1.562092  0  0.232413  0.608949  0  4.155456  0
C  C56  1  0.68488161  0.93759282  0.93700748  1  1.576871  0  0.220192  0.613088  0  4.212243  0
C  C57  1  0.56273514  0.81550149  0.06146124  1  1.588677  0  0.220883  0.612371  0  4.214281  0
C  C58  1  0.57060567  0.07131063  0.06770927  1  1.564262  0  0.231485  0.606924  0  4.157803  0
C  C59  1  0.31709546  0.06184072  0.06193233  1  1.584824  0  0.220838  0.612997  0  4.212195  0
C  C60  1  0.89649376  0.40874553  0.40192598  1  -0.039374  0  -0.013016  -0.08748  0  3.916109  0
C  C61  1  0.84353489  0.35309429  0.34814942  1  -0.072803  0  -0.01103  -0.013391  0  3.974321  0
C  C62  1  0.82872518  0.45652302  0.38395991  1  0.085926  0  0.025941  0.140994  0  4.00832  0
C  C63  1  0.91161597  0.30555839  0.36514609  1  -0.013785  0  -0.080275  -0.097405  0  3.970441  0
C  C64  1  0.80283403  0.42839708  0.35730714  1  0.088935  0  -0.083019  -0.159479  0  3.941259  0
C  C65  1  0.93736652  0.33377769  0.39144644  1  0.031661  0  -0.076211  -0.076259  0  3.969616  0
C  C66  1  0.10253130  0.60091484  0.59308166  1  0.030268  0  -0.013497  -0.09156  0  3.912574  0
C  C67  1  0.15771210  0.64892286  0.64954862  1  -0.072952  0  -0.010026  -0.010418  0  3.970978  0
C  C68  1  0.14423032  0.64588794  0.57903699  1  0.0772  0  0.026425  0.142814  0  4.007264  0
C  C69  1  0.11597624  0.60484014  0.66396518  1  0.001706  0  -0.079651  -0.100153  0  3.964795  0
C  C70  1  0.17109899  0.66960274  0.60732138  1  0.025883  0  -0.085648  -0.163307  0  3.948156  0
C  C71  1  0.08866037  0.58193431  0.63583969  1  -0.014857  0  -0.070699  -0.067937  0  3.949905  0
C  C72  1  0.30580334  0.45295669  0.40208514  1  0.347035  0  0.079091  0.029473  0  3.934265  0
C  C73  1  0.44598405  0.29369626  0.34965482  1  0.013964  0  -0.086924  -0.131487  0  3.960399  0
C  C74  1  0.25823955  0.41504398  0.41493447  1  -0.109362  0  -0.005875  -0.146337  0  3.901594  0
C  C75  1  0.49123255  0.33336377  0.33697224  1  -0.159068  0  -0.021517  -0.120117  0  3.973109  0
C  C76  1  0.37789069  0.33805015  0.37314793  1  -0.117818  0  -0.018606  -0.004634  0  4.069695  0
C  C77  1  0.37335148  0.41008081  0.37761701  1  -0.206699  0  -0.016638  -0.067603  0  4.083261  0
C  C78  1  0.73073750  0.57984602  0.63291296  1  0.276544  0  0.079981  0.030417  0  3.932632  0
C  C79  1  0.52895997  0.67364051  0.62244052  1  0.087224  0  -0.087634  -0.132454  0  3.962553  0
C  C80  1  0.74889619  0.58725050  0.59026634  1  -0.095616  0  -0.006024  -0.149392  0  3.90607  0
C  C81  1  0.51275504  0.66553679  0.66484965  1  -0.224238  0  -0.022105  -0.121169  0  3.973774  0
C  C82  1  0.60876380  0.64141150  0.61094088  1  -0.137213  0  -0.018612  -0.005981  0  4.070907  0
C  C83  1  0.65097104  0.60943969  0.64492722  1  -0.102709  0  -0.01555  -0.068319  0  4.079711  0
C  C84  1  0.07049616  0.22598901  0.62834130  1  0.288175  0  0.078711  0.029988  0  3.937464  0
C  C85  1  0.17349144  0.02368382  0.62003909  1  0.085363  0  -0.087686  -0.133269  0  3.962432  0
C  C86  1  0.08253710  0.24308719  0.58580503  1  -0.116922  0  -0.007008  -0.14993  0  3.909897  0
C  C87  1  0.16073609  0.00856605  0.66235284  1  -0.215902  0  -0.020384  -0.116299  0  3.968598  0
C  C88  1  0.14086878  0.10331724  0.60787249  1  -0.171954  0  -0.019091  -0.004617  0  4.069637  0
C  C89  1  0.10460856  0.14654598  0.64125759  1  -0.112507  0  -0.015755  -0.067745  0  4.078514  0
C  C90  1  0.83715999  0.80249220  0.39851602  1  0.292097  0  0.078125  0.028233  0  3.937359  0
C  C91  1  0.90524804  0.94549533  0.34940625  1  0.073688  0  -0.083929  -0.128626  0  3.951742  0
C  C92  1  0.90625083  0.75810092  0.41461557  1  -0.108962  0  -0.00505  -0.147005  0  3.902048  0
C  C93  1  0.83591696  0.98848292  0.33413337  1  -0.200793  0  -0.02161  -0.118383  0  3.972514  0
C  C94  1  0.90577765  0.87690927  0.37231083  1  -0.173338  0  -0.017637  -0.005269  0  4.067382  0
C  C95  1  0.83693669  0.86961558  0.37374195  1  -0.109947  0  -0.016729  -0.067561  0  4.082562  0
C  C96  1  0.65083162  0.16185275  0.14816020  1  -0.009106  0  -0.013889  -0.092271  0  3.906008  0
C  C97  1  0.59776765  0.10278534  0.09588247  1  -0.072211  0  -0.009791  -0.00844  0  3.968823  0
C  C98  1  0.66472354  0.17683017  0.10485313  1  0.052142  0  0.027081  0.142341  0  4.002489  0
C  C99  1  0.58296820  0.08805016  0.13872160  1  0.028555  0  -0.082334  -0.1018  0  3.974589  0
C  C100  1  0.63833984  0.14699681  0.07927495  1  0.049305  0  -0.084042  -0.162232  0  3.942041  0
C  C101  1  0.60957533  0.11722661  0.16407209  1  -0.03831  0  -0.077211  -0.075024  0  3.96779  0
C  C102  1  0.67690795  0.52197320  0.11910308  1  0.32  0  0.078841  0.029766  0  3.933524  0
C  C103  1  0.57653028  0.72420326  0.12828813  1  0.06215  0  -0.086103  -0.130712  0  3.956725  0
C  C104  1  0.66696941  0.50434693  0.16174065  1  -0.091417  0  -0.005995  -0.14891  0  3.901058  0
C  C105  1  0.58815814  0.73971179  0.08594258  1  -0.148109  0  -0.020803  -0.118124  0  3.96869  0
C  C106  1  0.60995787  0.64448469  0.14024731  1  -0.199272  0  -0.018376  -0.005527  0  4.068132  0
C  C107  1  0.64593777  0.60170702  0.10667438  1  -0.108768  0  -0.016249  -0.068292  0  4.080075  0
C  C108  1  0.08531701  0.11398045  0.18047116  1  0.340911  0  0.078368  0.028459  0  3.93804  0
C  C109  1  0.17114603  0.12364340  0.07482947  1  0.014446  0  -0.084689  -0.128081  0  3.955301  0
C  C110  1  0.01229187  0.15308548  0.16821213  1  -0.146148  0  -0.006364  -0.150298  0  3.90482  0
C  C111  1  0.24284753  0.08525469  0.08791507  1  -0.151955  0  -0.021407  -0.117928  0  3.967232  0
C  C112  1  0.11386310  0.13511761  0.10889016  1  -0.177718  0  -0.018536  -0.007157  0  4.06656  0
C  C113  1  0.14354081  0.10494518  0.14694285  1  -0.182368  0  -0.016238  -0.067443  0  4.078778  0
C  C114  1  0.34206383  0.85026829  0.84857484  1  0.090685  0  -0.012471  -0.089001  0  3.905937  0
C  C115  1  0.39982271  0.90009467  0.90304640  1  -0.043104  0  -0.01028  -0.011746  0  3.972075  0
C  C116  1  0.29820058  0.92156236  0.86388402  1  -0.005898  0  0.026462  0.14435  0  3.998317  0
C  C117  1  0.44355875  0.82872729  0.88867759  1  0.037756  0  -0.077681  -0.095286  0  3.962134  0
C  C118  1  0.32742858  0.94579712  0.89076350  1  -0.013732  0  -0.08587  -0.163444  0  3.94773  0
C  C119  1  0.41442946  0.80478784  0.86191211  1  -0.026635  0  -0.07189  -0.070601  0  3.95111  0
C  C120  1  0.40329311  0.45350769  0.85658362  1  0.361502  0  0.079213  0.030301  0  3.934795  0
C  C121  1  0.34286224  0.30235133  0.89878479  1  0.015221  0  -0.085698  -0.12958  0  3.958787  0
C  C122  1  0.33499091  0.49637424  0.83945791  1  -0.156265  0  -0.006447  -0.15249  0  3.90628  0
C  C123  1  0.41202683  0.26031928  0.91441553  1  -0.137655  0  -0.022469  -0.120286  0  3.974369  0
C  C124  1  0.34048353  0.37245942  0.87711079  1  -0.210091  0  -0.018194  -0.007246  0  4.066853  0
C  C125  1  0.40768033  0.38198792  0.87717971  1  -0.106604  0  -0.015492  -0.06657  0  4.08175  0
C  C126  1  0.94997397  0.78942466  0.85086110  1  0.310172  0  0.079411  0.031276  0  3.93503  0
C  C127  1  0.80483395  0.95143916  0.89919404  1  0.110538  0  -0.085575  -0.128864  0  3.955436  0
C  C128  1  0.99571366  0.82899124  0.83677507  1  -0.098631  0  -0.006671  -0.150382  0  3.90678  0
C  C129  1  0.76029620  0.91107180  0.91228042  1  -0.218535  0  -0.021625  -0.121521  0  3.971978  0
C  C130  1  0.87345722  0.90714188  0.87610206  1  -0.155756  0  -0.017975  -0.004894  0  4.066984  0
C  C131  1  0.87939523  0.83415376  0.87245363  1  -0.153214  0  -0.015923  -0.068475  0  4.079241  0
S  S132  1  0.29804760  0.32568514  0.39811033  1  0.321433  0  0.122415  0.177576  0  2.743033  0
S  S133  1  0.45183290  0.42412817  0.35290084  1  0.368311  0  0.111785  0.175082  0  2.804003  0
S  S134  1  0.66791482  0.63267804  0.56507357  1  0.332133  0  0.128285  0.188336  0  2.741462  0
S  S135  1  0.59328663  0.61821785  0.69097381  1  0.336422  0  0.115227  0.179358  0  2.791007  0
S  S136  1  0.13364811  0.16133676  0.56160699  1  0.323196  0  0.118434  0.172762  0  2.74039  0
S  S137  1  0.11057216  0.08996378  0.68761521  1  0.352594  0  0.113548  0.175415  0  2.788645  0
S  S138  1  0.96989220  0.80008201  0.40028541  1  0.344056  0  0.130408  0.189801  0  2.740674  0
S  S139  1  0.77180464  0.94599120  0.34660211  1  0.33954  0  0.107402  0.167901  0  2.798202  0
S  S140  1  0.61702229  0.58585375  0.18628202  1  0.304104  0  0.125803  0.183729  0  2.741245  0
S  S141  1  0.63986634  0.65870320  0.06047179  1  0.340886  0  0.114661  0.17796  0  2.794543  0
S  S142  1  0.01537849  0.17626506  0.11534147  1  0.373152  0  0.131461  0.191894  0  2.739153  0
S  S143  1  0.24153052  0.06373527  0.14121243  1  0.365291  0  0.10898  0.170313  0  2.791931  0
S  S144  1  0.27489716  0.45014599  0.85031668  1  0.341593  0  0.133176  0.195263  0  2.7333  0
S  S145  1  0.47448567  0.30474928  0.90291470  1  0.339107  0  0.110799  0.173045  0  2.796271  0
S  S146  1  0.95317285  0.92011769  0.85148624  1  0.333574  0  0.126276  0.184305  0  2.738463  0
S  S147  1  0.80047304  0.82010527  0.89649632  1  0.332699  0  0.113968  0.177217  0  2.785996  0
N  N148  1  0.29475797  0.52598033  0.41305459  1  0.357613  0  0.058131  0.527835  0  4.216883  0
N  N149  1  0.78339097  0.55131661  0.66398794  1  0.379952  0  0.060586  0.530866  0  4.214162  0
N  N150  1  0.02433618  0.27971779  0.65807088  1  0.380469  0  0.06069  0.528825  0  4.21867  0
N  N151  1  0.76831779  0.78884760  0.40689901  1  0.374783  0  0.058439  0.530149  0  4.217426  0
N  N152  1  0.70996435  0.46861902  0.08833873  1  0.364518  0  0.059212  0.530319  0  4.217551  0
N  N153  1  0.10471741  0.07969948  0.22185086  1  0.367072  0  0.059239  0.531818  0  4.21684  0
N  N154  1  0.46417370  0.47673403  0.85730133  1  0.376399  0  0.059551  0.530781  0  4.21588  0
N  N155  1  0.97011728  0.70949750  0.84773584  1  0.379298  0  0.059268  0.530235  0  4.219403  0
Cl  Cl156  1  0.77588947  0.55131661  0.39175814  1  -0.179908  0  -0.005395  -0.064423  0  1.473192  0
Cl  Cl157  1  0.16352498  0.67621606  0.52780177  1  -0.170051  0  -0.006372  -0.064717  0  1.493906  0
Cl  Cl158  1  0.71394442  0.23037622  0.08022272  1  -0.159467  0  0.001763  -0.053246  0  1.511383  0
Cl  Cl159  1  0.20689214  0.98251190  0.85238750  1  -0.17434  0  -0.012007  -0.07351  0  1.473225  0
O  O160  1  0.00089662  0.49882904  0.49967800  1  -1.230362  0  -0.575074  -1.045967  0  2.528628  0
O  O161  1  0.06352001  0.31533077  0.52136551  1  -1.163233  0  -0.315422  -0.542245  0  2.297372  0
O  O162  1  0.02162126  0.54698543  0.58295790  1  -1.160446  0  -0.309693  -0.539933  0  2.324085  0
O  O163  1  0.13994253  0.51124732  0.43780012  1  -1.151197  0  -0.309192  -0.529604  0  2.342941  0
O  O164  1  0.05362446  0.37447158  0.57645779  1  -1.161039  0  -0.308585  -0.530618  0  2.337529  0
O  O165  1  0.15904865  0.38603567  0.45205644  1  -1.158445  0  -0.314505  -0.540901  0  2.299853  0
O  O166  1  0.09993806  0.56996993  0.52786570  1  -1.16643  0  -0.312315  -0.544737  0  2.398923  0
O  O167  1  0.99388019  0.66500065  0.45645680  1  -1.156373  0  -0.312131  -0.538055  0  2.309718  0
O  O168  1  0.88009437  0.48417097  0.45384351  1  -1.170164  0  -0.314641  -0.548945  0  2.38609  0
O  O169  1  0.90203844  0.63861276  0.43849062  1  -1.162351  0  -0.307156  -0.529599  0  2.349687  0
O  O170  1  0.99917345  0.39562839  0.43471028  1  -1.169457  0  -0.314765  -0.5466  0  2.306867  0
O  O171  1  0.88034058  0.50601786  0.57894094  1  -1.150903  0  -0.303106  -0.521648  0  2.344976  0
O  O172  1  0.81998703  0.59159701  0.52633840  1  -1.158653  0  -0.312843  -0.536564  0  2.314214  0
O  O173  1  0.74983961  0.24950177  0.25057615  1  -1.218195  0  -0.572571  -1.037503  0  2.528011  0
O  O174  1  0.59812229  0.35402723  0.30519551  1  -1.149188  0  -0.317424  -0.544133  0  2.333163  0
O  O175  1  0.66851435  0.16189742  0.21633285  1  -1.17156  0  -0.314956  -0.546817  0  2.332299  0
O  O176  1  0.75129306  0.37394078  0.17417249  1  -1.16091  0  -0.311022  -0.532347  0  2.338678  0
O  O177  1  0.59157532  0.24304969  0.29835281  1  -1.172663  0  -0.313892  -0.535643  0  2.305523  0
O  O178  1  0.66141113  0.43295912  0.22561621  1  -1.160415  0  -0.312727  -0.537289  0  2.309038  0
O  O179  1  0.70713936  0.23661093  0.16538889  1  -1.164834  0  -0.311377  -0.544218  0  2.409598  0
O  O180  1  0.87983994  0.20261878  0.17144885  1  -1.155706  0  -0.313464  -0.539114  0  2.308788  0
O  O181  1  0.85383180  0.25346277  0.31401662  1  -1.168948  0  -0.311446  -0.542823  0  2.342044  0
O  O182  1  0.93159731  0.18908402  0.22992759  1  -1.162316  0  -0.306105  -0.525947  0  2.346826  0
O  O183  1  0.75348501  0.36969906  0.30451874  1  -1.170084  0  -0.312761  -0.542297  0  2.32464  0
O  O184  1  0.74509522  0.09262013  0.29847924  1  -1.171498  0  -0.316975  -0.544122  0  2.336587  0
O  O185  1  0.86023852  0.09376633  0.30161243  1  -1.172277  0  -0.311328  -0.530589  0  2.310941  0
O  O186  1  0.25103204  0.74860038  0.74911839  1  -1.218119  0  -0.572057  -1.037449  0  2.525525  0
O  O187  1  0.37911087  0.72208049  0.66845340  1  -1.175331  0  -0.314871  -0.536767  0  2.310706  0
O  O188  1  0.35573500  0.74883476  0.81439346  1  -1.159141  0  -0.309176  -0.537996  0  2.320376  0
O  O189  1  0.16337889  0.93268812  0.72559202  1  -1.159756  0  -0.316856  -0.541659  0  2.329347  0
O  O190  1  0.43546487  0.68210024  0.72794041  1  -1.136407  0  -0.315668  -0.54127  0  2.331264  0
O  O191  1  0.22697780  0.87504688  0.66762719  1  -1.171501  0  -0.313908  -0.535024  0  2.307529  0
O  O192  1  0.26158642  0.86642042  0.79917222  1  -1.169878  0  -0.315199  -0.549078  0  2.410951  0
O  O193  1  0.10391118  0.85054743  0.80899529  1  -1.142867  0  -0.313378  -0.538971  0  2.310767  0
O  O194  1  0.17739056  0.65148950  0.71706096  1  -1.163482  0  -0.311322  -0.543072  0  2.324484  0
O  O195  1  0.08839926  0.75467389  0.78773221  1  -1.160866  0  -0.30814  -0.528269  0  2.344637  0
O  O196  1  0.22051545  0.71923103  0.66345951  1  -1.174334  0  -0.312793  -0.54186  0  2.343491  0
O  O197  1  0.36078057  0.59124066  0.79325610  1  -1.159306  0  -0.308471  -0.52886  0  2.352742  0
O  O198  1  0.23887949  0.60009843  0.80669835  1  -1.151359  0  -0.310397  -0.533801  0  2.305212  0
O  O199  1  0.50083612  0.99920817  0.99952501  1  -1.234326  0  -0.570033  -1.030727  0  2.524565  0
O  O200  1  0.50463566  0.15574818  0.94881716  1  -1.17456  0  -0.317335  -0.543992  0  2.33668  0
O  O201  1  0.38658687  0.99425810  0.94275077  1  -1.172045  0  -0.314011  -0.544694  0  2.340643  0
O  O202  1  0.65266833  0.89146198  0.94441981  1  -1.153803  0  -0.316156  -0.542347  0  2.331133  0
O  O203  1  0.38982005  0.15342512  0.94642207  1  -1.170562  0  -0.314819  -0.536132  0  2.310156  0
O  O204  1  0.65876457  0.00369998  0.94884950  1  -1.169714  0  -0.313919  -0.535424  0  2.309696  0
O  O205  1  0.49566080  0.88405072  0.94225326  1  -1.171899  0  -0.310394  -0.540285  0  2.334684  0
O  O206  1  0.57970245  0.81560808  0.02246598  1  -1.158429  0  -0.315961  -0.542238  0  2.335225  0
O  O207  1  0.53418737  0.03099474  0.08471005  1  -1.163559  0  -0.312581  -0.544834  0  2.336513  0
O  O208  1  0.52636921  0.87356462  0.08123106  1  -1.168927  0  -0.314477  -0.535197  0  2.306972  0
O  O209  1  0.58616492  0.08716900  0.02912674  1  -1.175226  0  -0.311362  -0.538755  0  2.337208  0
O  O210  1  0.31553718  0.07736667  0.02306672  1  -1.165838  0  -0.31383  -0.534908  0  2.308238  0
O  O211  1  0.37628347  0.02762396  0.08105043  1  -1.163061  0  -0.317607  -0.544738  0  2.331308  0
O  O212  1  0.32827364  0.56049261  0.38803120  1  -0.449389  0  -0.145946  -0.341533  0  1.865656  0
O  O213  1  0.25701408  0.54736607  0.44599580  1  -0.412718  0  -0.12285  -0.309515  0  1.916959  0
O  O214  1  0.75933871  0.52607238  0.69813402  1  -0.446279  0  -0.13816  -0.332892  0  1.864365  0
O  O215  1  0.84492835  0.55684680  0.65553519  1  -0.431502  0  -0.124567  -0.309781  0  1.888983  0
O  O216  1  0.04287815  0.25925078  0.69365456  1  -0.442409  0  -0.141517  -0.335332  0  1.858891  0
O  O217  1  0.96966250  0.33874128  0.64701239  1  -0.413783  0  -0.121761  -0.304307  0  1.894988  0
O  O218  1  0.72429915  0.81850901  0.37974462  1  -0.463926  0  -0.147419  -0.344872  0  1.866032  0
O  O219  1  0.75619656  0.75274426  0.43993367  1  -0.422172  0  -0.128422  -0.313751  0  1.894407  0
O  O220  1  0.73632043  0.49312149  0.05463751  1  -0.45196  0  -0.143301  -0.337901  0  1.865091  0
O  O221  1  0.70736679  0.40562896  0.09645170  1  -0.424662  0  -0.125589  -0.314513  0  1.925548  0
O  O222  1  0.16777389  0.07265603  0.22903651  1  -0.446555  0  -0.147257  -0.343453  0  1.861043  0
O  O223  1  0.06068104  0.05734720  0.24606431  1  -0.430884  0  -0.130791  -0.316461  0  1.886887  0
O  O224  1  0.52881976  0.42333679  0.86000654  1  -0.449199  0  -0.142224  -0.337512  0  1.862248  0
O  O225  1  0.44824227  0.54509470  0.85716427  1  -0.433462  0  -0.126522  -0.312063  0  1.889718  0
O  O226  1  0.91519184  0.69362588  0.84769724  1  -0.446958  0  -0.141044  -0.335485  0  1.860831  0
O  O227  1  0.03777396  0.66315132  0.84722616  1  -0.427488  0  -0.129144  -0.315757  0  1.893812  0
