# generated using pymatgen
data_BaH11PtC19N7
_symmetry_space_group_name_H-M   'P 1'
_cell_length_a   8.70734182
_cell_length_b   8.70731376
_cell_length_c   13.54253915
_cell_angle_alpha   83.02084832
_cell_angle_beta   83.02080993
_cell_angle_gamma   77.37701172
_symmetry_Int_Tables_number   1
_chemical_formula_structural   BaH11PtC19N7
_chemical_formula_sum   'Ba2 H22 Pt2 C38 N14'
_cell_volume   989.73006787
_cell_formula_units_Z   2
loop_
 _symmetry_equiv_pos_site_id
 _symmetry_equiv_pos_as_xyz
  1  'x, y, z'
loop_
 _atom_site_type_symbol
 _atom_site_label
 _atom_site_symmetry_multiplicity
 _atom_site_fract_x
 _atom_site_fract_y
 _atom_site_fract_z
 _atom_site_occupancy
 _atom_site_hle17_bader_spin_density
 _atom_site_hle17_ddec_charge
 _atom_site_hle17_ddec_spin_density
 _atom_site_hle17_ddec_sum_bond_order
 _atom_site_hle17_magmom
 _atom_site_hse06_10hf_bader_spin_density
 _atom_site_hse06_10hf_ddec_charge
 _atom_site_hse06_10hf_ddec_spin_density
 _atom_site_hse06_10hf_ddec_sum_bond_order
 _atom_site_hse06_10hf_magmom
 _atom_site_hse06_bader_spin_density
 _atom_site_hse06_ddec_charge
 _atom_site_hse06_ddec_spin_density
 _atom_site_hse06_ddec_sum_bond_order
 _atom_site_hse06_magmom
 _atom_site_pbe_bader_spin_density
 _atom_site_pbe_cm5_charge
 _atom_site_pbe_ddec_charge
 _atom_site_pbe_ddec_spin_density
 _atom_site_pbe_ddec_sum_bond_order
 _atom_site_pbe_magmom
Ba  Ba0  1  0.89378780  0.10620836  0.74999958  1  0  1.488659  0  1.309819  0  0  1.306608  0  1.72595  0  0  1.345952  0  1.690766  0  0  1.068283  1.278355  0  1.750543  0
Ba  Ba1  1  0.10620928  0.89379268  0.25000060  1  0  1.488659  0  1.309811  0  0  1.306652  0  1.725867  0  0  1.345995  0  1.690684  0  0  1.068314  1.278403  0  1.750462  0
H  H2  1  0.32169767  0.36868720  0.00498539  1  0  0.084427  0  1.008002  0  0  0.082864  0  1.092845  0  0  0.087739  0  1.088457  0  0  0.088425  0.079339  0  1.096068  0
H  H3  1  0.63131582  0.67829163  0.49500995  1  0  0.084409  0  1.007851  0  0  0.082832  0  1.092715  0  0  0.08771  0  1.088323  0  0  0.088425  0.079306  0  1.095936  0
H  H4  1  0.67830593  0.63132115  0.99501575  1  0  0.084349  0  1.007972  0  0  0.082791  0  1.092838  0  0  0.087667  0  1.088449  0  0  0.088367  0.079265  0  1.096061  0
H  H5  1  0.36868110  0.32169994  0.50499185  1  0  0.084359  0  1.007894  0  0  0.082842  0  1.092694  0  0  0.087718  0  1.088309  0  0  0.088424  0.079316  0  1.095915  0
H  H6  1  0.82864738  0.98981168  0.00559853  1  0  0.069167  0  0.948047  0  0  0.078192  0  1.011891  0  0  0.079979  0  1.011263  0  0  0.122474  0.076889  0  1.012386  0
H  H7  1  0.01020030  0.17134072  0.49439467  1  0  0.069121  0  0.947983  0  0  0.078143  0  1.011834  0  0  0.07993  0  1.011207  0  0  0.122473  0.07684  0  1.012327  0
H  H8  1  0.17134255  0.01017967  0.99440097  1  0  0.069209  0  0.948016  0  0  0.078172  0  1.011912  0  0  0.079958  0  1.011284  0  0  0.122508  0.076872  0  1.012402  0
H  H9  1  0.98980909  0.82866778  0.50560740  1  0  0.069177  0  0.947914  0  0  0.078142  0  1.011815  0  0  0.079928  0  1.011189  0  0  0.122488  0.07684  0  1.012304  0
H  H10  1  0.37537858  0.18325183  0.15593189  1  0  0.103223  0  0.955468  0  0  0.113222  0  1.014694  0  0  0.115888  0  1.013192  0  0  0.113181  0.111273  0  1.015803  0
H  H11  1  0.81675224  0.62461046  0.34406476  1  0  0.103211  0  0.955529  0  0  0.113269  0  1.014694  0  0  0.115929  0  1.013203  0  0  0.113203  0.111318  0  1.015801  0
H  H12  1  0.62461370  0.81675506  0.84406820  1  0  0.10323  0  0.955546  0  0  0.113256  0  1.014742  0  0  0.115915  0  1.013245  0  0  0.113184  0.111304  0  1.015854  0
H  H13  1  0.18324191  0.37538815  0.65593591  1  0  0.103174  0  0.955532  0  0  0.113225  0  1.014708  0  0  0.115887  0  1.013211  0  0  0.113164  0.111274  0  1.015815  0
H  H14  1  0.63734905  0.98913976  0.15823207  1  0  0.111708  0  0.934595  0  0  0.121903  0  0.991815  0  0  0.12498  0  0.991322  0  0  0.117163  0.119745  0  0.992236  0
H  H15  1  0.01086349  0.36264653  0.34176057  1  0  0.111787  0  0.934632  0  0  0.122003  0  0.991811  0  0  0.125078  0  0.991323  0  0  0.117238  0.119845  0  0.992234  0
H  H16  1  0.36263829  0.01085271  0.84176682  1  0  0.111738  0  0.93458  0  0  0.12193  0  0.991805  0  0  0.125004  0  0.991318  0  0  0.117174  0.119772  0  0.992226  0
H  H17  1  0.98913626  0.63735815  0.65823977  1  0  0.111827  0  0.934456  0  0  0.122029  0  0.99166  0  0  0.125103  0  0.991173  0  0  0.117257  0.119869  0  0.992083  0
H  H18  1  0.31571703  0.54537652  0.90263422  1  0  0.092068  0  0.988597  0  0  0.096083  0  1.063794  0  0  0.099798  0  1.061291  0  0  0.096306  0.093416  0  1.065671  0
H  H19  1  0.45463580  0.68428159  0.59735697  1  0  0.092005  0  0.988532  0  0  0.096015  0  1.063763  0  0  0.099726  0  1.061268  0  0  0.096258  0.093344  0  1.065644  0
H  H20  1  0.68427723  0.45463154  0.09736336  1  0  0.09204  0  0.988653  0  0  0.096019  0  1.063893  0  0  0.09973  0  1.061393  0  0  0.096287  0.093357  0  1.065759  0
H  H21  1  0.54536403  0.31571706  0.40264022  1  0  0.091993  0  0.988558  0  0  0.096004  0  1.063775  0  0  0.099709  0  1.06129  0  0  0.096256  0.093333  0  1.065657  0
H  H22  1  0.27031445  0.72969630  0.74999405  1  0  0.104702  0  0.95415  0  0  0.113325  0  1.016162  0  0  0.115738  0  1.015407  0  0  0.112392  0.111604  0  1.016722  0
H  H23  1  0.72968634  0.27030828  0.25000178  1  0  0.104651  0  0.95422  0  0  0.113313  0  1.016187  0  0  0.115712  0  1.015447  0  0  0.112388  0.111594  0  1.016747  0
Pt  Pt24  1  0.50000422  0.99998856  0.50000397  1  0  0.058076  0  4.11627  0  0  0.102088  0  4.672242  0  0  0.090788  0  4.645999  0  0  0.55349  0.111323  0  4.689423  0
Pt  Pt25  1  0.99999872  0.50000133  0.99999891  1  0  0.057966  0  4.116205  0  0  0.101974  0  4.672168  0  0  0.090676  0  4.645928  0  0  0.553473  0.1112  0  4.689353  0
C  C26  1  0.30380727  0.00353946  0.59048007  1  0  0.105149  0  3.643222  0  0  0.073334  0  3.988457  0  0  0.086469  0  3.996115  0  0  0.007912  0.064073  0  3.983063  0
C  C27  1  0.99646256  0.69620309  0.90952113  1  0  0.105219  0  3.64323  0  0  0.073409  0  3.988452  0  0  0.08654  0  3.996113  0  0  0.007927  0.064152  0  3.983061  0
C  C28  1  0.69619779  0.99644156  0.40952121  1  0  0.10511  0  3.64333  0  0  0.073297  0  3.98856  0  0  0.086431  0  3.996218  0  0  0.007828  0.064036  0  3.98317  0
C  C29  1  0.00354098  0.30380988  0.09047441  1  0  0.105227  0  3.643567  0  0  0.073422  0  3.988789  0  0  0.086555  0  3.996451  0  0  0.007947  0.064162  0  3.983403  0
C  C30  1  0.63216538  0.94999023  0.61318633  1  0  0.100979  0  3.642415  0  0  0.067432  0  3.986683  0  0  0.080112  0  3.995821  0  0  0.008156  0.05846  0  3.980251  0
C  C31  1  0.04999204  0.36783531  0.88681114  1  0  0.100812  0  3.643243  0  0  0.067266  0  3.987489  0  0  0.07994  0  3.996632  0  0  0.008103  0.058301  0  3.981057  0
C  C32  1  0.36783812  0.04998713  0.38681321  1  0  0.100765  0  3.64324  0  0  0.067219  0  3.987506  0  0  0.079894  0  3.996647  0  0  0.008137  0.058253  0  3.981073  0
C  C33  1  0.95001650  0.63217057  0.11318238  1  0  0.100941  0  3.642754  0  0  0.067402  0  3.987009  0  0  0.080079  0  3.996153  0  0  0.008145  0.058434  0  3.98058  0
C  C34  1  0.43527715  0.28612775  0.00664141  1  0  -0.141256  0  3.706824  0  0  -0.156843  0  3.953926  0  0  -0.165539  0  3.977069  0  0  -0.081364  -0.15109  0  3.938308  0
C  C35  1  0.71387997  0.56470707  0.49335315  1  0  -0.14109  0  3.706579  0  0  -0.156691  0  3.95372  0  0  -0.165383  0  3.976857  0  0  -0.081338  -0.150937  0  3.938094  0
C  C36  1  0.56471919  0.71388157  0.99335735  1  0  -0.141002  0  3.706644  0  0  -0.156605  0  3.953735  0  0  -0.165297  0  3.976876  0  0  -0.081235  -0.15085  0  3.938115  0
C  C37  1  0.28611787  0.43529039  0.50664581  1  0  -0.141094  0  3.706573  0  0  -0.156737  0  3.953698  0  0  -0.165429  0  3.976834  0  0  -0.08135  -0.150983  0  3.938073  0
C  C38  1  0.71580493  0.07451638  0.00831987  1  0  0.1332  0  3.743241  0  0  0.105815  0  4.00012  0  0  0.111769  0  4.019285  0  0  0.056793  0.102038  0  3.986923  0
C  C39  1  0.92548779  0.28418913  0.49167541  1  0  0.133382  0  3.743102  0  0  0.105989  0  3.999994  0  0  0.111943  0  4.019162  0  0  0.056848  0.102211  0  3.98679  0
C  C40  1  0.28418739  0.92547976  0.99167898  1  0  0.133119  0  3.743406  0  0  0.105794  0  4.000274  0  0  0.111748  0  4.01944  0  0  0.056743  0.102015  0  3.987078  0
C  C41  1  0.07452113  0.71581101  0.50832599  1  0  0.133368  0  3.743063  0  0  0.10603  0  3.99994  0  0  0.111985  0  4.019109  0  0  0.056865  0.102253  0  3.986734  0
C  C42  1  0.46412213  0.18082058  0.09156938  1  0  -0.004545  0  3.719334  0  0  -0.020939  0  3.96385  0  0  -0.018083  0  3.984053  0  0  -0.062265  -0.022446  0  3.949888  0
C  C43  1  0.81918668  0.53586360  0.40842356  1  0  -0.004654  0  3.719515  0  0  -0.021121  0  3.964067  0  0  -0.018265  0  3.984268  0  0  -0.062326  -0.022626  0  3.950099  0
C  C44  1  0.53586983  0.81918743  0.90842841  1  0  -0.004587  0  3.719428  0  0  -0.021001  0  3.963966  0  0  -0.018138  0  3.984162  0  0  -0.062258  -0.022507  0  3.95  0
C  C45  1  0.18081239  0.46413396  0.59157824  1  0  -0.004578  0  3.719448  0  0  -0.021038  0  3.964  0  0  -0.018178  0  3.984197  0  0  -0.062269  -0.022542  0  3.950029  0
C  C46  1  0.60813319  0.07302586  0.09329192  1  0  -0.103836  0  3.70488  0  0  -0.118552  0  3.957954  0  0  -0.124958  0  3.979263  0  0  -0.071493  -0.114422  0  3.943525  0
C  C47  1  0.92698266  0.39186062  0.40669933  1  0  -0.103937  0  3.704956  0  0  -0.118647  0  3.958024  0  0  -0.125054  0  3.979333  0  0  -0.071559  -0.114519  0  3.943595  0
C  C48  1  0.39185858  0.92697264  0.90670602  1  0  -0.103887  0  3.704969  0  0  -0.118599  0  3.958019  0  0  -0.125007  0  3.979328  0  0  -0.071544  -0.114469  0  3.943588  0
C  C49  1  0.07302078  0.60813825  0.59330342  1  0  -0.104034  0  3.704789  0  0  -0.118734  0  3.957855  0  0  -0.125143  0  3.979162  0  0  -0.071615  -0.114606  0  3.943423  0
C  C50  1  0.52438010  0.39627555  0.83302087  1  0  0.186292  0  3.738947  0  0  0.188058  0  3.976651  0  0  0.19433  0  3.995986  0  0  0.127693  0.183884  0  3.963436  0
C  C51  1  0.60373485  0.47561204  0.66696947  1  0  0.186127  0  3.739325  0  0  0.187897  0  3.976995  0  0  0.194165  0  3.996333  0  0  0.127703  0.183725  0  3.963773  0
C  C52  1  0.47561966  0.60372915  0.16698021  1  0  0.186084  0  3.738831  0  0  0.187838  0  3.976561  0  0  0.194105  0  3.995901  0  0  0.127607  0.183664  0  3.963346  0
C  C53  1  0.39626305  0.52438548  0.33303169  1  0  0.186189  0  3.739373  0  0  0.187975  0  3.977027  0  0  0.194245  0  3.996362  0  0  0.127738  0.183804  0  3.963807  0
C  C54  1  0.39563435  0.52529025  0.83516512  1  0  -0.129096  0  3.709063  0  0  -0.148768  0  3.954064  0  0  -0.156005  0  3.976974  0  0  -0.078988  -0.143983  0  3.938609  0
C  C55  1  0.47472187  0.60435741  0.66483037  1  0  -0.128911  0  3.708844  0  0  -0.148585  0  3.953833  0  0  -0.155823  0  3.976747  0  0  -0.078916  -0.143798  0  3.938374  0
C  C56  1  0.60436857  0.47471566  0.16483408  1  0  -0.128877  0  3.709037  0  0  -0.148521  0  3.95406  0  0  -0.15575  0  3.976963  0  0  -0.078876  -0.143736  0  3.938609  0
C  C57  1  0.52527811  0.39564605  0.33516859  1  0  -0.128939  0  3.708913  0  0  -0.148618  0  3.953927  0  0  -0.155854  0  3.976841  0  0  -0.078932  -0.143831  0  3.93847  0
C  C58  1  0.37036225  0.62964277  0.74999823  1  0  0.003807  0  3.72484  0  0  -0.011787  0  3.969301  0  0  -0.009678  0  3.990403  0  0  -0.064676  -0.012888  0  3.954785  0
C  C59  1  0.62964067  0.37036314  0.25000098  1  0  0.003807  0  3.724912  0  0  -0.01182  0  3.969367  0  0  -0.009697  0  3.990472  0  0  -0.064694  -0.012921  0  3.954852  0
C  C60  1  0.55056699  0.28261435  0.92437042  1  0  0.180212  0  3.748821  0  0  0.180143  0  3.986029  0  0  0.186604  0  4.006422  0  0  0.124406  0.175901  0  3.972107  0
C  C61  1  0.71739019  0.44942747  0.57562759  1  0  0.180288  0  3.749039  0  0  0.180269  0  3.986151  0  0  0.18673  0  4.006544  0  0  0.124455  0.176027  0  3.972223  0
C  C62  1  0.44942785  0.71739138  0.07562880  1  0  0.18022  0  3.748745  0  0  0.18018  0  3.985935  0  0  0.186639  0  4.006331  0  0  0.124446  0.175936  0  3.972013  0
C  C63  1  0.28261546  0.55057135  0.42437128  1  0  0.180205  0  3.749135  0  0  0.180166  0  3.986274  0  0  0.186626  0  4.006664  0  0  0.124386  0.175922  0  3.972347  0
N  N64  1  0.18439006  0.00611404  0.64118938  1  0  -0.4989  0  2.839225  0  0  -0.439751  0  3.111021  0  0  -0.457006  0  3.122107  0  0  -0.423977  -0.427766  0  3.103432  0
N  N65  1  0.99390021  0.81561891  0.85881679  1  0  -0.498949  0  2.839394  0  0  -0.439802  0  3.111194  0  0  -0.457054  0  3.122282  0  0  -0.423987  -0.427814  0  3.103606  0
N  N66  1  0.81560685  0.99388218  0.35880831  1  0  -0.498857  0  2.839294  0  0  -0.439714  0  3.111084  0  0  -0.456967  0  3.122169  0  0  -0.423909  -0.42773  0  3.103499  0
N  N67  1  0.00611032  0.18439426  0.14118106  1  0  -0.498957  0  2.839449  0  0  -0.439831  0  3.111242  0  0  -0.457083  0  3.122327  0  0  -0.424013  -0.427844  0  3.103658  0
N  N68  1  0.71506837  0.92007941  0.67809688  1  0  -0.498756  0  2.83043  0  0  -0.438568  0  3.092717  0  0  -0.455829  0  3.105066  0  0  -0.426479  -0.426553  0  3.084233  0
N  N69  1  0.07990266  0.28493717  0.82191194  1  0  -0.498544  0  2.831398  0  0  -0.43835  0  3.093658  0  0  -0.455607  0  3.10601  0  0  -0.426426  -0.426332  0  3.085166  0
N  N70  1  0.28495266  0.07989854  0.32191061  1  0  -0.498538  0  2.831425  0  0  -0.43834  0  3.0937  0  0  -0.455599  0  3.106053  0  0  -0.426456  -0.426328  0  3.085215  0
N  N71  1  0.92010062  0.71506298  0.17809441  1  0  -0.498679  0  2.830888  0  0  -0.438501  0  3.093164  0  0  -0.455761  0  3.105519  0  0  -0.426483  -0.426483  0  3.084677  0
N  N72  1  0.68893617  0.17530793  0.92592059  1  0  -0.412847  0  3.168824  0  0  -0.357713  0  3.42682  0  0  -0.37359  0  3.445133  0  0  -0.378139  -0.346798  0  3.414148  0
N  N73  1  0.82469795  0.31105757  0.57407357  1  0  -0.413022  0  3.168891  0  0  -0.357905  0  3.426893  0  0  -0.373783  0  3.445207  0  0  -0.378236  -0.34699  0  3.414218  0
N  N74  1  0.31105484  0.82469415  0.07407858  1  0  -0.412897  0  3.169029  0  0  -0.357785  0  3.42701  0  0  -0.373663  0  3.445325  0  0  -0.3782  -0.346871  0  3.41434  0
N  N75  1  0.17530796  0.68894006  0.42592537  1  0  -0.412933  0  3.168878  0  0  -0.357812  0  3.426851  0  0  -0.373689  0  3.445165  0  0  -0.378176  -0.346898  0  3.414178  0
N  N76  1  0.62712949  0.37286824  0.74999880  1  0  -0.409629  0  3.089158  0  0  -0.362086  0  3.336164  0  0  -0.376126  0  3.35193  0  0  -0.349123  -0.352353  0  3.325237  0
N  N77  1  0.37286880  0.62713288  0.25000348  1  0  -0.409607  0  3.08892  0  0  -0.362068  0  3.335932  0  0  -0.376107  0  3.351699  0  0  -0.34913  -0.352337  0  3.325007  0
