# generated using pymatgen
data_CdH28C28(N5O3)2
_symmetry_space_group_name_H-M   'P 1'
_cell_length_a   8.41805612
_cell_length_b   9.10361335
_cell_length_c   19.38500000
_cell_angle_alpha   90.00000000
_cell_angle_beta   90.00000000
_cell_angle_gamma   102.56500651
_symmetry_Int_Tables_number   1
_chemical_formula_structural   CdH28C28(N5O3)2
_chemical_formula_sum   'Cd2 H56 C56 N20 O12'
_cell_volume   1449.98466063
_cell_formula_units_Z   2
loop_
 _symmetry_equiv_pos_site_id
 _symmetry_equiv_pos_as_xyz
  1  'x, y, z'
loop_
 _atom_site_type_symbol
 _atom_site_label
 _atom_site_symmetry_multiplicity
 _atom_site_fract_x
 _atom_site_fract_y
 _atom_site_fract_z
 _atom_site_occupancy
 _atom_site_hle17_bader_spin_density
 _atom_site_hle17_ddec_charge
 _atom_site_hle17_ddec_spin_density
 _atom_site_hle17_ddec_sum_bond_order
 _atom_site_hle17_magmom
 _atom_site_hse06_10hf_bader_spin_density
 _atom_site_hse06_10hf_ddec_charge
 _atom_site_hse06_10hf_ddec_spin_density
 _atom_site_hse06_10hf_ddec_sum_bond_order
 _atom_site_hse06_10hf_magmom
 _atom_site_hse06_bader_spin_density
 _atom_site_hse06_ddec_charge
 _atom_site_hse06_ddec_spin_density
 _atom_site_hse06_ddec_sum_bond_order
 _atom_site_hse06_magmom
 _atom_site_pbe_bader_charge
 _atom_site_pbe_bader_spin_density
 _atom_site_pbe_cm5_charge
 _atom_site_pbe_ddec_charge
 _atom_site_pbe_ddec_spin_density
 _atom_site_pbe_ddec_sum_bond_order
 _atom_site_pbe_magmom
Cd  Cd0  1  0.00000000  0.00000000  0.50000000  1  0  1.04449  0  1.784107  0  0  0.840017  0  2.234471  0  0  0.89151  0  2.191211  0  1.260035  0  0.783859  0.803279  0  2.264353  0
Cd  Cd1  1  0.99999839  0.49999999  0.99999948  1  0  1.04451  0  1.784116  0  0  0.840041  0  2.234486  0  0  0.891536  0  2.191224  0  1.260025  0  0.78386  0.803305  0  2.264368  0
H  H2  1  0.69524360  0.19228795  0.54020377  1  0  0.101675  0  0.967997  0  0  0.104019  0  1.042977  0  0  0.107499  0  1.038353  0  0.20332  0  0.132414  0.101378  0  1.046221  0
H  H3  1  0.30475519  0.30770867  0.04020119  1  0  0.101591  0  0.968059  0  0  0.10395  0  1.043022  0  0  0.107425  0  1.038412  0  0.203345  0  0.132382  0.101319  0  1.046254  0
H  H4  1  0.30475629  0.80771204  0.45979727  1  0  0.101648  0  0.968037  0  0  0.10399  0  1.043026  0  0  0.10747  0  1.038402  0  0.203327  0  0.132396  0.101349  0  1.046271  0
H  H5  1  0.69524232  0.69229132  0.95979778  1  0  0.101659  0  0.968022  0  0  0.104003  0  1.043007  0  0  0.107483  0  1.038384  0  0.203322  0  0.132379  0.101364  0  1.046248  0
H  H6  1  0.04873149  0.57329178  0.60225896  1  0  0.113394  0  0.963835  0  0  0.122934  0  1.026255  0  0  0.125528  0  1.025202  0  0.110638  0  0.120067  0.120917  0  1.027256  0
H  H7  1  0.95126633  0.92670821  0.10225896  1  0  0.113398  0  0.963871  0  0  0.122961  0  1.026268  0  0  0.125555  0  1.025212  0  0.110629  0  0.120056  0.120942  0  1.027272  0
H  H8  1  0.95127104  0.42670934  0.39774104  1  0  0.113404  0  0.963872  0  0  0.122933  0  1.026296  0  0  0.125525  0  1.025248  0  0.11064  0  0.120065  0.120917  0  1.027296  0
H  H9  1  0.04872907  0.07329291  0.89774104  1  0  0.113387  0  0.963883  0  0  0.122921  0  1.0263  0  0  0.12551  0  1.025258  0  0.11062  0  0.120063  0.120904  0  1.027301  0
H  H10  1  0.20004309  0.33314088  0.57855197  1  0  0.105746  0  0.954078  0  0  0.116117  0  1.012707  0  0  0.118522  0  1.011616  0  0.134824  0  0.116427  0.114242  0  1.013744  0
H  H11  1  0.79995531  0.16685911  0.07855146  1  0  0.105702  0  0.954123  0  0  0.116089  0  1.012733  0  0  0.118488  0  1.011641  0  0.134814  0  0.116421  0.114216  0  1.013764  0
H  H12  1  0.79995891  0.66685798  0.42144803  1  0  0.105755  0  0.954092  0  0  0.116123  0  1.012723  0  0  0.118524  0  1.01163  0  0.134871  0  0.116439  0.114249  0  1.01376  0
H  H13  1  0.20004155  0.83314313  0.92144803  1  0  0.105737  0  0.954097  0  0  0.116107  0  1.012728  0  0  0.118507  0  1.011635  0  0.134878  0  0.116434  0.114232  0  1.013765  0
H  H14  1  0.60793470  0.43460415  0.54562548  1  0  0.096824  0  0.937029  0  0  0.106485  0  1.004711  0  0  0.108325  0  1.002841  0  0.1113  0  0.114158  0.105135  0  1.006019  0
H  H15  1  0.39206343  0.06539472  0.04562394  1  0  0.096854  0  0.937005  0  0  0.106501  0  1.004682  0  0  0.108337  0  1.002819  0  0.111319  0  0.114156  0.105151  0  1.00599  0
H  H16  1  0.39206638  0.56539584  0.45437503  1  0  0.096801  0  0.937044  0  0  0.106462  0  1.004739  0  0  0.108301  0  1.00287  0  0.11128  0  0.114143  0.105112  0  1.006046  0
H  H17  1  0.60793290  0.93460527  0.95437503  1  0  0.096822  0  0.937038  0  0  0.106475  0  1.004734  0  0  0.108314  0  1.00287  0  0.111285  0  0.114143  0.105126  0  1.006039  0
H  H18  1  0.75751333  0.60474161  0.55741759  1  0  0.090753  0  0.943842  0  0  0.099387  0  1.015806  0  0  0.100405  0  1.015426  0  0.107672  0  0.110786  0.098626  0  1.016145  0
H  H19  1  0.24248515  0.89525612  0.05741656  1  0  0.090788  0  0.943816  0  0  0.099415  0  1.015753  0  0  0.100435  0  1.015368  0  0.107629  0  0.11079  0.098653  0  1.016092  0
H  H20  1  0.24248656  0.39525838  0.44258344  1  0  0.090763  0  0.943821  0  0  0.099414  0  1.015764  0  0  0.100433  0  1.01538  0  0.107657  0  0.110804  0.098652  0  1.016104  0
H  H21  1  0.75751118  0.10474386  0.94258241  1  0  0.090765  0  0.943817  0  0  0.09942  0  1.015754  0  0  0.10044  0  1.015372  0  0.107651  0  0.110793  0.098659  0  1.016093  0
H  H22  1  0.83866253  0.70444472  0.67234202  1  0  0.088704  0  0.989421  0  0  0.097611  0  1.057712  0  0  0.099998  0  1.057541  0  0.092954  0  0.094641  0.095866  0  1.057677  0
H  H23  1  0.16133951  0.79555301  0.17234150  1  0  0.088666  0  0.98947  0  0  0.097574  0  1.057764  0  0  0.099967  0  1.057576  0  0.092962  0  0.09463  0.095829  0  1.057728  0
H  H24  1  0.16133736  0.29555527  0.32765798  1  0  0.088729  0  0.989388  0  0  0.097637  0  1.057683  0  0  0.100028  0  1.057502  0  0.092961  0  0.094654  0.095892  0  1.057647  0
H  H25  1  0.83866104  0.20444473  0.82765798  1  0  0.088702  0  0.989459  0  0  0.097612  0  1.057747  0  0  0.100003  0  1.057566  0  0.092969  0  0.094636  0.095867  0  1.057711  0
H  H26  1  0.76870605  0.71371142  0.79637606  1  0  0.083976  0  0.959607  0  0  0.094814  0  1.019133  0  0  0.096844  0  1.019532  0  0.083216  0  0.097254  0.092801  0  1.01976  0
H  H27  1  0.23129784  0.78628406  0.29637503  1  0  0.083932  0  0.959688  0  0  0.094796  0  1.019182  0  0  0.096824  0  1.019585  0  0.083227  0  0.097238  0.092768  0  1.019825  0
H  H28  1  0.23129833  0.28628744  0.20362445  1  0  0.083997  0  0.959647  0  0  0.094835  0  1.019163  0  0  0.096862  0  1.019566  0  0.083236  0  0.097274  0.092816  0  1.019797  0
H  H29  1  0.76870336  0.21371143  0.70362445  1  0  0.083967  0  0.959645  0  0  0.094806  0  1.019164  0  0  0.096832  0  1.019569  0  0.083233  0  0.097251  0.092788  0  1.019796  0
H  H30  1  0.54684089  0.51720540  0.84662677  1  0  0.102626  0  0.947165  0  0  0.113404  0  1.009731  0  0  0.115895  0  1.008756  0  0.095871  0  0.10233  0.111417  0  1.01075  0
H  H31  1  0.45316261  0.98279346  0.34662523  1  0  0.10255  0  0.947215  0  0  0.113347  0  1.009757  0  0  0.115836  0  1.008787  0  0.095912  0  0.102315  0.111361  0  1.010775  0
H  H32  1  0.45316256  0.48279459  0.15337477  1  0  0.102541  0  0.947236  0  0  0.113339  0  1.009778  0  0  0.115827  0  1.008808  0  0.095897  0  0.102324  0.111352  0  1.010796  0
H  H33  1  0.54683886  0.01720315  0.65337323  1  0  0.102614  0  0.947166  0  0  0.1134  0  1.009725  0  0  0.115889  0  1.008751  0  0.095876  0  0.102348  0.111411  0  1.010745  0
H  H34  1  0.46216094  0.30495702  0.64703998  1  0  0.102851  0  0.969467  0  0  0.113128  0  1.034905  0  0  0.116041  0  1.033493  0  0.061246  0  0.099232  0.111091  0  1.035655  0
H  H35  1  0.53783718  0.19504185  0.14703843  1  0  0.102947  0  0.96953  0  0  0.113231  0  1.034939  0  0  0.116144  0  1.033525  0  0.061278  0  0.099266  0.111195  0  1.035688  0
H  H36  1  0.53784106  0.69504185  0.35296208  1  0  0.102903  0  0.969422  0  0  0.113186  0  1.034861  0  0  0.116099  0  1.033447  0  0.061224  0  0.099232  0.111148  0  1.035611  0
H  H37  1  0.46215980  0.80495589  0.85296157  1  0  0.102893  0  0.969431  0  0  0.113165  0  1.034873  0  0  0.116078  0  1.033462  0  0.061209  0  0.099242  0.11113  0  1.035623  0
H  H38  1  0.29982152  0.19781939  0.74000052  1  0  0.079878  0  0.938854  0  0  0.091199  0  1.007146  0  0  0.092001  0  1.007341  0  0.089682  0  0.107425  0.090463  0  1.007148  0
H  H39  1  0.70017859  0.30218286  0.24000052  1  0  0.079875  0  0.938839  0  0  0.091206  0  1.007129  0  0  0.09201  0  1.007321  0  0.089665  0  0.107424  0.090482  0  1.007123  0
H  H40  1  0.70018008  0.80218285  0.25999948  1  0  0.079866  0  0.938853  0  0  0.091187  0  1.007151  0  0  0.091988  0  1.007346  0  0.08966  0  0.107413  0.090461  0  1.007149  0
H  H41  1  0.29982130  0.69781713  0.75999897  1  0  0.079872  0  0.938849  0  0  0.091189  0  1.007144  0  0  0.091992  0  1.007338  0  0.089672  0  0.107416  0.090459  0  1.007139  0
H  H42  1  0.40435647  0.21647208  0.82044209  1  0  0.101743  0  0.921585  0  0  0.115341  0  0.984346  0  0  0.116404  0  0.984037  0  0.121  0  0.118247  0.114383  0  0.984616  0
H  H43  1  0.59564166  0.28352679  0.32044106  1  0  0.101747  0  0.921561  0  0  0.115344  0  0.984325  0  0  0.116407  0  0.984016  0  0.121016  0  0.118246  0.114388  0  0.9846  0
H  H44  1  0.59564316  0.78352678  0.17955842  1  0  0.101765  0  0.921576  0  0  0.115362  0  0.984335  0  0  0.116425  0  0.984025  0  0.121015  0  0.118258  0.114408  0  0.984608  0
H  H45  1  0.40435677  0.71647207  0.67955791  1  0  0.101734  0  0.921588  0  0  0.115327  0  0.984352  0  0  0.11639  0  0.984044  0  0.120996  0  0.118242  0.11437  0  0.984623  0
H  H46  1  0.10390657  0.40530950  0.72250451  1  0  0.108427  0  0.969266  0  0  0.116365  0  1.035058  0  0  0.118862  0  1.034523  0  0.114071  0  0.116427  0.114461  0  1.035791  0
H  H47  1  0.89609354  0.09469275  0.22250400  1  0  0.108421  0  0.969228  0  0  0.116366  0  1.03501  0  0  0.118862  0  1.034475  0  0.114058  0  0.116429  0.114462  0  1.035742  0
H  H48  1  0.89609503  0.59469274  0.27749600  1  0  0.108418  0  0.969229  0  0  0.116364  0  1.035013  0  0  0.11886  0  1.034478  0  0.114055  0  0.116428  0.11446  0  1.035745  0
H  H49  1  0.10390807  0.90530949  0.77749600  1  0  0.10845  0  0.96921  0  0  0.11637  0  1.035016  0  0  0.118866  0  1.034482  0  0.114053  0  0.116422  0.114467  0  1.035748  0
H  H50  1  0.92844057  0.51659317  0.82459685  1  0  0.101905  0  0.979962  0  0  0.108596  0  1.045523  0  0  0.110487  0  1.045756  0  0.126848  0  0.112971  0.107306  0  1.045404  0
H  H51  1  0.07156042  0.98341019  0.32459685  1  0  0.101925  0  0.979941  0  0  0.108614  0  1.045504  0  0  0.110504  0  1.045736  0  0.126887  0  0.112979  0.107322  0  1.045389  0
H  H52  1  0.07156051  0.48340682  0.17540366  1  0  0.10186  0  0.979959  0  0  0.108551  0  1.04553  0  0  0.11044  0  1.045763  0  0.126849  0  0.11294  0.10726  0  1.045412  0
H  H53  1  0.92844145  0.01659318  0.67540366  1  0  0.101877  0  0.97994  0  0  0.108568  0  1.045509  0  0  0.110458  0  1.045741  0  0.12687  0  0.112962  0.107277  0  1.045391  0
H  H54  1  0.28600759  0.32137800  0.91849884  1  0  0.096178  0  0.992199  0  0  0.099685  0  1.067848  0  0  0.102393  0  1.064219  0  0.187593  0  0.128899  0.097716  0  1.070408  0
H  H55  1  0.71399133  0.17862424  0.41849781  1  0  0.096173  0  0.992225  0  0  0.099679  0  1.067875  0  0  0.102397  0  1.064237  0  0.187575  0  0.128901  0.097711  0  1.070435  0
H  H56  1  0.71399349  0.67862198  0.08150168  1  0  0.096209  0  0.992172  0  0  0.0997  0  1.06784  0  0  0.102419  0  1.064201  0  0.187609  0  0.128914  0.097732  0  1.070399  0
H  H57  1  0.28600764  0.82137687  0.58150168  1  0  0.096172  0  0.992202  0  0  0.099664  0  1.067868  0  0  0.102383  0  1.064228  0  0.187592  0  0.128899  0.097696  0  1.070427  0
C  C58  1  0.81454662  0.25991325  0.55297550  1  0  0.156792  0  3.656508  0  0  0.09695  0  3.925285  0  0  0.110166  0  3.938126  0  0.929162  0  0.138346  0.088459  0  3.916177  0
C  C59  1  0.18545243  0.24008449  0.05297292  1  0  0.156906  0  3.656394  0  0  0.097037  0  3.925203  0  0  0.110251  0  3.938041  0  0.929172  0  0.13839  0.088542  0  3.916103  0
C  C60  1  0.18545419  0.74008561  0.44702554  1  0  0.156846  0  3.65645  0  0  0.096997  0  3.925232  0  0  0.110213  0  3.938072  0  0.929159  0  0.138378  0.088507  0  3.916122  0
C  C61  1  0.81454627  0.75991550  0.94702554  1  0  0.156835  0  3.656476  0  0  0.096971  0  3.925277  0  0  0.110185  0  3.938119  0  0.929184  0  0.138395  0.08848  0  3.916171  0
C  C62  1  0.00042793  0.45809052  0.58646221  1  0  -0.069214  0  3.686186  0  0  -0.108873  0  3.945713  0  0  -0.106805  0  3.963649  0  0.365144  0  -0.003604  -0.110077  0  3.933644  0
C  C63  1  0.99956901  0.04190835  0.08646118  1  0  -0.069249  0  3.686148  0  0  -0.108934  0  3.945676  0  0  -0.106865  0  3.963612  0  0.36501  0  -0.003607  -0.110137  0  3.933607  0
C  C64  1  0.99957407  0.54190834  0.41353779  1  0  -0.069297  0  3.68618  0  0  -0.108942  0  3.945706  0  0  -0.106873  0  3.96364  0  0.365119  0  -0.003617  -0.110145  0  3.933637  0
C  C65  1  0.00042639  0.95809276  0.91353779  1  0  -0.069261  0  3.686213  0  0  -0.108905  0  3.945736  0  0  -0.106839  0  3.963672  0  0.365109  0  -0.00363  -0.110109  0  3.933668  0
C  C66  1  0.07314569  0.33908422  0.57412742  1  0  -0.008942  0  3.766954  0  0  -0.041061  0  4.034328  0  0  -0.038465  0  4.052891  0  0.312344  0  -0.008911  -0.042816  0  4.021913  0
C  C67  1  0.92685363  0.16091465  0.07412587  1  0  -0.008874  0  3.76698  0  0  -0.041006  0  4.034368  0  0  -0.038402  0  4.052924  0  0.31248  0  -0.008904  -0.042763  0  4.021952  0
C  C68  1  0.92685513  0.66091464  0.42587258  1  0  -0.00891  0  3.766944  0  0  -0.041034  0  4.03431  0  0  -0.038432  0  4.052867  0  0.312346  0  -0.008947  -0.04279  0  4.021896  0
C  C69  1  0.07314441  0.83908759  0.92587310  1  0  -0.008911  0  3.766962  0  0  -0.041032  0  4.03432  0  0  -0.038428  0  4.052878  0  0.312347  0  -0.008939  -0.042787  0  4.021906  0
C  C70  1  0.70874164  0.49205454  0.57829507  1  0  -0.051807  0  3.642163  0  0  -0.116501  0  3.888385  0  0  -0.112157  0  3.898266  0  0.249102  0  -0.051814  -0.1195  0  3.881775  0
C  C71  1  0.29125622  0.00794321  0.07829404  1  0  -0.051896  0  3.64222  0  0  -0.116518  0  3.888334  0  0  -0.11218  0  3.898229  0  0.249038  0  -0.051823  -0.119514  0  3.88172  0
C  C72  1  0.29125825  0.50794545  0.42170647  1  0  -0.051801  0  3.642213  0  0  -0.116508  0  3.888443  0  0  -0.112171  0  3.898341  0  0.249093  0  -0.051813  -0.119504  0  3.881827  0
C  C73  1  0.70874102  0.99205566  0.92170544  1  0  -0.0518  0  3.642147  0  0  -0.11649  0  3.888414  0  0  -0.112142  0  3.898281  0  0.249111  0  -0.051777  -0.119488  0  3.881806  0
C  C74  1  0.65701777  0.50261547  0.65220170  1  0  0.07975  0  3.771039  0  0  0.100081  0  4.011594  0  0  0.099654  0  4.035378  0  -0.006349  0  -0.014803  0.100412  0  3.995276  0
C  C75  1  0.34298124  0.99738452  0.15220067  1  0  0.079754  0  3.771196  0  0  0.100076  0  4.011732  0  0  0.099649  0  4.035514  0  -0.006445  0  -0.014798  0.100407  0  3.995415  0
C  C76  1  0.34298304  0.49738340  0.34779881  1  0  0.079719  0  3.771161  0  0  0.100043  0  4.011739  0  0  0.099614  0  4.035525  0  -0.006402  0  -0.014806  0.100374  0  3.995421  0
C  C77  1  0.65701627  0.00261547  0.84779830  1  0  0.079761  0  3.771099  0  0  0.099991  0  4.011795  0  0  0.099563  0  4.035586  0  -0.006402  0  -0.014819  0.100323  0  3.995477  0
C  C78  1  0.74244762  0.61745884  0.69439206  1  0  -0.116477  0  3.73705  0  0  -0.141879  0  3.984749  0  0  -0.14434  0  4.00568  0  -0.053766  0  -0.093767  -0.138949  0  3.968731  0
C  C79  1  0.25755456  0.88254452  0.19439051  1  0  -0.116314  0  3.737134  0  0  -0.141718  0  3.984831  0  0  -0.144178  0  4.005767  0  -0.053745  0  -0.093683  -0.138787  0  3.968808  0
C  C80  1  0.25755333  0.38254565  0.30560898  1  0  -0.116435  0  3.737116  0  0  -0.141836  0  3.984813  0  0  -0.144297  0  4.005747  0  -0.053759  0  -0.093732  -0.138905  0  3.968793  0
C  C81  1  0.74244797  0.11745660  0.80560743  1  0  -0.116479  0  3.737145  0  0  -0.141854  0  3.984865  0  0  -0.144315  0  4.005799  0  -0.053718  0  -0.093734  -0.138923  0  3.968846  0
C  C82  1  0.70236522  0.62286873  0.76401651  1  0  -0.063647  0  3.804131  0  0  -0.069514  0  4.049468  0  0  -0.071317  0  4.071817  0  -0.134514  0  -0.091451  -0.068365  0  4.033826  0
C  C83  1  0.29763682  0.87712900  0.26401548  1  0  -0.063637  0  3.804066  0  0  -0.06953  0  4.049409  0  0  -0.071333  0  4.07176  0  -0.13447  0  -0.091438  -0.068371  0  4.033771  0
C  C84  1  0.29763678  0.37713013  0.23598349  1  0  -0.063725  0  3.804094  0  0  -0.069588  0  4.049419  0  0  -0.07139  0  4.071765  0  -0.134499  0  -0.091514  -0.068436  0  4.033782  0
C  C85  1  0.70236373  0.12286874  0.73598349  1  0  -0.06367  0  3.804173  0  0  -0.069529  0  4.049491  0  0  -0.071331  0  4.071838  0  -0.134524  0  -0.091489  -0.068377  0  4.03385  0
C  C86  1  0.57685447  0.51350727  0.79201444  1  0  -0.108539  0  3.71281  0  0  -0.134353  0  3.961916  0  0  -0.136738  0  3.982964  0  -0.012758  0  -0.089582  -0.133186  0  3.947723  0
C  C87  1  0.42315048  0.98649271  0.29201238  1  0  -0.108565  0  3.712854  0  0  -0.134382  0  3.961991  0  0  -0.136768  0  3.98304  0  -0.015317  0  -0.08962  -0.133216  0  3.947791  0
C  C88  1  0.42314899  0.48649272  0.20798659  1  0  -0.108456  0  3.712882  0  0  -0.134267  0  3.962007  0  0  -0.136651  0  3.983053  0  -0.015492  0  -0.089577  -0.1331  0  3.947811  0
C  C89  1  0.57685297  0.01350728  0.70798607  1  0  -0.108487  0  3.712793  0  0  -0.134294  0  3.961918  0  0  -0.136676  0  3.982961  0  -0.012763  0  -0.089597  -0.133127  0  3.947723  0
C  C90  1  0.48876359  0.39930989  0.74987413  1  0  0.072136  0  3.77029  0  0  0.096814  0  4.006045  0  0  0.096109  0  4.031311  0  -0.059676  0  -0.014997  0.096254  0  3.988824  0
C  C91  1  0.51123718  0.10069011  0.24987258  1  0  0.072214  0  3.770172  0  0  0.096865  0  4.005953  0  0  0.09616  0  4.031216  0  -0.057102  0  -0.015009  0.096307  0  3.988734  0
C  C92  1  0.51123867  0.60069010  0.25012639  1  0  0.072142  0  3.770248  0  0  0.096774  0  4.00607  0  0  0.096069  0  4.031333  0  -0.056926  0  -0.015008  0.09622  0  3.98885  0
C  C93  1  0.48876390  0.89930988  0.75012587  1  0  0.072091  0  3.770272  0  0  0.096731  0  4.006079  0  0  0.096025  0  4.031343  0  -0.059657  0  -0.015  0.09617  0  3.988858  0
C  C94  1  0.52886121  0.39489374  0.68005107  1  0  -0.17816  0  3.728768  0  0  -0.205703  0  3.969441  0  0  -0.209937  0  3.991816  0  -0.005793  0  -0.094213  -0.2017  0  3.953458  0
C  C95  1  0.47113837  0.10510625  0.18004849  1  0  -0.178306  0  3.728804  0  0  -0.205856  0  3.969495  0  0  -0.210089  0  3.991866  0  -0.005826  0  -0.09424  -0.201854  0  3.953513  0
C  C96  1  0.47114079  0.60510512  0.31995048  1  0  -0.178206  0  3.728682  0  0  -0.205739  0  3.969376  0  0  -0.209972  0  3.991751  0  -0.005768  0  -0.094198  -0.201734  0  3.953389  0
C  C97  1  0.52885888  0.89489261  0.81994996  1  0  -0.178186  0  3.728802  0  0  -0.205684  0  3.969527  0  0  -0.209918  0  3.991904  0  -0.005778  0  -0.094199  -0.201684  0  3.953546  0
C  C98  1  0.35498952  0.27845565  0.77993294  1  0  -0.047539  0  3.653238  0  0  -0.114829  0  3.900463  0  0  -0.110572  0  3.910827  0  0.253759  0  -0.046775  -0.117202  0  3.893219  0
C  C99  1  0.64501125  0.22154434  0.27993242  1  0  -0.047556  0  3.653195  0  0  -0.114846  0  3.90043  0  0  -0.110589  0  3.910793  0  0.253783  0  -0.046773  -0.117237  0  3.893197  0
C  C100  1  0.64501419  0.72154546  0.22006706  1  0  -0.047501  0  3.653232  0  0  -0.114785  0  3.900473  0  0  -0.110525  0  3.91083  0  0.253726  0  -0.046757  -0.117186  0  3.893264  0
C  C101  1  0.35498838  0.77845452  0.72006706  1  0  -0.047515  0  3.653214  0  0  -0.114781  0  3.900436  0  0  -0.110524  0  3.910802  0  0.253762  0  -0.046765  -0.117161  0  3.893196  0
C  C102  1  0.11474440  0.40664424  0.77828218  1  0  -0.075852  0  3.679876  0  0  -0.112566  0  3.933357  0  0  -0.111182  0  3.950887  0  0.293911  0  -0.004227  -0.11357  0  3.922141  0
C  C103  1  0.88525545  0.09335688  0.27828166  1  0  -0.075892  0  3.679812  0  0  -0.112604  0  3.933284  0  0  -0.111221  0  3.950815  0  0.293725  0  -0.004242  -0.113608  0  3.922067  0
C  C104  1  0.88525642  0.59335462  0.22171834  1  0  -0.075851  0  3.67986  0  0  -0.11258  0  3.933339  0  0  -0.111198  0  3.95087  0  0.293936  0  -0.004257  -0.113584  0  3.922122  0
C  C105  1  0.11474497  0.90664536  0.72171834  1  0  -0.075964  0  3.679784  0  0  -0.112657  0  3.933269  0  0  -0.111274  0  3.950797  0  0.293725  0  -0.004269  -0.113661  0  3.922052  0
C  C106  1  0.02948362  0.46114153  0.82936239  1  0  0.006717  0  3.751953  0  0  -0.023844  0  4.014065  0  0  -0.020701  0  4.032276  0  0.379065  0  -0.004092  -0.026124  0  4.002052  0
C  C107  1  0.97051676  0.03886184  0.32936239  1  0  0.006747  0  3.751936  0  0  -0.02381  0  4.014051  0  0  -0.020667  0  4.032261  0  0.379077  0  -0.004076  -0.026091  0  4.002037  0
C  C108  1  0.97051508  0.53885846  0.17063864  1  0  0.006758  0  3.751949  0  0  -0.023797  0  4.014054  0  0  -0.020654  0  4.032268  0  0.379238  0  -0.004059  -0.026078  0  4.002041  0
C  C109  1  0.02948512  0.96114152  0.67063812  1  0  0.006801  0  3.751905  0  0  -0.023759  0  4.014003  0  0  -0.020615  0  4.032214  0  0.379239  0  -0.004067  -0.026039  0  4.00199  0
C  C110  1  0.20804971  0.35900864  0.88082125  1  0  0.150379  0  3.679684  0  0  0.089158  0  3.950334  0  0  0.102525  0  3.963231  0  0.936043  0  0.133656  0.080479  0  3.941487  0
C  C111  1  0.79195040  0.14099361  0.38082125  1  0  0.150313  0  3.679785  0  0  0.089081  0  3.950473  0  0  0.102439  0  3.963365  0  0.936041  0  0.133612  0.080403  0  3.941625  0
C  C112  1  0.79195137  0.64099135  0.11917926  1  0  0.150343  0  3.679725  0  0  0.089116  0  3.950398  0  0  0.102474  0  3.963289  0  0.936062  0  0.133635  0.080438  0  3.941547  0
C  C113  1  0.20804975  0.85900751  0.61917875  1  0  0.15036  0  3.6797  0  0  0.089148  0  3.950363  0  0  0.102506  0  3.963253  0  0.936037  0  0.133634  0.080469  0  3.941516  0
N  N114  1  0.95592528  0.21637980  0.55303792  1  0  -0.387295  0  3.25466  0  0  -0.312049  0  3.538077  0  0  -0.332876  0  3.556296  0  -1.223745  0  -0.361269  -0.297693  0  3.5253  0
N  N115  1  0.04407430  0.28362020  0.05303585  1  0  -0.387348  0  3.254583  0  0  -0.312098  0  3.538022  0  0  -0.332926  0  3.556242  0  -1.22376  0  -0.36129  -0.297744  0  3.52525  0
N  N116  1  0.04407461  0.78362019  0.44696260  1  0  -0.387356  0  3.254613  0  0  -0.312097  0  3.538021  0  0  -0.332928  0  3.556248  0  -1.223736  0  -0.361267  -0.29774  0  3.525244  0
N  N117  1  0.95592374  0.71638204  0.94696312  1  0  -0.387335  0  3.254644  0  0  -0.312081  0  3.538062  0  0  -0.332908  0  3.556278  0  -1.223704  0  -0.36126  -0.297725  0  3.525285  0
N  N118  1  0.83705273  0.40605452  0.57239309  1  0  -0.055053  0  3.575627  0  0  0.039825  0  3.791082  0  0  0.024613  0  3.818582  0  -1.208823  0  -0.240147  0.049842  0  3.772343  0
N  N119  1  0.16294751  0.09394322  0.07239154  1  0  -0.055033  0  3.575419  0  0  0.039833  0  3.790882  0  0  0.02462  0  3.818381  0  -1.208783  0  -0.240143  0.049851  0  3.772143  0
N  N120  1  0.16294954  0.59394546  0.42760743  1  0  -0.054976  0  3.575546  0  0  0.039898  0  3.791005  0  0  0.024686  0  3.818505  0  -1.208857  0  -0.240149  0.049915  0  3.772265  0
N  N121  1  0.83705119  0.90605677  0.92760743  1  0  -0.055011  0  3.575442  0  0  0.039872  0  3.790885  0  0  0.024661  0  3.818389  0  -1.208869  0  -0.24014  0.049889  0  3.772146  0
N  N122  1  0.22681809  0.34127203  0.81196389  1  0  -0.063313  0  3.578311  0  0  0.032585  0  3.794117  0  0  0.017814  0  3.820299  0  -1.206049  0  -0.244145  0.042335  0  3.776572  0
N  N123  1  0.77318176  0.15872909  0.31196337  1  0  -0.063221  0  3.578273  0  0  0.03268  0  3.794077  0  0  0.017908  0  3.820264  0  -1.206083  0  -0.244111  0.042432  0  3.776536  0
N  N124  1  0.77318299  0.65872795  0.18803663  1  0  -0.063344  0  3.578404  0  0  0.03257  0  3.794198  0  0  0.017798  0  3.820382  0  -1.20627  0  -0.244129  0.042325  0  3.776658  0
N  N125  1  0.22681813  0.84127090  0.68803611  1  0  -0.063249  0  3.578227  0  0  0.032643  0  3.794014  0  0  0.017872  0  3.820199  0  -1.20605  0  -0.244105  0.042393  0  3.77647  0
N  N126  1  0.08869451  0.43031068  0.89294970  1  0  -0.381202  0  3.250889  0  0  -0.308453  0  3.535348  0  0  -0.329249  0  3.552388  0  -1.21122  0  -0.358533  -0.293964  0  3.523404  0
N  N127  1  0.91130561  0.06969157  0.39294970  1  0  -0.38121  0  3.250888  0  0  -0.308471  0  3.535368  0  0  -0.329266  0  3.55241  0  -1.211023  0  -0.358529  -0.293981  0  3.523424  0
N  N128  1  0.91130631  0.56968819  0.10705081  1  0  -0.381183  0  3.250853  0  0  -0.308429  0  3.535307  0  0  -0.329225  0  3.552348  0  -1.211199  0  -0.358525  -0.293939  0  3.523362  0
N  N129  1  0.08869481  0.93031067  0.60705030  1  0  -0.381197  0  3.250877  0  0  -0.308445  0  3.535328  0  0  -0.329241  0  3.552369  0  -1.211197  0  -0.358517  -0.293956  0  3.523383  0
N  N130  1  0.60498410  0.81791396  0.51992107  1  0  0.690574  0  4.155868  0  0  0.723884  0  4.45102  0  0  0.749827  0  4.457046  0  0.825599  0  0.095192  0.718751  0  4.427578  0
N  N131  1  0.39501292  0.68208265  0.01992107  1  0  0.690663  0  4.15548  0  0  0.724011  0  4.450564  0  0  0.749967  0  4.456589  0  0.825659  0  0.095228  0.71881  0  4.427216  0
N  N132  1  0.39501644  0.18208378  0.48007944  1  0  0.690493  0  4.155835  0  0  0.723867  0  4.450901  0  0  0.749835  0  4.456918  0  0.825714  0  0.095167  0.718643  0  4.427583  0
N  N133  1  0.60498551  0.31791622  0.98007841  1  0  0.690608  0  4.155796  0  0  0.724007  0  4.450816  0  0  0.749976  0  4.456823  0  0.825591  0  0.095233  0.718791  0  4.427483  0
O  O134  1  0.73868397  0.86895396  0.55208305  1  0  -0.496443  0  1.791149  0  0  -0.47351  0  2.03234  0  0  -0.49029  0  2.024021  0  -0.585435  0  -0.208149  -0.465506  0  2.032188  0
O  O135  1  0.26131095  0.63104377  0.05208099  1  0  -0.496474  0  1.790959  0  0  -0.473581  0  2.032184  0  0  -0.490354  0  2.02384  0  -0.585427  0  -0.208132  -0.465557  0  2.032057  0
O  O136  1  0.26131658  0.13104378  0.44791849  1  0  -0.496463  0  1.79124  0  0  -0.473521  0  2.03237  0  0  -0.490301  0  2.024026  0  -0.585398  0  -0.208121  -0.465487  0  2.032251  0
O  O137  1  0.73868485  0.36895396  0.94791746  1  0  -0.496427  0  1.791168  0  0  -0.473509  0  2.032312  0  0  -0.490298  0  2.023985  0  -0.585461  0  -0.208117  -0.465479  0  2.032189  0
O  O138  1  0.59007091  0.85108793  0.45731184  1  0  -0.479169  0  1.728567  0  0  -0.475103  0  1.941407  0  0  -0.488042  0  1.935877  0  -0.560407  0  -0.203247  -0.470241  0  1.939584  0
O  O139  1  0.40993166  0.64891205  0.95731184  1  0  -0.479185  0  1.728431  0  0  -0.475146  0  1.941256  0  0  -0.488092  0  1.935731  0  -0.560397  0  -0.203269  -0.470257  0  1.939453  0
O  O140  1  0.40993254  0.14891206  0.54268868  1  0  -0.479107  0  1.728501  0  0  -0.475081  0  1.941322  0  0  -0.488033  0  1.935793  0  -0.56043  0  -0.203233  -0.470181  0  1.939518  0
O  O141  1  0.59007060  0.35108794  0.04268816  1  0  -0.479182  0  1.728507  0  0  -0.475155  0  1.941302  0  0  -0.488105  0  1.935767  0  -0.560404  0  -0.203268  -0.470267  0  1.939509  0
O  O142  1  0.48957262  0.73280753  0.55192468  1  0  -0.470633  0  1.74084  0  0  -0.460159  0  1.952004  0  0  -0.473  0  1.94618  0  -0.545847  0  -0.196668  -0.45509  0  1.950284  0
O  O143  1  0.51042084  0.76718908  0.05192675  1  0  -0.470687  0  1.740783  0  0  -0.460193  0  1.951874  0  0  -0.473046  0  1.946067  0  -0.545921  0  -0.196717  -0.455101  0  1.950179  0
O  O144  1  0.51042555  0.26719021  0.44807480  1  0  -0.470576  0  1.740758  0  0  -0.46014  0  1.951897  0  0  -0.472986  0  1.946063  0  -0.545961  0  -0.196688  -0.455041  0  1.950212  0
O  O145  1  0.48957403  0.23280979  0.94807480  1  0  -0.470663  0  1.740824  0  0  -0.460225  0  1.951952  0  0  -0.473066  0  1.946111  0  -0.54582  0  -0.196719  -0.455127  0  1.950263  0
