# generated using pymatgen
data_ZnH12C10N2O5
_symmetry_space_group_name_H-M   'P 1'
_cell_length_a   5.20928968
_cell_length_b   9.19728572
_cell_length_c   14.71453032
_cell_angle_alpha   84.17476633
_cell_angle_beta   85.34468540
_cell_angle_gamma   79.66541859
_symmetry_Int_Tables_number   1
_chemical_formula_structural   ZnH12C10N2O5
_chemical_formula_sum   'Zn2 H24 C20 N4 O10'
_cell_volume   688.54518710
_cell_formula_units_Z   2
loop_
 _symmetry_equiv_pos_site_id
 _symmetry_equiv_pos_as_xyz
  1  'x, y, z'
loop_
 _atom_site_type_symbol
 _atom_site_label
 _atom_site_symmetry_multiplicity
 _atom_site_fract_x
 _atom_site_fract_y
 _atom_site_fract_z
 _atom_site_occupancy
 _atom_site_hle17_bader_spin_density
 _atom_site_hle17_ddec_charge
 _atom_site_hle17_ddec_spin_density
 _atom_site_hle17_ddec_sum_bond_order
 _atom_site_hle17_magmom
 _atom_site_hse06_10hf_bader_spin_density
 _atom_site_hse06_10hf_ddec_charge
 _atom_site_hse06_10hf_ddec_spin_density
 _atom_site_hse06_10hf_ddec_sum_bond_order
 _atom_site_hse06_10hf_magmom
 _atom_site_hse06_bader_spin_density
 _atom_site_hse06_ddec_charge
 _atom_site_hse06_ddec_spin_density
 _atom_site_hse06_ddec_sum_bond_order
 _atom_site_hse06_magmom
 _atom_site_pbe_bader_spin_density
 _atom_site_pbe_cm5_charge
 _atom_site_pbe_ddec_charge
 _atom_site_pbe_ddec_spin_density
 _atom_site_pbe_ddec_sum_bond_order
 _atom_site_pbe_magmom
Zn  Zn0  1  0.76239874  0.61881222  0.65323103  1  0  1.075412  0  1.758216  0  0  0.883615  0  2.226375  0  0  0.934211  0  2.16753  0  0  0.681604  0.847686  0  2.267286  0
Zn  Zn1  1  0.23760155  0.38118755  0.34676938  1  0  1.075429  0  1.758223  0  0  0.883636  0  2.226383  0  0  0.934232  0  2.167539  0  0  0.681619  0.847707  0  2.267293  0
H  H2  1  0.69845232  0.15560321  0.59865682  1  0  0.110795  0  0.929473  0  0  0.127333  0  0.987396  0  0  0.128932  0  0.987523  0  0  0.105105  0.126149  0  0.987325  0
H  H3  1  0.30154604  0.84439656  0.40134364  1  0  0.110794  0  0.929405  0  0  0.127332  0  0.987338  0  0  0.128929  0  0.987462  0  0  0.105117  0.126146  0  0.987269  0
H  H4  1  0.46258839  0.26003464  0.52862715  1  0  0.110046  0  0.947771  0  0  0.123893  0  1.009801  0  0  0.126235  0  1.009244  0  0  0.100956  0.12212  0  1.010521  0
H  H5  1  0.53741223  0.73996402  0.47137332  1  0  0.110001  0  0.947758  0  0  0.12383  0  1.009817  0  0  0.12617  0  1.009259  0  0  0.100943  0.12206  0  1.010535  0
H  H6  1  0.12126554  0.26023775  0.65593621  1  0  0.060615  0  0.954865  0  0  0.078022  0  1.018587  0  0  0.07848  0  1.019559  0  0  0.086639  0.077644  0  1.017701  0
H  H7  1  0.87873476  0.73976202  0.34406352  1  0  0.060632  0  0.954849  0  0  0.078031  0  1.018569  0  0  0.07849  0  1.019541  0  0  0.086643  0.077653  0  1.017684  0
H  H8  1  0.35426795  0.16948577  0.73304928  1  0  0.063169  0  0.93789  0  0  0.079864  0  0.998782  0  0  0.081427  0  0.998007  0  0  0.0858  0.07875  0  0.999279  0
H  H9  1  0.64573234  0.83051400  0.26695113  1  0  0.063182  0  0.937896  0  0  0.079853  0  0.9988  0  0  0.081416  0  0.998025  0  0  0.085802  0.078741  0  0.999295  0
H  H10  1  0.07465479  0.00175390  0.66951969  1  0  0.115393  0  0.941566  0  0  0.13051  0  1.001804  0  0  0.133074  0  1.000456  0  0  0.101859  0.128755  0  1.00286  0
H  H11  1  0.92534323  0.99824699  0.33048071  1  0  0.11534  0  0.941672  0  0  0.130469  0  1.001894  0  0  0.133032  0  1.00055  0  0  0.101827  0.128723  0  1.002943  0
H  H12  1  0.23259318  0.03344595  0.56188005  1  0  0.111196  0  0.912709  0  0  0.129789  0  0.966596  0  0  0.132094  0  0.96567  0  0  0.102902  0.127929  0  0.967407  0
H  H13  1  0.76740519  0.96655382  0.43811973  1  0  0.1112  0  0.912679  0  0  0.129806  0  0.96656  0  0  0.13211  0  0.965634  0  0  0.102905  0.127946  0  0.967373  0
H  H14  1  0.03359907  0.78462816  0.76329989  1  0  0.093432  0  0.958709  0  0  0.102323  0  1.018651  0  0  0.104834  0  1.016296  0  0  0.122883  0.100408  0  1.020404  0
H  H15  1  0.96640088  0.21537272  0.23670045  1  0  0.093387  0  0.958767  0  0  0.102321  0  1.018661  0  0  0.104829  0  1.016311  0  0  0.12288  0.100403  0  1.020416  0
H  H16  1  0.85447422  0.36218641  0.79627185  1  0  0.091382  0  0.935841  0  0  0.101809  0  0.992307  0  0  0.103934  0  0.990923  0  0  0.125596  0.100115  0  0.993516  0
H  H17  1  0.14552415  0.63781337  0.20372862  1  0  0.091407  0  0.935808  0  0  0.101824  0  0.992283  0  0  0.103948  0  0.9909  0  0  0.125604  0.10013  0  0.993492  0
H  H18  1  0.15524403  0.28606417  0.92611780  1  0  0.120804  0  0.919391  0  0  0.132532  0  0.972303  0  0  0.136097  0  0.971223  0  0  0.119513  0.129933  0  0.973385  0
H  H19  1  0.84475467  0.71393449  0.07388273  1  0  0.120822  0  0.919382  0  0  0.132552  0  0.972294  0  0  0.136116  0  0.971216  0  0  0.119553  0.129953  0  0.973376  0
H  H20  1  0.34807112  0.72612344  0.88919801  1  0  0.124927  0  0.93506  0  0  0.130365  0  0.996529  0  0  0.134563  0  0.994442  0  0  0.117088  0.127374  0  0.998246  0
H  H21  1  0.65192916  0.27387633  0.11080240  1  0  0.124932  0  0.935048  0  0  0.130372  0  0.996514  0  0  0.134569  0  0.994427  0  0  0.117092  0.12738  0  0.99823  0
H  H22  1  0.18436292  0.73439090  0.59296274  1  0  0.425877  0  0.880955  0  0  0.391228  0  0.950679  0  0  0.402535  0  0.934551  0  0  0.288569  0.383146  0  0.962196  0
H  H23  1  0.81563737  0.26560887  0.40703767  1  0  0.425895  0  0.880928  0  0  0.391244  0  0.950654  0  0  0.40255  0  0.934527  0  0  0.288576  0.383162  0  0.962171  0
H  H24  1  0.11170524  0.64015655  0.51502725  1  0  0.432035  0  0.869531  0  0  0.399295  0  0.934716  0  0  0.410943  0  0.918147  0  0  0.289626  0.391035  0  0.946444  0
H  H25  1  0.88829731  0.35984211  0.48497317  1  0  0.432022  0  0.869552  0  0  0.399283  0  0.934735  0  0  0.410928  0  0.918171  0  0  0.289618  0.391023  0  0.946464  0
C  C26  1  0.58854072  0.37860343  0.62892362  1  0  0.691345  0  3.825051  0  0  0.643072  0  4.121744  0  0  0.676292  0  4.115252  0  0  0.206142  0.620316  0  4.125739  0
C  C27  1  0.41145958  0.62139635  0.37107611  1  0  0.691225  0  3.825229  0  0  0.643002  0  4.121858  0  0  0.67622  0  4.115368  0  0  0.20614  0.620246  0  4.125852  0
C  C28  1  0.51786221  0.23904802  0.59997835  1  0  -0.272799  0  3.673306  0  0  -0.305703  0  3.916503  0  0  -0.312356  0  3.925811  0  0  -0.166867  -0.301103  0  3.910021  0
C  C29  1  0.48213967  0.76095286  0.40002195  1  0  -0.27268  0  3.673181  0  0  -0.305594  0  3.916373  0  0  -0.312235  0  3.925666  0  0  -0.16691  -0.300997  0  3.909895  0
C  C30  1  0.30328884  0.17943969  0.66144368  1  0  -0.054801  0  3.721807  0  0  -0.098385  0  3.981683  0  0  -0.097704  0  3.995256  0  0  -0.17324  -0.098399  0  3.971462  0
C  C31  1  0.69671111  0.82056120  0.33855666  1  0  -0.054862  0  3.721833  0  0  -0.098413  0  3.981688  0  0  -0.097734  0  3.995261  0  0  -0.173235  -0.098428  0  3.971471  0
C  C32  1  0.25836421  0.02996430  0.63578925  1  0  -0.278056  0  3.673547  0  0  -0.314476  0  3.925177  0  0  -0.321014  0  3.934277  0  0  -0.166774  -0.309895  0  3.918515  0
C  C33  1  0.74163418  0.97003547  0.36420985  1  0  -0.278005  0  3.673589  0  0  -0.314437  0  3.925212  0  0  -0.320977  0  3.934313  0  0  -0.166746  -0.309865  0  3.918548  0
C  C34  1  0.47578715  0.90175894  0.66039629  1  0  0.696375  0  3.829312  0  0  0.64909  0  4.128464  0  0  0.681376  0  4.123427  0  0  0.207556  0.627102  0  4.130951  0
C  C35  1  0.52420961  0.09823973  0.33960496  1  0  0.696227  0  3.829394  0  0  0.648926  0  4.128575  0  0  0.681214  0  4.123538  0  0  0.207466  0.626938  0  4.131064  0
C  C36  1  0.07162227  0.67559919  0.80079568  1  0  0.156308  0  3.67109  0  0  0.123132  0  3.920903  0  0  0.130875  0  3.938485  0  0  0.058322  0.118203  0  3.909  0
C  C37  1  0.92837577  0.32440169  0.19920404  1  0  0.156354  0  3.671129  0  0  0.12315  0  3.920958  0  0  0.130894  0  3.93854  0  0  0.058337  0.118222  0  3.909052  0
C  C38  1  0.96856717  0.43812692  0.81934444  1  0  0.158632  0  3.670379  0  0  0.122676  0  3.929389  0  0  0.130815  0  3.947192  0  0  0.060897  0.117545  0  3.917069  0
C  C39  1  0.03143313  0.56187285  0.18065529  1  0  0.158577  0  3.670308  0  0  0.122634  0  3.929332  0  0  0.130776  0  3.947132  0  0  0.060871  0.117504  0  3.917011  0
C  C40  1  0.13303539  0.39705150  0.89076048  1  0  -0.149324  0  3.658532  0  0  -0.173636  0  3.913947  0  0  -0.182243  0  3.934709  0  0  -0.065682  -0.168214  0  3.900095  0
C  C41  1  0.86696490  0.60294827  0.10923925  1  0  -0.149291  0  3.658487  0  0  -0.173615  0  3.913898  0  0  -0.182223  0  3.934656  0  0  -0.065712  -0.168194  0  3.900047  0
C  C42  1  0.27375430  0.50055131  0.91642139  1  0  0.202147  0  3.790674  0  0  0.202573  0  4.045776  0  0  0.207441  0  4.068418  0  0  0.108699  0.199698  0  4.030453  0
C  C43  1  0.72624600  0.49944846  0.08357834  1  0  0.202077  0  3.790676  0  0  0.202537  0  4.045745  0  0  0.207407  0  4.068383  0  0  0.108695  0.199662  0  4.03042  0
C  C44  1  0.24031755  0.64352841  0.87087359  1  0  -0.159431  0  3.664931  0  0  -0.178949  0  3.912321  0  0  -0.187541  0  3.933975  0  0  -0.070122  -0.173683  0  3.897977  0
C  C45  1  0.75968275  0.35647136  0.12912614  1  0  -0.15942  0  3.66496  0  0  -0.178942  0  3.912335  0  0  -0.187536  0  3.933992  0  0  -0.070137  -0.173675  0  3.897989  0
N  N46  1  0.94044985  0.57440192  0.77453959  1  0  -0.328109  0  3.284269  0  0  -0.244766  0  3.567378  0  0  -0.264918  0  3.580864  0  0  -0.319259  -0.231167  0  3.557886  0
N  N47  1  0.05954851  0.42559786  0.22546087  1  0  -0.328127  0  3.284241  0  0  -0.24481  0  3.567383  0  0  -0.264962  0  3.580866  0  0  -0.319271  -0.23121  0  3.55789  0
N  N48  1  0.44475532  0.45018166  0.98743242  1  0  -0.139664  0  2.973399  0  0  -0.121015  0  3.259246  0  0  -0.119442  0  3.264215  0  0  -0.133067  -0.122328  0  3.256077  0
N  N49  1  0.55524498  0.54981811  0.01256731  1  0  -0.139577  0  2.973368  0  0  -0.120945  0  3.259207  0  0  -0.119373  0  3.264176  0  0  -0.133021  -0.122258  0  3.256038  0
O  O50  1  0.75316819  0.44458889  0.57522143  1  0  -0.67505  0  2.013105  0  0  -0.590961  0  2.257128  0  0  -0.621025  0  2.243075  0  0  -0.327753  -0.569471  0  2.266561  0
O  O51  1  0.24684079  0.55540755  0.42477964  1  0  -0.67505  0  2.013129  0  0  -0.590974  0  2.257116  0  0  -0.621042  0  2.243068  0  0  -0.327756  -0.569484  0  2.266548  0
O  O52  1  0.49971301  0.43057788  0.70309390  1  0  -0.627895  0  1.957602  0  0  -0.571778  0  2.19353  0  0  -0.59799  0  2.18793  0  0  -0.315011  -0.553444  0  2.196637  0
O  O53  1  0.50027827  0.56942634  0.29690443  1  0  -0.627842  0  1.957802  0  0  -0.571721  0  2.193668  0  0  -0.597932  0  2.188069  0  0  -0.314973  -0.553389  0  2.196775  0
O  O54  1  0.03446217  0.70209843  0.56640437  1  0  -0.839691  0  1.902639  0  0  -0.77002  0  2.128053  0  0  -0.793786  0  2.090286  0  0  -0.581122  -0.753342  0  2.154709  0
O  O55  1  0.96553780  0.29790245  0.43359530  1  0  -0.839709  0  1.902625  0  0  -0.770034  0  2.12803  0  0  -0.793798  0  2.090268  0  0  -0.581124  -0.753357  0  2.154687  0
O  O56  1  0.66367826  0.91607718  0.70382137  1  0  -0.612065  0  1.907933  0  0  -0.566278  0  2.125944  0  0  -0.589107  0  2.117826  0  0  -0.3198  -0.550245  0  2.131143  0
O  O57  1  0.33631978  0.08392370  0.29617835  1  0  -0.611947  0  1.908017  0  0  -0.566166  0  2.126033  0  0  -0.588995  0  2.117918  0  0  -0.319708  -0.550134  0  2.131234  0
O  O58  1  0.44866476  0.77343163  0.63365308  1  0  -0.703022  0  2.11993  0  0  -0.615172  0  2.38809  0  0  -0.647047  0  2.373945  0  0  -0.331077  -0.592636  0  2.397131  0
O  O59  1  0.55133360  0.22656815  0.36634738  1  0  -0.702976  0  2.119904  0  0  -0.615131  0  2.388087  0  0  -0.647005  0  2.373942  0  0  -0.331078  -0.592591  0  2.397125  0
