# generated using pymatgen
data_SnH29C18NO
_symmetry_space_group_name_H-M   'P 1'
_cell_length_a   6.23502012
_cell_length_b   11.15688930
_cell_length_c   13.09946237
_cell_angle_alpha   100.38032591
_cell_angle_beta   91.31802219
_cell_angle_gamma   101.39627323
_symmetry_Int_Tables_number   1
_chemical_formula_structural   SnH29C18NO
_chemical_formula_sum   'Sn2 H58 C36 N2 O2'
_cell_volume   877.03319582
_cell_formula_units_Z   2
loop_
 _symmetry_equiv_pos_site_id
 _symmetry_equiv_pos_as_xyz
  1  'x, y, z'
loop_
 _atom_site_type_symbol
 _atom_site_label
 _atom_site_symmetry_multiplicity
 _atom_site_fract_x
 _atom_site_fract_y
 _atom_site_fract_z
 _atom_site_occupancy
 _atom_site_hle17_bader_spin_density
 _atom_site_hle17_ddec_charge
 _atom_site_hle17_ddec_spin_density
 _atom_site_hle17_ddec_sum_bond_order
 _atom_site_hle17_magmom
 _atom_site_hse06_10hf_bader_spin_density
 _atom_site_hse06_10hf_ddec_charge
 _atom_site_hse06_10hf_ddec_spin_density
 _atom_site_hse06_10hf_ddec_sum_bond_order
 _atom_site_hse06_10hf_magmom
 _atom_site_hse06_bader_spin_density
 _atom_site_hse06_ddec_charge
 _atom_site_hse06_ddec_spin_density
 _atom_site_hse06_ddec_sum_bond_order
 _atom_site_hse06_magmom
 _atom_site_pbe_bader_spin_density
 _atom_site_pbe_cm5_charge
 _atom_site_pbe_ddec_charge
 _atom_site_pbe_ddec_spin_density
 _atom_site_pbe_ddec_sum_bond_order
 _atom_site_pbe_magmom
Sn  Sn0  1  0.23506615  0.48401919  0.03435312  1  0  0.764146  0  2.255548  0  0  0.605238  0  2.68111  0  0  0.637049  0  2.670576  0  0  0.469121  0.583883  0  2.68723  0
Sn  Sn1  1  0.76490237  0.51597139  0.96565093  1  0  0.764147  0  2.255923  0  0  0.60522  0  2.68146  0  0  0.637018  0  2.670939  0  0  0.469103  0.583867  0  2.687582  0
H  H2  1  0.60405076  0.48239598  0.70809078  1  0  0.081923  0  1.02214  0  0  0.095753  0  1.084813  0  0  0.098134  0  1.08355  0  0  0.094232  0.094098  0  1.08572  0
H  H3  1  0.39594141  0.51759828  0.29190409  1  0  0.081879  0  1.022118  0  0  0.095709  0  1.084786  0  0  0.098078  0  1.083558  0  0  0.094242  0.094067  0  1.085657  0
H  H4  1  0.32593772  0.09315121  0.62836389  1  0  0.079796  0  0.995033  0  0  0.094216  0  1.057572  0  0  0.09619  0  1.057099  0  0  0.094839  0.092772  0  1.058034  0
H  H5  1  0.67404357  0.90683096  0.37162978  1  0  0.079868  0  0.995535  0  0  0.094257  0  1.05805  0  0  0.096221  0  1.057586  0  0  0.094848  0.092814  0  1.058512  0
H  H6  1  0.83428161  0.38587374  0.47179710  1  0  0.096779  0  0.960204  0  0  0.121022  0  1.017898  0  0  0.122091  0  1.018553  0  0  0.086561  0.120181  0  1.017524  0
H  H7  1  0.16571911  0.61412607  0.52820327  1  0  0.096807  0  0.960237  0  0  0.121048  0  1.017944  0  0  0.122118  0  1.018599  0  0  0.086569  0.120207  0  1.017567  0
H  H8  1  0.87446752  0.43386855  0.60850676  1  0  0.09967  0  0.954276  0  0  0.123603  0  1.011833  0  0  0.124952  0  1.012008  0  0  0.08699  0.12262  0  1.011734  0
H  H9  1  0.12553777  0.56613498  0.39149346  1  0  0.099659  0  0.954242  0  0  0.123589  0  1.011801  0  0  0.124937  0  1.011975  0  0  0.086984  0.122604  0  1.011703  0
H  H10  1  0.65404051  0.47173047  0.54003266  1  0  0.089203  0  0.965001  0  0  0.108671  0  1.03164  0  0  0.110016  0  1.031457  0  0  0.08084  0.107677  0  1.031807  0
H  H11  1  0.34596568  0.52827120  0.45996651  1  0  0.089229  0  0.965026  0  0  0.108718  0  1.031638  0  0  0.110064  0  1.031453  0  0  0.080867  0.107722  0  1.031808  0
H  H12  1  0.51780555  0.21924504  0.38893002  1  0  0.091003  0  0.967466  0  0  0.112931  0  1.030575  0  0  0.11391  0  1.031464  0  0  0.082006  0.112222  0  1.029947  0
H  H13  1  0.48220079  0.78075290  0.61106400  1  0  0.090889  0  0.967605  0  0  0.11281  0  1.03073  0  0  0.11379  0  1.03162  0  0  0.081941  0.112101  0  1.030102  0
H  H14  1  0.32847845  0.29827229  0.45865450  1  0  0.095923  0  0.949271  0  0  0.118136  0  1.008817  0  0  0.119516  0  1.009095  0  0  0.083036  0.117115  0  1.008683  0
H  H15  1  0.67153118  0.70172564  0.54134488  1  0  0.095913  0  0.949329  0  0  0.118139  0  1.008839  0  0  0.119522  0  1.009114  0  0  0.083024  0.117118  0  1.008706  0
H  H16  1  0.32780991  0.14107122  0.46616608  1  0  0.094742  0  0.968583  0  0  0.114688  0  1.033396  0  0  0.11599  0  1.033547  0  0  0.083948  0.113719  0  1.033324  0
H  H17  1  0.67220076  0.85892950  0.53383374  1  0  0.094757  0  0.968503  0  0  0.114665  0  1.033353  0  0  0.115967  0  1.033502  0  0  0.08396  0.113698  0  1.033278  0
H  H18  1  0.83854044  0.17115497  0.48420757  1  0  0.093553  0  0.969992  0  0  0.116643  0  1.031307  0  0  0.117483  0  1.032146  0  0  0.083595  0.115987  0  1.030766  0
H  H19  1  0.16146331  0.82884856  0.51579646  1  0  0.093553  0  0.96998  0  0  0.116665  0  1.031253  0  0  0.117503  0  1.032093  0  0  0.083577  0.116004  0  1.03072  0
H  H20  1  0.65694791  0.08772687  0.56171349  1  0  0.090899  0  0.968585  0  0  0.110965  0  1.034716  0  0  0.112273  0  1.034446  0  0  0.081924  0.10992  0  1.035022  0
H  H21  1  0.34305972  0.91227851  0.43829009  1  0  0.09092  0  0.968489  0  0  0.110957  0  1.034661  0  0  0.112279  0  1.034377  0  0  0.081902  0.109911  0  1.03497  0
H  H22  1  0.87462715  0.21040031  0.62187239  1  0  0.106415  0  0.956686  0  0  0.127138  0  1.017355  0  0  0.128327  0  1.018531  0  0  0.086952  0.126276  0  1.01653  0
H  H23  1  0.12537657  0.78960322  0.37813012  1  0  0.10641  0  0.956713  0  0  0.127136  0  1.017377  0  0  0.128325  0  1.018553  0  0  0.086933  0.126272  0  1.016551  0
H  H24  1  0.97595209  0.87113401  0.73391632  1  0  0.093908  0  0.963765  0  0  0.118972  0  1.021996  0  0  0.119818  0  1.02295  0  0  0.084624  0.118347  0  1.021354  0
H  H25  1  0.02404483  0.12886861  0.26608294  1  0  0.093922  0  0.963804  0  0  0.119008  0  1.021999  0  0  0.119855  0  1.022948  0  0  0.084656  0.118381  0  1.02136  0
H  H26  1  0.24448982  0.93073242  0.69921937  1  0  0.090346  0  0.962404  0  0  0.110493  0  1.027806  0  0  0.111867  0  1.027524  0  0  0.083193  0.10945  0  1.028086  0
H  H27  1  0.75551102  0.06927205  0.30078173  1  0  0.090366  0  0.962327  0  0  0.110495  0  1.02776  0  0  0.111872  0  1.027468  0  0  0.083198  0.109451  0  1.02804  0
H  H28  1  0.01258912  0.96737114  0.63921076  1  0  0.093401  0  0.96498  0  0  0.115897  0  1.025239  0  0  0.116987  0  1.025455  0  0  0.085387  0.115089  0  1.025109  0
H  H29  1  0.98740939  0.03263148  0.36078774  1  0  0.093386  0  0.964954  0  0  0.115877  0  1.025223  0  0  0.116971  0  1.02543  0  0  0.085376  0.11507  0  1.025093  0
H  H30  1  0.09731118  0.94895367  0.91639894  1  0  0.093385  0  0.963753  0  0  0.117428  0  1.023599  0  0  0.118091  0  1.024785  0  0  0.084427  0.116935  0  1.022763  0
H  H31  1  0.90269340  0.05104800  0.08359946  1  0  0.093436  0  0.963696  0  0  0.117445  0  1.023582  0  0  0.11811  0  1.024761  0  0  0.084437  0.116952  0  1.022745  0
H  H32  1  0.19771604  0.10994402  0.96617891  1  0  0.106777  0  0.983947  0  0  0.124823  0  1.049322  0  0  0.126934  0  1.048655  0  0  0.085695  0.123248  0  1.049868  0
H  H33  1  0.80229105  0.89005578  0.03381921  1  0  0.10678  0  0.98397  0  0  0.124821  0  1.049344  0  0  0.126928  0  1.048681  0  0  0.085691  0.123246  0  1.049891  0
H  H34  1  0.36336049  0.02326000  0.88691740  1  0  0.092974  0  0.957602  0  0  0.115896  0  1.018707  0  0  0.116974  0  1.019055  0  0  0.083111  0.115035  0  1.018582  0
H  H35  1  0.63664528  0.97674074  0.11307705  1  0  0.09304  0  0.957643  0  0  0.115972  0  1.01871  0  0  0.117055  0  1.019047  0  0  0.083133  0.115111  0  1.018586  0
H  H36  1  0.76128341  0.00167421  0.84505513  1  0  0.086504  0  0.966727  0  0  0.1088  0  1.03052  0  0  0.109698  0  1.031008  0  0  0.079272  0.108072  0  1.030297  0
H  H37  1  0.23871388  0.99832934  0.15494581  1  0  0.086488  0  0.966731  0  0  0.108781  0  1.030519  0  0  0.109681  0  1.030999  0  0  0.079269  0.108051  0  1.030298  0
H  H38  1  0.77348086  0.09277079  0.74635393  1  0  0.095387  0  0.974511  0  0  0.115839  0  1.040873  0  0  0.116588  0  1.042119  0  0  0.081471  0.115199  0  1.040164  0
H  H39  1  0.22651650  0.90723276  0.25365082  1  0  0.095399  0  0.97446  0  0  0.115783  0  1.040898  0  0  0.116527  0  1.042146  0  0  0.081449  0.115144  0  1.040188  0
H  H40  1  0.85328371  0.16580032  0.87718492  1  0  0.112693  0  0.982919  0  0  0.132405  0  1.044847  0  0  0.134413  0  1.044701  0  0  0.086996  0.13087  0  1.045112  0
H  H41  1  0.14671809  0.83420228  0.12281895  1  0  0.112705  0  0.982943  0  0  0.132412  0  1.04486  0  0  0.13442  0  1.044712  0  0  0.086973  0.130875  0  1.045126  0
H  H42  1  0.06884206  0.56403654  0.78769540  1  0  0.081405  0  0.995729  0  0  0.095712  0  1.076242  0  0  0.096144  0  1.07831  0  0  0.080088  0.095294  0  1.075029  0
H  H43  1  0.93115686  0.43596701  0.21230707  1  0  0.081389  0  0.995772  0  0  0.09571  0  1.076265  0  0  0.096138  0  1.078335  0  0  0.080092  0.095291  0  1.075055  0
H  H44  1  0.27153221  0.56101890  0.69479966  1  0  0.109945  0  0.963732  0  0  0.130454  0  1.024414  0  0  0.131671  0  1.024931  0  0  0.088474  0.129513  0  1.024122  0
H  H45  1  0.72846687  0.43898092  0.30519841  1  0  0.109932  0  0.96371  0  0  0.130434  0  1.024406  0  0  0.131657  0  1.024913  0  0  0.088455  0.129493  0  1.024116  0
H  H46  1  0.19647175  0.70422453  0.74789848  1  0  0.105081  0  0.952963  0  0  0.129564  0  1.010217  0  0  0.130373  0  1.010942  0  0  0.089186  0.128957  0  1.00969  0
H  H47  1  0.80352550  0.29577436  0.25210631  1  0  0.10507  0  0.953003  0  0  0.129572  0  1.010234  0  0  0.130381  0  1.010963  0  0  0.089198  0.128965  0  1.009707  0
H  H48  1  0.74476822  0.73741924  0.88654760  1  0  0.112135  0  0.968274  0  0  0.133519  0  1.030092  0  0  0.135525  0  1.0291  0  0  0.091624  0.131876  0  1.031097  0
H  H49  1  0.25523442  0.26258150  0.11345141  1  0  0.112134  0  0.96827  0  0  0.133544  0  1.030073  0  0  0.135533  0  1.029101  0  0  0.091626  0.131899  0  1.031081  0
H  H50  1  0.59980853  0.79293542  0.79365100  1  0  0.105934  0  0.95975  0  0  0.129587  0  1.019436  0  0  0.131009  0  1.019577  0  0  0.0913  0.128505  0  1.019439  0
H  H51  1  0.40019956  0.20706717  0.20634604  1  0  0.105922  0  0.95977  0  0  0.129602  0  1.019441  0  0  0.131024  0  1.019582  0  0  0.091305  0.128521  0  1.019441  0
H  H52  1  0.68697929  0.65096340  0.75682825  1  0  0.102856  0  0.975845  0  0  0.126055  0  1.033804  0  0  0.127393  0  1.033732  0  0  0.087759  0.12503  0  1.033966  0
H  H53  1  0.31301535  0.34903736  0.24317147  1  0  0.102861  0  0.975789  0  0  0.126077  0  1.033749  0  0  0.127418  0  1.033668  0  0  0.087742  0.12505  0  1.033913  0
H  H54  1  0.44738876  0.74453371  0.01552811  1  0  0.115066  0  0.968744  0  0  0.133069  0  1.032817  0  0  0.134292  0  1.033811  0  0  0.095096  0.132023  0  1.032435  0
H  H55  1  0.55262166  0.25547074  0.98447076  1  0  0.115075  0  0.968752  0  0  0.133076  0  1.032838  0  0  0.134297  0  1.033835  0  0  0.095099  0.132029  0  1.032458  0
H  H56  1  0.16730536  0.70160630  0.96656755  1  0  0.087944  0  1.01423  0  0  0.108668  0  1.081277  0  0  0.109966  0  1.081174  0  0  0.085959  0.107673  0  1.081368  0
H  H57  1  0.83269907  0.29839910  0.03343601  1  0  0.087989  0  1.014279  0  0  0.108722  0  1.08131  0  0  0.11002  0  1.081207  0  0  0.085953  0.107727  0  1.081402  0
H  H58  1  0.34735713  0.82463048  0.92607769  1  0  0.118064  0  0.953289  0  0  0.142342  0  1.008045  0  0  0.143481  0  1.008784  0  0  0.095863  0.141561  0  1.007483  0
H  H59  1  0.65265285  0.17536838  0.07392184  1  0  0.118102  0  0.95327  0  0  0.142373  0  1.008032  0  0  0.143511  0  1.008773  0  0  0.095896  0.141602  0  1.007457  0
C  C60  1  0.26279824  0.30002074  0.84487083  1  0  0.198755  0  3.818413  0  0  0.180884  0  4.076043  0  0  0.190311  0  4.094055  0  0  0.070459  0.17423  0  4.063622  0
C  C61  1  0.73720739  0.69997905  0.15513568  1  0  0.198973  0  3.818251  0  0  0.18107  0  4.07597  0  0  0.19049  0  4.093973  0  0  0.070554  0.174418  0  4.063552  0
C  C62  1  0.38966845  0.40899188  0.81807425  1  0  0.07159  0  3.849345  0  0  0.072579  0  4.088734  0  0  0.074534  0  4.114387  0  0  0.044922  0.071377  0  4.071409  0
C  C63  1  0.61034003  0.59099860  0.18192396  1  0  0.071647  0  3.848904  0  0  0.072515  0  4.088467  0  0  0.074472  0  4.114119  0  0  0.044855  0.071306  0  4.071149  0
C  C64  1  0.49953506  0.39949303  0.72547751  1  0  -0.219331  0  3.827761  0  0  -0.247081  0  4.078096  0  0  -0.250724  0  4.101078  0  0  -0.113714  -0.244563  0  4.062506  0
C  C65  1  0.50045925  0.60050681  0.27452282  1  0  -0.219215  0  3.82807  0  0  -0.24691  0  4.078409  0  0  -0.250556  0  4.101387  0  0  -0.1137  -0.244388  0  4.062823  0
C  C66  1  0.47974109  0.28678844  0.65629267  1  0  0.032945  0  3.724465  0  0  0.052418  0  3.955164  0  0  0.051329  0  3.9805  0  0  -0.022979  0.053243  0  3.937863  0
C  C67  1  0.52022763  0.71319471  0.34369496  1  0  0.03289  0  3.72463  0  0  0.052381  0  3.955283  0  0  0.051292  0  3.980617  0  0  -0.023014  0.053207  0  3.937982  0
C  C68  1  0.34405356  0.18167257  0.68216330  1  0  -0.159735  0  3.769057  0  0  -0.189267  0  4.01527  0  0  -0.191437  0  4.037517  0  0  -0.105375  -0.187649  0  4.000034  0
C  C69  1  0.65590917  0.81833294  0.31783846  1  0  -0.160058  0  3.768677  0  0  -0.18956  0  4.014887  0  0  -0.19173  0  4.037118  0  0  -0.105498  -0.187945  0  3.999654  0
C  C70  1  0.23434416  0.18432940  0.77415973  1  0  -0.056213  0  3.647527  0  0  -0.037462  0  3.877066  0  0  -0.040176  0  3.900729  0  0  -0.018861  -0.035555  0  3.860981  0
C  C71  1  0.76565751  0.81566484  0.22582833  1  0  -0.056216  0  3.647204  0  0  -0.037508  0  3.876851  0  0  -0.040195  0  3.900462  0  0  -0.01887  -0.035603  0  3.860768  0
C  C72  1  0.60220783  0.27525228  0.55599288  1  0  0.205517  0  3.591624  0  0  0.242861  0  3.809405  0  0  0.243801  0  3.828982  0  0  -0.014148  0.242158  0  3.796028  0
C  C73  1  0.39778981  0.72475221  0.44400820  1  0  0.205597  0  3.5914  0  0  0.242931  0  3.809165  0  0  0.243873  0  3.828745  0  0  -0.014143  0.242229  0  3.795785  0
C  C74  1  0.74874469  0.39918540  0.54406462  1  0  -0.335669  0  3.678775  0  0  -0.414703  0  3.912547  0  0  -0.417406  0  3.922613  0  0  -0.24297  -0.412583  0  3.90558  0
C  C75  1  0.25125924  0.60081440  0.45593654  1  0  -0.335736  0  3.678717  0  0  -0.414796  0  3.912496  0  0  -0.4175  0  3.922559  0  0  -0.243002  -0.412675  0  3.90553  0
C  C76  1  0.43422774  0.23083472  0.46196740  1  0  -0.335161  0  3.66657  0  0  -0.413934  0  3.901082  0  0  -0.417442  0  3.912473  0  0  -0.242942  -0.411218  0  3.893077  0
C  C77  1  0.56578183  0.76916321  0.53802816  1  0  -0.335015  0  3.666603  0  0  -0.413741  0  3.901086  0  0  -0.417254  0  3.912478  0  0  -0.24284  -0.411028  0  3.893082  0
C  C78  1  0.75129800  0.18029837  0.55623949  1  0  -0.337528  0  3.653543  0  0  -0.4165  0  3.884884  0  0  -0.419638  0  3.895353  0  0  -0.243311  -0.414027  0  3.87768  0
C  C79  1  0.24870256  0.81970516  0.44376528  1  0  -0.337582  0  3.65349  0  0  -0.416548  0  3.884819  0  0  -0.419693  0  3.895277  0  0  -0.243269  -0.414074  0  3.877617  0
C  C80  1  0.09307827  0.06587507  0.80050960  1  0  0.225817  0  3.571627  0  0  0.262689  0  3.789032  0  0  0.26402  0  3.808116  0  0  -0.010697  0.261735  0  3.775914  0
C  C81  1  0.90691835  0.93412662  0.19949256  1  0  0.226049  0  3.571369  0  0  0.262933  0  3.788721  0  0  0.264213  0  3.807963  0  0  -0.010619  0.261988  0  3.77558  0
C  C82  1  0.08202596  0.95288071  0.71277077  1  0  -0.343831  0  3.69491  0  0  -0.424332  0  3.930136  0  0  -0.42713  0  3.940688  0  0  -0.24408  -0.422145  0  3.922826  0
C  C83  1  0.91797413  0.04712191  0.28722698  1  0  -0.343834  0  3.694906  0  0  -0.424332  0  3.930127  0  0  -0.427121  0  3.940667  0  0  -0.244065  -0.422147  0  3.922818  0
C  C84  1  0.19436850  0.03552379  0.89879245  1  0  -0.341139  0  3.649312  0  0  -0.422091  0  3.883575  0  0  -0.425229  0  3.893664  0  0  -0.247904  -0.419567  0  3.876549  0
C  C85  1  0.80563539  0.96447602  0.10120641  1  0  -0.341374  0  3.649401  0  0  -0.422296  0  3.883651  0  0  -0.425428  0  3.893735  0  0  -0.247972  -0.419773  0  3.876624  0
C  C86  1  0.85622840  0.08315781  0.81837179  1  0  -0.3382  0  3.638049  0  0  -0.418628  0  3.868958  0  0  -0.421727  0  3.87898  0  0  -0.248676  -0.416208  0  3.862159  0
C  C87  1  0.14377144  0.91684387  0.18163116  1  0  -0.338222  0  3.637935  0  0  -0.41859  0  3.868849  0  0  -0.421679  0  3.878864  0  0  -0.24864  -0.416173  0  3.862055  0
C  C88  1  0.40108326  0.64237901  0.85505305  1  0  0.375488  0  3.527815  0  0  0.39756  0  3.752664  0  0  0.404263  0  3.770744  0  0  0.071485  0.393145  0  3.740325  0
C  C89  1  0.59892261  0.35762172  0.14494750  1  0  0.375677  0  3.527858  0  0  0.39774  0  3.752703  0  0  0.404444  0  3.770777  0  0  0.071498  0.393322  0  3.74037  0
C  C90  1  0.22456841  0.61581172  0.76572546  1  0  -0.363781  0  3.650878  0  0  -0.443701  0  3.88402  0  0  -0.44733  0  3.894435  0  0  -0.245826  -0.440812  0  3.876681  0
C  C91  1  0.77543648  0.38418621  0.23427771  1  0  -0.36374  0  3.650808  0  0  -0.443671  0  3.883969  0  0  -0.447296  0  3.894384  0  0  -0.245792  -0.440778  0  3.876622  0
C  C92  1  0.62159146  0.70817478  0.82071274  1  0  -0.377846  0  3.632142  0  0  -0.460569  0  3.865395  0  0  -0.464616  0  3.874589  0  0  -0.244831  -0.457716  0  3.859289  0
C  C93  1  0.37841187  0.29182783  0.17928656  1  0  -0.377878  0  3.632125  0  0  -0.460657  0  3.865338  0  0  -0.464689  0  3.874543  0  0  -0.244825  -0.457802  0  3.859234  0
C  C94  1  0.33696004  0.73244925  0.94622642  1  0  -0.383383  0  3.646639  0  0  -0.459298  0  3.871309  0  0  -0.463438  0  3.881159  0  0  -0.243479  -0.456168  0  3.864515  0
C  C95  1  0.66304941  0.26755241  0.05377582  1  0  -0.383533  0  3.646732  0  0  -0.459444  0  3.871374  0  0  -0.463583  0  3.881224  0  0  -0.243505  -0.456327  0  3.864587  0
N  N96  1  0.41774270  0.52385385  0.89338967  1  0  -0.535891  0  2.960551  0  0  -0.417702  0  3.173985  0  0  -0.442035  0  3.192355  0  0  -0.360863  -0.402112  0  3.161575  0
N  N97  1  0.58226657  0.47614315  0.10660880  1  0  -0.536099  0  2.960945  0  0  -0.417877  0  3.174426  0  0  -0.442213  0  3.192797  0  0  -0.360846  -0.402285  0  3.16202  0
O  O98  1  0.17347386  0.30726669  0.93830097  1  0  -0.570175  0  2.160649  0  0  -0.482192  0  2.400006  0  0  -0.507015  0  2.399966  0  0  -0.309765  -0.464652  0  2.39948  0
O  O99  1  0.82652201  0.69272847  0.06170323  1  0  -0.570445  0  2.160623  0  0  -0.482316  0  2.399849  0  0  -0.507133  0  2.39981  0  0  -0.309817  -0.464777  0  2.399329  0
