# generated using pymatgen
data_CoH22C22(N2O3)2
_symmetry_space_group_name_H-M   'P 1'
_cell_length_a   6.61159608
_cell_length_b   8.52083324
_cell_length_c   9.84008841
_cell_angle_alpha   96.12184690
_cell_angle_beta   94.59434587
_cell_angle_gamma   94.59215307
_symmetry_Int_Tables_number   1
_chemical_formula_structural   CoH22C22(N2O3)2
_chemical_formula_sum   'Co1 H22 C22 N4 O6'
_cell_volume   547.22186766
_cell_formula_units_Z   1
loop_
 _symmetry_equiv_pos_site_id
 _symmetry_equiv_pos_as_xyz
  1  'x, y, z'
loop_
 _atom_site_type_symbol
 _atom_site_label
 _atom_site_symmetry_multiplicity
 _atom_site_fract_x
 _atom_site_fract_y
 _atom_site_fract_z
 _atom_site_occupancy
 _atom_site_pbe_cm5_charge
 _atom_site_pbe_ddec_charge
 _atom_site_pbe_ddec_spin_density
 _atom_site_pbe_ddec_sum_bond_order
 _atom_site_pbe_magmom
Co  Co0  1  0.49999884  0.49999850  0.49999978  1  0.657257  0.897106  -2.841145  2.405068  -2.609
H  H1  1  0.20784294  0.67403475  0.86678998  1  0.10182  0.100332  6.8e-05  1.043723  0.0
H  H2  1  0.79216000  0.32596944  0.13320864  1  0.101824  0.100345  6.8e-05  1.043696  0.0
H  H3  1  0.51321106  0.26015736  0.25075213  1  0.117883  0.085684  -0.000139  1.049224  -0.001
H  H4  1  0.48678979  0.73984202  0.74924992  1  0.117881  0.085686  -0.000139  1.049259  -0.001
H  H5  1  0.80232371  0.85781529  0.38124781  1  0.108354  0.114559  -5.7e-05  1.032924  0.0
H  H6  1  0.19767552  0.14218289  0.61875400  1  0.108367  0.114573  -5.7e-05  1.032902  0.0
H  H7  1  0.82996659  0.99332852  0.61986004  1  0.109448  0.115455  -0.000297  0.993882  0.0
H  H8  1  0.17003405  0.00666850  0.38014176  1  0.109412  0.115373  -0.000297  0.993947  0.0
H  H9  1  0.69081103  0.25755474  0.66295052  1  0.115876  0.08531  -0.000357  1.022808  -0.001
H  H10  1  0.30918805  0.74244223  0.33705218  1  0.115872  0.085325  -0.000357  1.022812  -0.001
H  H11  1  0.34849974  0.60996159  0.09593163  1  0.105292  0.110783  -0.000176  1.007698  0.0
H  H12  1  0.65150592  0.39003910  0.90406682  1  0.105268  0.110773  -0.000176  1.007753  0.0
H  H13  1  0.73221479  0.79877638  0.00412287  1  0.09482  0.137949  2.7e-05  1.043944  0.0
H  H14  1  0.26778296  0.20122178  0.99587783  1  0.094817  0.137928  2.7e-05  1.04395  0.0
H  H15  1  0.73142608  0.74331470  0.17447988  1  0.099916  0.15237  -6.3e-05  1.00112  0.0
H  H16  1  0.26856855  0.25668339  0.82552263  1  0.099925  0.152377  -6.4e-05  1.001164  0.0
H  H17  1  0.92586891  0.88080844  0.13529853  1  0.098918  0.148545  6e-06  0.978015  0.0
H  H18  1  0.07412869  0.11918853  0.86470305  1  0.098922  0.14853  6e-06  0.978  0.0
H  H19  1  0.16264873  0.49926092  0.62721600  1  0.29151  0.374868  0.000237  0.965032  0.0
H  H20  1  0.83734952  0.50074201  0.37278318  1  0.291504  0.374839  0.000237  0.965078  0.0
H  H21  1  0.14626223  0.37757450  0.49430037  1  0.283571  0.364399  4.8e-05  0.990712  0.0
H  H22  1  0.85373464  0.62242960  0.50569782  1  0.283588  0.364382  4.9e-05  0.990738  0.0
C  C23  1  0.65666835  0.04901898  0.29473001  1  -0.003395  -0.025007  -0.001972  3.974542  -0.003
C  C24  1  0.34333095  0.95098036  0.70527294  1  -0.003392  -0.024925  -0.001972  3.974471  -0.003
C  C25  1  0.07787568  0.46539886  0.12889246  1  -0.016079  -0.036806  -0.001448  3.979101  -0.003
C  C26  1  0.92212973  0.53459830  0.87110358  1  -0.016094  -0.0368  -0.001448  3.978982  -0.003
C  C27  1  0.11810510  0.59743806  0.92554605  1  -0.082466  -0.089314  0.000768  3.959206  0.0
C  C28  1  0.88190190  0.40256029  0.07445123  1  -0.082409  -0.089291  0.000769  3.95918  0.0
C  C29  1  0.58415162  0.19709544  0.32969388  1  0.056156  0.067258  0.007678  3.9115  0.004
C  C30  1  0.41584768  0.80290390  0.67030908  1  0.056165  0.067224  0.007678  3.911471  0.004
C  C31  1  0.74843159  0.97484782  0.40124779  1  -0.066086  -0.069692  0.008549  3.919014  0.005
C  C32  1  0.25156612  0.02515033  0.59875392  1  -0.066074  -0.069689  0.008549  3.918871  0.005
C  C33  1  0.15837777  0.43116714  0.26817329  1  0.212911  0.562364  0.00418  4.195851  0.002
C  C34  1  0.84162054  0.56883582  0.73182386  1  0.212868  0.562285  0.00418  4.195983  0.002
C  C35  1  0.63632321  0.97533005  0.15089012  1  0.147886  0.271096  -0.000347  3.915478  0.0
C  C36  1  0.36367453  0.02466812  0.84911057  1  0.147897  0.271025  -0.000347  3.915528  0.0
C  C37  1  0.76213067  0.04945014  0.53501682  1  -0.082604  -0.119134  -0.002355  3.991416  -0.004
C  C38  1  0.23786859  0.95054805  0.46498399  1  -0.082569  -0.119043  -0.002355  3.991311  -0.004
C  C39  1  0.68505399  0.19547908  0.55990944  1  0.045515  0.093228  0.005613  3.93407  0.003
C  C40  1  0.31494524  0.80451909  0.44009238  1  0.045506  0.09321  0.005613  3.933956  0.003
C  C41  1  0.19570093  0.56284056  0.05337462  1  -0.082541  -0.09342  0.000408  3.963677  0.0
C  C42  1  0.80430466  0.43715896  0.94662269  1  -0.082559  -0.093447  0.000408  3.963742  0.0
C  C43  1  0.76266383  0.84168773  0.11300294  1  -0.240868  -0.461677  -0.000166  3.939558  0.0
C  C44  1  0.23733843  0.15831049  0.88699909  1  -0.240893  -0.461635  -0.000167  3.939602  0.0
N  N45  1  0.59732650  0.26913003  0.45845970  1  -0.327787  -0.252255  -0.028069  3.572036  -0.048
N  N46  1  0.40267435  0.73086935  0.54154235  1  -0.327804  -0.252283  -0.02807  3.571845  -0.048
N  N47  1  0.50736385  0.03462412  0.06706592  1  -0.215931  -0.226504  -0.000387  3.305557  -0.001
N  N48  1  0.49263559  0.96537643  0.93293616  1  -0.215919  -0.226453  -0.000386  3.305539  -0.001
O  O49  1  0.03442484  0.36537471  0.34265811  1  -0.314993  -0.552803  0.000849  2.217763  -0.001
O  O50  1  0.96557514  0.63463061  0.65734143  1  -0.314996  -0.552783  0.000849  2.217762  -0.001
O  O51  1  0.34617842  0.47310949  0.30519799  1  -0.311638  -0.556808  -0.03608  2.387507  -0.059
O  O52  1  0.65382272  0.52689114  0.69479912  1  -0.31157  -0.556732  -0.036079  2.38767  -0.059
O  O53  1  0.23319509  0.41074721  0.58454422  1  -0.574124  -0.749357  -0.035948  2.158233  -0.056
O  O54  1  0.76680178  0.58925690  0.41545397  1  -0.574154  -0.749325  -0.035948  2.158251  -0.056
