# generated using pymatgen
data_CuH15C23N3(OF)4
_symmetry_space_group_name_H-M   'P 1'
_cell_length_a   8.66748577
_cell_length_b   8.76151981
_cell_length_c   16.39450120
_cell_angle_alpha   97.19380425
_cell_angle_beta   90.00242892
_cell_angle_gamma   119.63805196
_symmetry_Int_Tables_number   1
_chemical_formula_structural   CuH15C23N3(OF)4
_chemical_formula_sum   'Cu2 H30 C46 N6 O8 F8'
_cell_volume   1070.82222199
_cell_formula_units_Z   2
loop_
 _symmetry_equiv_pos_site_id
 _symmetry_equiv_pos_as_xyz
  1  'x, y, z'
loop_
 _atom_site_type_symbol
 _atom_site_label
 _atom_site_symmetry_multiplicity
 _atom_site_fract_x
 _atom_site_fract_y
 _atom_site_fract_z
 _atom_site_occupancy
 _atom_site_hle17_ddec_charge
 _atom_site_hle17_ddec_spin_density
 _atom_site_hle17_ddec_sum_bond_order
 _atom_site_hle17_magmom
 _atom_site_hse06_10hf_bader_charge
 _atom_site_hse06_10hf_bader_spin_density
 _atom_site_hse06_10hf_ddec_charge
 _atom_site_hse06_10hf_ddec_spin_density
 _atom_site_hse06_10hf_ddec_sum_bond_order
 _atom_site_hse06_10hf_magmom
 _atom_site_hse06_ddec_charge
 _atom_site_hse06_ddec_spin_density
 _atom_site_hse06_ddec_sum_bond_order
 _atom_site_hse06_magmom
 _atom_site_pbe_cm5_charge
 _atom_site_pbe_ddec_charge
 _atom_site_pbe_ddec_spin_density
 _atom_site_pbe_ddec_sum_bond_order
 _atom_site_pbe_magmom
Cu  Cu0  1  0.52268185  0.00003605  0.75003070  1  0.766383  0.689008  1.896136  0.501  1.090539  0.622202  0.731063  0.774177  2.289871  0.618  0.822312  0.847316  2.227481  0.711  0.747743  0.677489  0.722498  2.331696  0.557
Cu  Cu1  1  0.47732113  0.99996357  0.24996863  1  0.766204  0.688977  1.896423  0.501  1.090577  0.62219  0.730955  0.774168  2.290111  0.618  0.822156  0.847306  2.227764  0.711  0.747671  0.677469  0.722477  2.331791  0.557
H  H2  1  0.28598814  0.89689858  0.88714251  1  0.092283  0.001108  0.965104  0.002  0.125619  0.002186  0.097005  0.00096  1.031922  0.002  0.09918  0.000665  1.029865  0.001  0.116032  0.095149  0.00119  1.033633  0.002
H  H3  1  0.38913409  0.10307488  0.61285484  1  0.091294  0.001102  0.966425  0.002  0.130202  0.002171  0.096752  0.000957  1.03247  0.002  0.098812  0.000663  1.030546  0.001  0.116154  0.094961  0.001187  1.034104  0.002
H  H4  1  0.71402029  0.10310503  0.11285712  1  0.092236  0.001107  0.965213  0.002  0.12565  0.002186  0.096996  0.00096  1.031984  0.002  0.099176  0.000665  1.029918  0.001  0.116032  0.095143  0.00119  1.033692  0.002
H  H5  1  0.61086382  0.89691692  0.38714024  1  0.091293  0.001102  0.966327  0.002  0.130365  0.002171  0.096741  0.000957  1.032398  0.002  0.098805  0.000663  1.030475  0.001  0.116143  0.094948  0.001188  1.034036  0.002
H  H6  1  0.08152663  0.61183274  0.94049615  1  0.120903  0.00065  0.938233  0.001  0.12684  0.001132  0.128947  0.000587  0.996545  0.001  0.132563  0.000407  0.994333  0.0  0.111827  0.126255  0.00073  0.998345  0.001
H  H7  1  0.46952454  0.38804745  0.55947265  1  0.119981  0.00065  0.938877  0.001  0.14334  0.00112  0.12852  0.000586  0.99642  0.001  0.132146  0.000406  0.994225  0.0  0.111602  0.125807  0.000729  0.998241  0.001
H  H8  1  0.91848131  0.38817219  0.05950357  1  0.120859  0.00065  0.938327  0.001  0.126767  0.001132  0.128897  0.000587  0.996647  0.001  0.132513  0.000407  0.994437  0.0  0.111807  0.126203  0.000729  0.998442  0.001
H  H9  1  0.53048490  0.61195357  0.44052495  1  0.119957  0.000649  0.938844  0.001  0.143306  0.00112  0.128503  0.000586  0.996376  0.001  0.132127  0.000406  0.994183  0.0  0.111604  0.125791  0.000729  0.998195  0.001
H  H10  1  0.09418783  0.33858608  0.88572627  1  0.097988  0.000417  0.946648  0.001  0.118506  0.000178  0.11051  7.4e-05  1.001963  0.0  0.112075  5e-06  1.001779  0.0  0.107599  0.109209  0.000145  1.002421  0.0
H  H11  1  0.75541386  0.66145388  0.61423417  1  0.098202  0.000417  0.945669  0.001  0.113306  0.00018  0.110577  7.4e-05  1.001342  0.0  0.112254  5e-06  1.001006  0.0  0.107494  0.109254  0.000145  1.00183  0.0
H  H12  1  0.90581237  0.66141491  0.11427194  1  0.097968  0.000417  0.946688  0.001  0.118439  0.000178  0.110485  7.4e-05  1.002011  0.0  0.11205  5e-06  1.001826  0.0  0.107581  0.109172  0.000145  1.002486  0.0
H  H13  1  0.24459402  0.33854169  0.38576669  1  0.098231  0.000417  0.945622  0.001  0.113287  0.00018  0.110604  7.4e-05  1.001294  0.0  0.112281  5e-06  1.000957  0.0  0.107496  0.10928  0.000145  1.00178  0.0
H  H14  1  0.31867977  0.36330568  0.78258973  1  0.110135  0.00055  0.954207  0.001  0.095436  0.001035  0.119477  0.000502  1.013528  0.001  0.121748  0.000325  1.014537  0.0  0.105892  0.11772  0.000647  1.013097  0.001
H  H15  1  0.95527828  0.63667722  0.71731715  1  0.1105  0.000549  0.953229  0.001  0.096567  0.001035  0.119294  0.000501  1.013284  0.001  0.121576  0.000325  1.014233  0.0  0.106127  0.117574  0.000646  1.012845  0.001
H  H16  1  0.68132520  0.63669792  0.21740989  1  0.110182  0.00055  0.954145  0.001  0.095451  0.001036  0.119504  0.000502  1.013487  0.001  0.121752  0.000325  1.014521  0.0  0.105902  0.117748  0.000647  1.013058  0.001
H  H17  1  0.04472414  0.36331437  0.28268341  1  0.11055  0.000549  0.953252  0.001  0.096527  0.001035  0.119316  0.000501  1.013338  0.001  0.121598  0.000325  1.014289  0.0  0.106113  0.117595  0.000646  1.0129  0.001
H  H18  1  0.50563621  0.65555635  0.73295574  1  0.086114  0.001166  0.95846  0.002  0.123026  0.002332  0.090071  0.000995  1.028623  0.002  0.091391  0.000672  1.028006  0.001  0.115938  0.088854  0.001242  1.029332  0.002
H  H19  1  0.85008261  0.34459045  0.76702839  1  0.085606  0.001164  0.958902  0.002  0.124947  0.002338  0.089438  0.000994  1.029144  0.001  0.090796  0.000671  1.028487  0.001  0.115715  0.088175  0.001241  1.029908  0.002
H  H20  1  0.49436810  0.34444593  0.26704379  1  0.086099  0.001166  0.958425  0.002  0.123016  0.002332  0.090063  0.000995  1.028585  0.002  0.091385  0.000672  1.027967  0.001  0.115941  0.088845  0.001241  1.02929  0.002
H  H21  1  0.14991391  0.65539855  0.23297014  1  0.08556  0.001163  0.958984  0.002  0.124896  0.002336  0.089398  0.000993  1.029231  0.001  0.09073  0.00067  1.0286  0.001  0.115669  0.088132  0.00124  1.029997  0.002
H  H22  1  0.76349849  0.99112734  0.87550695  1  0.086824  0.000667  0.957522  0.001  0.150025  0.001286  0.087402  0.000516  1.032424  0.001  0.090897  0.000314  1.027884  0.001  0.11169  0.084622  0.000691  1.035924  0.001
H  H23  1  0.77220304  0.00881352  0.62453042  1  0.086482  0.000665  0.958481  0.001  0.147865  0.001283  0.086733  0.000515  1.033364  0.001  0.090298  0.000312  1.028797  0.001  0.111238  0.083886  0.000689  1.036926  0.001
H  H24  1  0.23650397  0.00887354  0.12449430  1  0.08681  0.000666  0.957543  0.001  0.149991  0.001285  0.087394  0.000515  1.032438  0.001  0.090883  0.000313  1.027913  0.001  0.111699  0.084606  0.00069  1.035945  0.001
H  H25  1  0.22779778  0.99118871  0.37547032  1  0.086478  0.000664  0.958565  0.001  0.147819  0.001282  0.086747  0.000514  1.033421  0.001  0.090313  0.000312  1.028856  0.001  0.111243  0.083899  0.000689  1.036987  0.001
H  H26  1  0.05033696  0.98668746  0.88076693  1  0.106739  0.000382  0.952643  0.0  0.097407  0.000678  0.112984  0.00035  1.016317  0.0  0.117111  0.000247  1.01377  0.0  0.104344  0.109923  0.000433  1.018412  0.0
H  H27  1  0.06359206  0.01335658  0.61916319  1  0.106679  0.00038  0.952602  0.0  0.110018  0.000672  0.112979  0.000349  1.015819  0.0  0.117037  0.000247  1.013359  0.0  0.104063  0.109944  0.000432  1.017909  0.0
H  H28  1  0.94966931  0.01331875  0.11923410  1  0.106739  0.000381  0.952628  0.0  0.097587  0.000677  0.112981  0.00035  1.016304  0.0  0.117112  0.000247  1.013747  0.0  0.104354  0.109919  0.000432  1.018397  0.0
H  H29  1  0.93640826  0.98664696  0.38083826  1  0.106641  0.00038  0.952547  0.0  0.109983  0.000671  0.112937  0.000349  1.015777  0.0  0.116994  0.000247  1.013316  0.0  0.104037  0.109896  0.000432  1.017877  0.0
H  H30  1  0.20448561  0.00010036  0.74999149  1  0.108503  -0.000132  0.975606  0.0  0.12211  -0.000205  0.11388  -0.000283  1.045206  0.0  0.117246  -0.000322  1.040541  0.0  0.10685  0.110929  -0.000201  1.049188  0.0
H  H31  1  0.79551785  0.99990715  0.25001026  1  0.10848  -0.000133  0.975648  0.0  0.122104  -0.000206  0.113845  -0.000284  1.045255  0.0  0.117214  -0.000323  1.040587  0.0  0.106841  0.110891  -0.000201  1.049247  0.0
C  C32  1  0.58691889  0.25695616  0.89586079  1  0.672732  -0.005005  3.93019  -0.005  1.702447  -0.001215  0.627429  -0.001467  4.240501  -0.002  0.664533  -0.001496  4.229588  -0.001  0.200819  0.602277  -0.001253  4.24668  -0.002
C  C33  1  0.33003874  0.74313150  0.60414670  1  0.671344  -0.004992  3.929689  -0.005  1.700966  -0.001206  0.626251  -0.001465  4.239388  -0.002  0.663357  -0.001491  4.228526  -0.001  0.201027  0.601052  -0.001251  4.245545  -0.002
C  C34  1  0.41303556  0.74303179  0.10413035  1  0.672645  -0.005004  3.930728  -0.005  1.702443  -0.001216  0.627496  -0.001468  4.240774  -0.002  0.664604  -0.001494  4.229847  -0.001  0.200727  0.602346  -0.001252  4.24695  -0.002
C  C35  1  0.66994271  0.25687582  0.39586052  1  0.671332  -0.004993  3.93011  -0.005  1.700643  -0.001206  0.62622  -0.001465  4.239822  -0.002  0.663322  -0.001491  4.228963  -0.001  0.200945  0.601023  -0.00125  4.245973  -0.002
C  C36  1  0.54244597  0.38203107  0.95015299  1  -0.201612  0.005913  3.770332  0.006  0.14311  0.004887  -0.205124  0.003318  4.037293  0.004  -0.209923  0.002054  4.050802  0.003  -0.027338  -0.202192  0.004558  4.028523  0.005
C  C37  1  0.16049698  0.61804526  0.54981087  1  -0.201846  0.005887  3.774207  0.006  0.069249  0.004895  -0.204811  0.00331  4.038759  0.004  -0.209681  0.00205  4.052434  0.003  -0.027695  -0.201674  0.004546  4.029707  0.005
C  C38  1  0.45754549  0.61796860  0.04984512  1  -0.201618  0.005906  3.770283  0.006  0.142486  0.004888  -0.205199  0.003319  4.037157  0.004  -0.209998  0.002053  4.050655  0.003  -0.027334  -0.202251  0.004558  4.02836  0.005
C  C39  1  0.83950396  0.38195030  0.45019059  1  -0.201775  0.005897  3.773945  0.006  0.06931  0.004893  -0.204697  0.003309  4.038465  0.004  -0.209564  0.002051  4.052138  0.003  -0.027616  -0.201548  0.004546  4.029389  0.005
C  C40  1  0.39690978  0.31976170  0.99831858  1  0.19408  0.000423  3.780871  0.0  0.474152  0.000622  0.155909  0.000344  4.087543  0.0  0.165831  0.000108  4.094589  0.0  0.086916  0.148987  0.000631  4.083156  0.001
C  C41  1  0.07701406  0.68023616  0.50172275  1  0.192584  0.000422  3.784672  0.0  0.468087  0.00062  0.155735  0.000341  4.088377  0.0  0.165612  0.000107  4.095505  0.0  0.086917  0.148744  0.000624  4.08396  0.001
C  C42  1  0.60308361  0.68023260  0.00168096  1  0.194231  0.000433  3.780632  0.0  0.474797  0.000621  0.156114  0.000344  4.087266  0.0  0.166075  0.00011  4.094278  0.0  0.087068  0.14918  0.000632  4.082888  0.001
C  C43  1  0.92298611  0.31975552  0.49827537  1  0.192421  0.000412  3.784604  0.0  0.468066  0.000621  0.155543  0.000342  4.088339  0.0  0.165419  0.000107  4.095463  0.0  0.086828  0.14855  0.000625  4.083924  0.001
C  C44  1  0.35525793  0.43450763  0.04701877  1  0.192259  0.000133  3.799901  0.0  0.518669  0.000734  0.155739  0.000374  4.106162  0.0  0.165157  0.000167  4.113424  0.0  0.08757  0.149123  0.000603  4.101669  0.001
C  C45  1  0.92052530  0.56542173  0.45306627  1  0.188726  0.000126  3.804573  0.0  0.600842  0.000709  0.155621  0.000375  4.106828  0.0  0.165027  0.000164  4.11418  0.0  0.088004  0.14894  0.000604  4.102301  0.001
C  C46  1  0.64473623  0.56549051  0.95298471  1  0.192288  0.000121  3.799952  0.0  0.517674  0.000734  0.155686  0.000374  4.106282  0.0  0.165109  0.000165  4.113517  0.0  0.087556  0.14907  0.000601  4.101803  0.001
C  C47  1  0.07947835  0.43457924  0.54693255  1  0.188731  0.000137  3.804611  0.0  0.600804  0.000708  0.155659  0.000375  4.106849  0.0  0.165066  0.000164  4.114201  0.0  0.088003  0.148981  0.000603  4.102325  0.001
C  C48  1  0.28604140  0.77426337  0.86557590  1  0.116665  -0.011215  3.662364  -0.007  0.383634  -0.001086  0.089942  -0.001656  3.911103  -0.001  0.09816  -0.0036  3.931292  -0.002  0.044705  0.084706  -0.000179  3.898283  0.001
C  C49  1  0.51176437  0.22573959  0.63441350  1  0.117473  -0.011202  3.661734  -0.007  0.509841  -0.001363  0.090406  -0.001652  3.910803  -0.001  0.098717  -0.003593  3.930939  -0.002  0.04479  0.085121  -0.000173  3.897995  0.001
C  C50  1  0.71396536  0.22574152  0.13442504  1  0.116695  -0.011219  3.662641  -0.007  0.383645  -0.001088  0.089945  -0.001657  3.911373  -0.001  0.098165  -0.003601  3.931555  -0.002  0.044689  0.084703  -0.00018  3.898566  0.001
C  C51  1  0.48823070  0.77425344  0.36558411  1  0.117425  -0.011204  3.661772  -0.007  0.509833  -0.001362  0.090357  -0.001651  3.910867  -0.001  0.09866  -0.003594  3.931007  -0.002  0.044776  0.085077  -0.000173  3.898075  0.001
C  C52  1  0.17345094  0.61571401  0.89463379  1  -0.098645  0.011958  3.71261  0.013  0.074351  0.006776  -0.110705  0.004597  3.961944  0.006  -0.117499  0.004062  3.982037  0.005  -0.076873  -0.106466  0.005007  3.948717  0.006
C  C53  1  0.55760561  0.38426635  0.60534887  1  -0.098177  0.011946  3.712056  0.013  -0.086247  0.007062  -0.109916  0.004592  3.960516  0.006  -0.116737  0.004057  3.980658  0.005  -0.076248  -0.105656  0.005001  3.947261  0.006
C  C54  1  0.82655386  0.38428694  0.10536564  1  -0.098604  0.01196  3.712704  0.013  0.07432  0.006777  -0.11065  0.004598  3.962014  0.006  -0.117445  0.004063  3.98211  0.005  -0.076871  -0.10641  0.005006  3.948779  0.006
C  C55  1  0.44239605  0.61573064  0.39464965  1  -0.098096  0.011947  3.71205  0.013  -0.086336  0.007062  -0.109823  0.004592  3.960473  0.006  -0.116639  0.004057  3.980615  0.005  -0.076241  -0.105566  0.005001  3.947218  0.006
C  C56  1  0.18246266  0.46452536  0.86450048  1  -0.008702  -0.014731  3.718606  -0.01  -0.055363  -0.004352  -0.027054  -0.004827  3.966095  -0.003  -0.02391  -0.00552  3.986832  -0.003  -0.065648  -0.029099  -0.004238  3.952264  -0.002
C  C57  1  0.71776108  0.53549751  0.63545806  1  -0.008651  -0.014733  3.717439  -0.01  -0.053549  -0.004357  -0.026983  -0.00483  3.965027  -0.003  -0.023918  -0.005522  3.985768  -0.003  -0.065581  -0.029004  -0.004241  3.951217  -0.002
C  C58  1  0.81753934  0.53547692  0.13549905  1  -0.008628  -0.014733  3.718773  -0.01  -0.055342  -0.004352  -0.026978  -0.004827  3.966234  -0.003  -0.023833  -0.00552  3.986967  -0.003  -0.065605  -0.029014  -0.004238  3.95241  -0.002
C  C59  1  0.28224156  0.46449680  0.36454087  1  -0.008648  -0.014733  3.717488  -0.01  -0.053615  -0.004356  -0.026971  -0.00483  3.965038  -0.003  -0.023908  -0.005522  3.985781  -0.003  -0.065513  -0.028989  -0.00424  3.951222  -0.002
C  C60  1  0.30527579  0.47740274  0.80686347  1  -0.120026  0.010892  3.732709  0.012  0.019549  0.005885  -0.129932  0.003918  3.979768  0.005  -0.13816  0.003533  4.002964  0.004  -0.083539  -0.124552  0.00424  3.964269  0.005
C  C61  1  0.82777239  0.52262072  0.69306551  1  -0.120088  0.010884  3.731352  0.012  0.028364  0.005907  -0.129976  0.003915  3.979415  0.005  -0.13819  0.003529  4.002663  0.004  -0.083901  -0.124652  0.004237  3.963874  0.005
C  C62  1  0.69472558  0.52259827  0.19313413  1  -0.120104  0.010893  3.73278  0.012  0.019508  0.005885  -0.129992  0.003918  3.979834  0.005  -0.138202  0.003532  4.003041  0.004  -0.083546  -0.124618  0.00424  3.964338  0.005
C  C63  1  0.17222772  0.47737086  0.30693565  1  -0.120214  0.010885  3.731643  0.012  0.028026  0.005907  -0.130079  0.003915  3.979693  0.005  -0.138293  0.003529  4.002938  0.004  -0.083967  -0.12475  0.004237  3.964139  0.005
C  C64  1  0.41213004  0.64002078  0.77989771  1  0.115491  -0.012664  3.685217  -0.008  0.436504  -0.002319  0.086172  -0.003042  3.938266  -0.002  0.095063  -0.00493  3.958076  -0.003  0.04132  0.080558  -0.001598  3.925385  -0.001
C  C65  1  0.77205736  0.36006461  0.72008652  1  0.115818  -0.012646  3.685076  -0.008  0.454151  -0.002355  0.08689  -0.003037  3.938181  -0.002  0.095734  -0.004921  3.957943  -0.003  0.04155  0.081325  -0.001596  3.92536  -0.001
C  C66  1  0.58787247  0.35998021  0.22010049  1  0.115537  -0.012668  3.684995  -0.008  0.436075  -0.002318  0.086216  -0.003042  3.938046  -0.002  0.095108  -0.00493  3.957842  -0.003  0.041308  0.080612  -0.001598  3.925163  -0.001
C  C67  1  0.22793767  0.63992833  0.27991353  1  0.115853  -0.012647  3.685175  -0.008  0.454639  -0.002355  0.086914  -0.003036  3.938295  -0.002  0.095779  -0.00492  3.958063  -0.003  0.041632  0.081353  -0.001595  3.925479  -0.001
C  C68  1  0.83388879  0.99301647  0.82034930  1  0.121069  -0.007819  3.7047  -0.005  0.446627  -0.001965  0.090854  -0.002264  3.967605  -0.001  0.100452  -0.003366  3.983726  -0.002  0.04318  0.084823  -0.0014  3.957118  -0.001
C  C69  1  0.84082273  0.00697219  0.67965484  1  0.120102  -0.007822  3.705477  -0.005  0.44089  -0.00197  0.091098  -0.002264  3.966756  -0.001  0.100572  -0.003367  3.982909  -0.002  0.043242  0.085134  -0.0014  3.956292  -0.001
C  C70  1  0.16611550  0.00698576  0.17965144  1  0.121079  -0.007809  3.704567  -0.005  0.446536  -0.001964  0.090839  -0.002264  3.967475  -0.001  0.10043  -0.003365  3.983604  -0.002  0.043164  0.084818  -0.001401  3.956989  -0.001
C  C71  1  0.15917923  0.99303002  0.32034651  1  0.120038  -0.007811  3.705588  -0.005  0.440869  -0.00197  0.091025  -0.002264  3.966832  -0.001  0.100498  -0.003365  3.98298  -0.002  0.043221  0.085061  -0.0014  3.956375  -0.001
C  C72  1  0.99388770  0.99232358  0.82267257  1  -0.119731  0.006899  3.728545  0.007  0.008973  0.003845  -0.130955  0.002547  3.978095  0.003  -0.138649  0.002329  3.997291  0.003  -0.084756  -0.126032  0.002737  3.965247  0.003
C  C73  1  0.00157983  0.00781565  0.67728845  1  -0.120751  0.006897  3.730624  0.007  -0.007763  0.003837  -0.131132  0.002545  3.978215  0.003  -0.138829  0.002328  3.997591  0.003  -0.084512  -0.126223  0.002736  3.965281  0.003
C  C74  1  0.00611346  0.00768393  0.17732918  1  -0.119751  0.006888  3.728442  0.007  0.009405  0.003844  -0.130967  0.002546  3.977994  0.003  -0.138654  0.002328  3.997179  0.003  -0.084774  -0.126041  0.002735  3.96514  0.003
C  C75  1  0.99842362  0.99219184  0.32271390  1  -0.120706  0.006887  3.730471  0.007  -0.00773  0.003835  -0.131078  0.002544  3.978052  0.003  -0.138771  0.002326  3.997421  0.003  -0.084484  -0.126161  0.002734  3.965119  0.003
C  C76  1  0.07934674  0.00013974  0.74997648  1  -0.00329  -0.009391  3.704674  -0.006  -0.064884  -0.003337  -0.020051  -0.003653  3.949763  -0.002  -0.013514  -0.003991  3.965051  -0.002  -0.06711  -0.02424  -0.003392  3.939713  -0.002
C  C77  1  0.92065674  0.99986780  0.25002465  1  -0.003209  -0.009376  3.704738  -0.006  -0.065468  -0.003336  -0.01996  -0.003651  3.949823  -0.002  -0.013421  -0.003989  3.965106  -0.002  -0.06708  -0.024153  -0.00339  3.939778  -0.002
N  N78  1  0.40189059  0.78555763  0.80857045  1  -0.279929  0.092245  3.337234  0.116  -1.262912  0.093447  -0.229256  0.060866  3.624174  0.082  -0.262484  0.048377  3.650008  0.07  -0.345145  -0.21006  0.067794  3.609142  0.086
N  N79  1  0.61631120  0.21449364  0.69145687  1  -0.280113  0.092281  3.337067  0.116  -1.274757  0.093367  -0.230229  0.060878  3.625206  0.081  -0.263399  0.048388  3.650942  0.07  -0.345746  -0.211077  0.067808  3.61022  0.086
N  N80  1  0.59811421  0.21444332  0.19142897  1  -0.279961  0.09224  3.337375  0.116  -1.262397  0.093444  -0.229317  0.060866  3.624355  0.082  -0.262533  0.048378  3.650182  0.07  -0.34517  -0.210146  0.067794  3.60932  0.086
N  N81  1  0.38368746  0.78550196  0.30854338  1  -0.280075  0.092275  3.337024  0.116  -1.274799  0.093364  -0.230233  0.060877  3.625202  0.081  -0.263387  0.048388  3.65092  0.07  -0.345797  -0.211105  0.067807  3.610225  0.086
N  N82  1  0.75909040  0.99997441  0.75001620  1  -0.321858  0.053399  3.370278  0.069  -1.275069  0.055475  -0.272206  0.035915  3.67002  0.05  -0.300209  0.02878  3.689845  0.044  -0.350749  -0.255914  0.039684  3.658459  0.052
N  N83  1  0.24091156  0.00002779  0.24998515  1  -0.321867  0.053345  3.370305  0.069  -1.274928  0.055436  -0.27219  0.035891  3.670018  0.05  -0.300175  0.028763  3.689827  0.044  -0.35075  -0.255925  0.039655  3.658461  0.052
O  O84  1  0.46150489  0.15170416  0.84057111  1  -0.618561  0.050274  2.042822  0.069  -1.177586  0.047086  -0.591873  0.029491  2.321085  0.045  -0.629753  0.02  2.311262  0.034  -0.328277  -0.565208  0.036938  2.326768  0.053
O  O85  1  0.30988628  0.84831306  0.65948370  1  -0.618308  0.050164  2.043118  0.069  -1.180837  0.046959  -0.591607  0.029432  2.321316  0.045  -0.629428  0.019962  2.311438  0.034  -0.328606  -0.564986  0.036863  2.327066  0.053
O  O86  1  0.53848254  0.84830360  0.15942394  1  -0.61872  0.05034  2.042639  0.069  -1.177081  0.047129  -0.592148  0.029517  2.320823  0.045  -0.630029  0.020018  2.310985  0.034  -0.328344  -0.565495  0.036974  2.326504  0.053
O  O87  1  0.69010701  0.15168103  0.34052131  1  -0.618324  0.050199  2.042861  0.069  -1.18044  0.046982  -0.591587  0.029446  2.321046  0.045  -0.629415  0.019971  2.31118  0.034  -0.328555  -0.564975  0.036883  2.326779  0.053
O  O88  1  0.73406007  0.26819937  0.90824704  1  -0.590788  0.001143  1.890439  0.002  -1.184439  0.001456  -0.562284  0.000512  2.118057  0.002  -0.587208  -0.000387  2.110101  0.001  -0.314984  -0.544068  0.001446  2.12259  0.003
O  O89  1  0.46598612  0.73191739  0.59175620  1  -0.590937  0.001137  1.890356  0.002  -1.186612  0.001449  -0.561683  0.000509  2.116751  0.002  -0.586603  -0.000389  2.108836  0.001  -0.315059  -0.543461  0.00144  2.121268  0.003
O  O90  1  0.26592897  0.73178161  0.09175273  1  -0.590452  0.001132  1.891289  0.002  -1.184705  0.001452  -0.561961  0.00051  2.11877  0.002  -0.586875  -0.00039  2.110814  0.001  -0.314784  -0.543761  0.001438  2.123306  0.003
O  O91  1  0.53402885  0.26809006  0.40824737  1  -0.590752  0.00113  1.891104  0.002  -1.18667  0.001445  -0.561549  0.000506  2.117574  0.002  -0.586467  -0.000391  2.109676  0.001  -0.314984  -0.543342  0.001435  2.122092  0.003
F  F92  1  0.29191338  0.14167080  0.99892476  1  -0.175216  0.000129  1.224361  0.0  -0.649764  0.000242  -0.119793  0.000152  1.386783  0.0  -0.129147  8.6e-05  1.377096  0.0  -0.082206  -0.11309  0.000235  1.393537  0.0
F  F93  1  0.15014682  0.85830916  0.50101725  1  -0.174927  0.000128  1.22476  0.0  -0.648093  0.00024  -0.12015  0.000151  1.387065  0.0  -0.129349  8.6e-05  1.377266  0.0  -0.082132  -0.113452  0.000233  1.393833  0.0
F  F94  1  0.70808109  0.85833256  0.00108155  1  -0.175305  0.00013  1.224031  0.0  -0.649732  0.000242  -0.119859  0.000152  1.38639  0.0  -0.129306  8.7e-05  1.376775  0.0  -0.082308  -0.113154  0.000235  1.393147  0.0
F  F95  1  0.84985335  0.14168255  0.49898027  1  -0.174812  0.000127  1.224862  0.0  -0.648075  0.00024  -0.12003  0.000151  1.387183  0.0  -0.129228  8.6e-05  1.377383  0.0  -0.082058  -0.113333  0.000233  1.393951  0.0
F  F96  1  0.21280686  0.36453527  0.09348419  1  -0.174555  0.0001  1.231557  0.0  -0.644911  0.000203  -0.121181  0.000111  1.39402  0.0  -0.12973  7.5e-05  1.385596  0.0  -0.08707  -0.114919  0.000159  1.399807  0.0
F  F97  1  0.84808947  0.63533891  0.40652100  1  -0.166319  9.9e-05  1.224984  0.0  -0.642915  0.000204  -0.120857  0.000112  1.394557  0.0  -0.1294  7.5e-05  1.386162  0.0  -0.08719  -0.114595  0.00016  1.400347  0.0
F  F98  1  0.78719210  0.63546555  0.90651889  1  -0.174573  9.9e-05  1.231459  0.0  -0.645044  0.000203  -0.121186  0.000111  1.39395  0.0  -0.12973  7.4e-05  1.385519  0.0  -0.087086  -0.11492  0.000159  1.399741  0.0
F  F99  1  0.15191036  0.36465673  0.59347802  1  -0.166298  0.0001  1.225036  0.0  -0.642943  0.000204  -0.120843  0.000111  1.394599  0.0  -0.129387  7.5e-05  1.386204  0.0  -0.08717  -0.114578  0.00016  1.400389  0.0
