# generated using pymatgen
data_MnH20C26S2(N2Cl)2
_symmetry_space_group_name_H-M   'P 1'
_cell_length_a   8.78857142
_cell_length_b   10.88392837
_cell_length_c   14.84237349
_cell_angle_alpha   74.12788272
_cell_angle_beta   82.79234659
_cell_angle_gamma   69.05303376
_symmetry_Int_Tables_number   1
_chemical_formula_structural   MnH20C26S2(N2Cl)2
_chemical_formula_sum   'Mn2 H40 C52 S4 N8 Cl4'
_cell_volume   1274.75029605
_cell_formula_units_Z   2
loop_
 _symmetry_equiv_pos_site_id
 _symmetry_equiv_pos_as_xyz
  1  'x, y, z'
loop_
 _atom_site_type_symbol
 _atom_site_label
 _atom_site_symmetry_multiplicity
 _atom_site_fract_x
 _atom_site_fract_y
 _atom_site_fract_z
 _atom_site_occupancy
 _atom_site_hle17_ddec_charge
 _atom_site_hle17_ddec_spin_density
 _atom_site_hle17_ddec_sum_bond_order
 _atom_site_hle17_magmom
 _atom_site_hse06_10hf_ddec_charge
 _atom_site_hse06_10hf_ddec_spin_density
 _atom_site_hse06_10hf_ddec_sum_bond_order
 _atom_site_hse06_10hf_magmom
 _atom_site_hse06_ddec_charge
 _atom_site_hse06_ddec_spin_density
 _atom_site_hse06_ddec_sum_bond_order
 _atom_site_hse06_magmom
 _atom_site_pbe_cm5_charge
 _atom_site_pbe_ddec_charge
 _atom_site_pbe_ddec_spin_density
 _atom_site_pbe_ddec_sum_bond_order
 _atom_site_pbe_magmom
Mn  Mn0  1  0.50000496  0.49999459  0.50000203  1  0.888154  -4.718419  2.286741  -4.58  0.737043  -4.595392  2.81309  -4.394  0.794157  -4.68267  2.748794  -4.495  0.555914  0.688699  -4.495285  2.864865  -4.282
Mn  Mn1  1  0.00000650  0.99999362  0.49999903  1  0.896953  4.734076  2.232627  4.594  0.740045  4.617144  2.755179  4.413  0.797144  4.699872  2.692673  4.509  0.558018  0.69306  4.52239  2.803753  4.308
H  H2  1  0.85873900  0.45499330  0.41921569  1  0.078922  -0.000197  0.937337  0.0  0.08707  -0.000644  1.000808  0.0  0.088772  -0.000463  0.999879  0.0  0.11438  0.085692  -0.000835  1.001832  0.0
H  H3  1  0.14126566  0.54500602  0.58078266  1  0.078905  -0.000174  0.937341  0.0  0.087067  -0.000643  1.000791  0.0  0.088769  -0.000463  0.999863  0.0  0.114368  0.085688  -0.000835  1.001815  0.0
H  H4  1  0.02250951  0.57979329  0.30824523  1  0.097432  -0.000177  0.985323  0.0  0.103382  -0.000244  1.056229  0.0  0.106339  -0.000165  1.056175  0.0  0.094198  0.101085  -0.000334  1.056759  0.0
H  H5  1  0.97749506  0.42020909  0.69175520  1  0.097454  -0.000168  0.98528  0.0  0.103388  -0.000244  1.056209  0.0  0.106345  -0.000166  1.056155  0.0  0.094193  0.101092  -0.000335  1.056732  0.0
H  H6  1  0.61033065  0.94820028  0.29927918  1  0.108912  -0.000362  0.950905  0.0  0.118312  -0.000462  1.01244  0.0  0.121489  -0.000394  1.012172  0.0  0.100699  0.115722  -0.000522  1.013418  0.0
H  H7  1  0.38966900  0.05180008  0.70072405  1  0.108924  -0.000363  0.950933  0.0  0.118325  -0.000462  1.012458  0.0  0.121502  -0.000394  1.012191  0.0  0.100697  0.11573  -0.000522  1.013436  0.0
H  H8  1  0.46621006  0.80928117  0.41355272  1  0.080734  -0.000263  0.942079  0.0  0.090038  -0.000739  1.003668  0.0  0.091574  -0.000563  1.00301  0.0  0.115103  0.088909  -0.000902  1.004162  0.0
H  H9  1  0.53379123  0.19071512  0.58644785  1  0.0807  -0.000259  0.94206  0.0  0.089982  -0.000739  1.003676  0.0  0.091518  -0.000563  1.003017  0.0  0.115077  0.088853  -0.000902  1.004174  0.0
H  H10  1  0.04819873  0.78921124  0.21602987  1  0.08648  -0.000331  0.949949  0.0  0.098019  -0.00065  1.022906  0.0  0.099634  -0.000517  1.021817  0.0  0.090049  0.096748  -0.000764  1.023798  0.0
H  H11  1  0.95180208  0.21078912  0.78397260  1  0.086481  -0.000328  0.949875  0.0  0.098043  -0.000651  1.022818  0.0  0.099648  -0.000517  1.021739  0.0  0.090057  0.096767  -0.000765  1.023715  0.0
H  H12  1  0.93018513  0.93487194  0.25438564  1  0.09971  -0.000448  0.939437  0.0  0.117062  -0.000629  1.002066  0.0  0.118275  -0.000584  1.001479  0.0  0.09666  0.116067  -0.000636  1.002586  0.0
H  H13  1  0.06981558  0.06513145  0.74561285  1  0.099708  -0.000448  0.939399  0.0  0.117062  -0.000628  1.002055  0.0  0.118277  -0.000584  1.001462  0.0  0.096656  0.116073  -0.000636  1.002567  0.0
H  H14  1  0.77946488  0.75216250  0.12150259  1  0.092833  8e-06  0.957795  0.0  0.102257  -3e-06  1.022061  0.0  0.104799  -1e-06  1.02161  0.0  0.096822  0.100399  -6e-06  1.022626  0.0
H  H15  1  0.22052625  0.24784191  0.87849642  1  0.092815  -3e-06  0.957752  0.0  0.102269  -3e-06  1.021988  0.0  0.104789  -1e-06  1.021559  0.0  0.096831  0.100417  -6e-06  1.022556  0.0
H  H16  1  0.66512033  0.85936128  0.96387515  1  0.099464  1.2e-05  0.96934  0.0  0.109022  2.1e-05  1.034071  0.0  0.111842  1.3e-05  1.033049  0.0  0.097816  0.107574  2.9e-05  1.033983  0.0
H  H17  1  0.33487571  0.14064515  0.03612240  1  0.09944  4e-06  0.969375  0.0  0.108985  2e-05  1.034127  0.0  0.111805  1.3e-05  1.033104  0.0  0.097772  0.107535  2.9e-05  1.034042  0.0
H  H18  1  0.78166588  0.21505399  0.95584640  1  0.100152  -7e-06  0.965872  0.0  0.110071  2e-06  1.029767  0.0  0.112389  2e-06  1.029617  0.0  0.099757  0.108898  5e-06  1.029162  0.0
H  H19  1  0.21834493  0.78494431  0.04415304  1  0.100102  -1e-06  0.965882  0.0  0.110047  2e-06  1.029715  0.0  0.112361  2e-06  1.029569  0.0  0.099697  0.108863  5e-06  1.029143  0.0
H  H20  1  0.89112242  0.10909756  0.11551767  1  0.096215  -3.2e-05  0.941813  0.0  0.105673  -4.6e-05  1.005056  0.0  0.108716  -4e-05  1.003668  0.0  0.100292  0.103426  -3.9e-05  1.006365  0.0
H  H21  1  0.10888806  0.89089871  0.88448154  1  0.096166  -1.8e-05  0.941973  0.0  0.105642  -4.6e-05  1.005198  0.0  0.108684  -4e-05  1.003813  0.0  0.100248  0.103414  -3.9e-05  1.006485  0.0
H  H22  1  0.83908400  0.78666465  0.49534280  1  0.072939  3.8e-05  0.963312  0.0  0.079175  0.000458  1.031849  0.0  0.080649  0.000285  1.031648  0.0  0.109538  0.077981  0.000647  1.032315  0.0
H  H23  1  0.16090696  0.21334588  0.50465969  1  0.07298  6.7e-05  0.963173  0.0  0.079173  0.000458  1.031756  0.0  0.08064  0.000285  1.031566  0.0  0.10956  0.077992  0.000647  1.032192  0.0
H  H24  1  0.68879508  0.64311436  0.59891739  1  0.106858  0.000789  0.993224  0.0  0.112269  0.000901  1.063641  0.0  0.114783  0.000846  1.064061  0.0  0.098586  0.110382  0.001057  1.063616  0.0
H  H25  1  0.31119522  0.35689212  0.40108732  1  0.106816  0.00079  0.993159  0.0  0.112229  0.000902  1.063583  0.0  0.114745  0.000846  1.063995  0.0  0.098557  0.110338  0.001058  1.063579  0.0
H  H26  1  0.71924702  0.81785395  0.82156030  1  0.096158  0.000252  0.978736  0.0  0.10481  0.000295  1.044791  0.0  0.107775  0.000224  1.044161  0.0  0.096864  0.102625  0.000354  1.045496  0.0
H  H27  1  0.28077010  0.18213728  0.17844751  1  0.096166  0.000257  0.978861  0.0  0.104791  0.000294  1.044936  0.0  0.107756  0.000224  1.044306  0.0  0.096855  0.102613  0.000354  1.045626  0.0
H  H28  1  0.86488965  0.95608840  0.70822394  1  0.068435  2.2e-05  0.967781  0.0  0.071937  0.000407  1.042626  0.0  0.074393  0.000234  1.040218  0.0  0.105762  0.070112  0.00061  1.044363  0.0
H  H29  1  0.13512353  0.04390690  0.29178334  1  0.068431  1.2e-05  0.967866  0.0  0.071937  0.000407  1.042697  0.0  0.074395  0.000234  1.040287  0.0  0.105767  0.070117  0.00061  1.044432  0.0
H  H30  1  0.60550019  0.54880488  0.75610096  1  0.099193  0.000385  0.939301  0.0  0.115387  0.000538  1.000972  0.0  0.116817  0.000502  1.000283  0.0  0.093466  0.11443  0.000565  1.0013  0.0
H  H31  1  0.39450430  0.45120050  0.24389213  1  0.099192  0.000381  0.939305  0.0  0.115414  0.000538  1.000972  0.0  0.116836  0.000502  1.00028  0.0  0.093477  0.114457  0.000565  1.001302  0.0
H  H32  1  0.46881272  0.69571043  0.78624671  1  0.097832  0.000338  0.931865  0.0  0.111877  0.000692  0.997589  0.0  0.113593  0.000561  0.996667  0.0  0.097259  0.110625  0.000842  0.998319  0.0
H  H33  1  0.53118046  0.30428889  0.21374845  1  0.097757  0.000314  0.931848  0.0  0.11184  0.000691  0.997582  0.0  0.113549  0.000561  0.996655  0.0  0.097186  0.110588  0.000842  0.998313  0.0
H  H34  1  0.45770253  0.72215529  0.94080292  1  0.088865  3e-06  0.97869  0.0  0.099959  -9e-06  1.041062  0.0  0.102  -8e-06  1.04151  0.0  0.09632  0.098464  -1e-05  1.040785  0.0
H  H35  1  0.54229245  0.27784807  0.05918860  1  0.088885  -1e-06  0.978623  0.0  0.09989  -9e-06  1.041071  0.0  0.101932  -8e-06  1.041521  0.0  0.096321  0.098398  -1e-05  1.04079  0.0
H  H36  1  0.55532556  0.63430017  0.10369198  1  0.102453  5e-06  0.95847  0.0  0.10932  2.9e-05  1.025895  0.0  0.112957  2.7e-05  1.023571  0.0  0.096928  0.106596  3.2e-05  1.027756  0.0
H  H37  1  0.44465901  0.36570627  0.89630239  1  0.102537  1.8e-05  0.958568  0.0  0.109417  2.9e-05  1.025956  0.0  0.113051  2.6e-05  1.023635  0.0  0.096937  0.106691  3.2e-05  1.027816  0.0
H  H38  1  0.97670181  0.33606745  0.01308411  1  0.103496  -1e-05  0.952372  0.0  0.114446  4e-06  1.013159  0.0  0.117013  3e-06  1.012851  0.0  0.100195  0.1125  4e-06  1.013577  0.0
H  H39  1  0.02327957  0.66392988  0.98691639  1  0.103427  -1.1e-05  0.952449  0.0  0.114396  4e-06  1.013213  0.0  0.116969  3e-06  1.012909  0.0  0.100171  0.112452  4e-06  1.013632  0.0
H  H40  1  0.87812044  0.42453343  0.85065625  1  0.091314  3e-06  0.953951  0.0  0.103153  -2.2e-05  1.016764  0.0  0.105862  -1.5e-05  1.015534  0.0  0.097851  0.101186  -2.9e-05  1.017762  0.0
H  H41  1  0.12186439  0.57546388  0.14934265  1  0.091249  -8e-06  0.953937  0.0  0.103105  -2.2e-05  1.016731  0.0  0.105812  -1.5e-05  1.015504  0.0  0.097848  0.101135  -2.9e-05  1.017733  0.0
C  C42  1  0.82187744  0.24555733  0.60067862  1  0.304537  0.025419  3.975818  0.028  0.284604  0.024123  4.281716  0.028  0.308287  0.024541  4.295799  0.028  0.162918  0.267137  0.02389  4.27122  0.028
C  C43  1  0.17813887  0.75442166  0.39931894  1  0.304425  0.025507  3.97527  0.028  0.284485  0.024155  4.281204  0.028  0.308172  0.024579  4.295297  0.028  0.162803  0.267023  0.023922  4.270705  0.028
C  C44  1  0.32561181  0.74746630  0.59734454  1  0.311133  -0.026607  3.991841  -0.029  0.292431  -0.025514  4.296143  -0.029  0.316682  -0.025669  4.310165  -0.028  0.161141  0.27448  -0.025268  4.28537  -0.029
C  C45  1  0.67440171  0.25251678  0.40265846  1  0.31103  -0.026601  3.991748  -0.029  0.29232  -0.025536  4.296094  -0.029  0.316576  -0.025693  4.310116  -0.028  0.161039  0.274365  -0.025289  4.285313  -0.029
C  C46  1  0.80850061  0.56477426  0.39150266  1  0.138736  -0.002236  3.70892  -0.002  0.110325  -0.004115  3.959532  -0.003  0.118327  -0.00348  3.977181  -0.003  0.048145  0.104665  -0.005421  3.94798  -0.004
C  C47  1  0.19150290  0.43522506  0.60849578  1  0.13872  -0.002323  3.708847  -0.002  0.110336  -0.004115  3.959436  -0.003  0.118339  -0.003485  3.977086  -0.003  0.048175  0.104675  -0.005422  3.947892  -0.004
C  C48  1  0.89843440  0.63486512  0.32842724  1  -0.187121  0.000939  3.735105  0.001  -0.205404  0.000241  3.983596  0.0  -0.213595  0.000749  4.004719  0.001  -0.093123  -0.200321  -0.000114  3.969983  0.0
C  C49  1  0.10156944  0.36513624  0.67157210  1  -0.187136  0.000938  3.735142  0.001  -0.205429  0.00024  3.98361  0.0  -0.213621  0.000753  4.004734  0.001  -0.093142  -0.200356  -0.000115  3.969994  0.0
C  C50  1  0.82969033  0.77524397  0.29293498  1  0.162636  -0.001987  3.711535  -0.002  0.180446  -0.003022  3.945747  -0.002  0.185221  -0.002704  3.967416  -0.002  0.012481  0.177286  -0.004179  3.931105  -0.003
C  C51  1  0.17031080  0.22475841  0.70706504  1  0.162573  -0.001993  3.711593  -0.002  0.180475  -0.003023  3.945709  -0.002  0.185251  -0.002708  3.967375  -0.002  0.012503  0.177324  -0.00418  3.931053  -0.003
C  C52  1  0.67054991  0.83896302  0.32394242  1  -0.171746  0.000821  3.707012  0.001  -0.189331  0.000188  3.955027  0.0  -0.196702  0.000618  3.974836  0.001  -0.089091  -0.184764  -8.4e-05  3.942922  0.0
C  C53  1  0.32945245  0.16103631  0.67605812  1  -0.171744  0.000852  3.707089  0.001  -0.189343  0.000189  3.95506  0.0  -0.196715  0.000621  3.97487  0.001  -0.089078  -0.18477  -8.3e-05  3.942945  0.0
C  C54  1  0.58938533  0.76196849  0.38761274  1  0.126485  -0.002712  3.714865  -0.003  0.09784  -0.004639  3.966315  -0.004  0.105176  -0.003793  3.984904  -0.003  0.045869  0.092627  -0.004996  3.953704  -0.004
C  C55  1  0.41061744  0.23802982  0.61238663  1  0.126526  -0.002743  3.715012  -0.003  0.097921  -0.004639  3.966466  -0.004  0.105259  -0.003794  3.985055  -0.003  0.045907  0.092704  -0.004996  3.953867  -0.004
C  C56  1  0.92166110  0.85572297  0.22436190  1  -0.209148  -0.00022  3.716047  0.0  -0.255803  -0.000745  3.95052  0.0  -0.256935  -0.000616  3.961078  0.0  -0.156123  -0.254661  -0.00094  3.943185  0.0
C  C57  1  0.07834126  0.14427636  0.77563797  1  -0.209038  -0.000217  3.715911  0.0  -0.255761  -0.000745  3.95043  0.0  -0.256884  -0.000616  3.960989  0.0  -0.156102  -0.254624  -0.00094  3.943085  0.0
C  C58  1  0.84586570  0.92217838  0.12943740  1  0.102609  6.7e-05  3.729712  0.0  0.122574  -5.3e-05  3.967091  0.0  0.122644  -1e-06  3.991293  0.0  -0.009049  0.122549  -0.000138  3.950457  0.0
C  C59  1  0.15414002  0.07782399  0.87056160  1  0.10259  8.1e-05  3.729751  0.0  0.122557  -5.4e-05  3.967153  0.0  0.122629  1e-06  3.991348  0.0  -0.009063  0.122531  -0.000138  3.950524  0.0
C  C60  1  0.78172336  0.85342091  0.08540051  1  -0.108741  -0.000154  3.741166  0.0  -0.127992  -0.000146  3.990836  0.0  -0.130456  -0.00013  4.012342  0.0  -0.093847  -0.126014  -0.00018  3.97593  0.0
C  C61  1  0.21827556  0.14657842  0.91459826  1  -0.108786  -0.000144  3.741339  0.0  -0.128063  -0.000145  3.990998  0.0  -0.130506  -0.000132  4.012506  0.0  -0.093902  -0.126099  -0.00018  3.976105  0.0
C  C62  1  0.71757686  0.91302323  0.99627527  1  -0.13654  0.000113  3.785206  0.0  -0.158786  7.4e-05  4.036979  0.0  -0.161103  8.2e-05  4.057547  0.0  -0.102147  -0.15726  7.2e-05  4.022469  0.0
C  C63  1  0.28242689  0.08698117  0.00372279  1  -0.136499  0.000153  3.785083  0.0  -0.158714  7.4e-05  4.036848  0.0  -0.161027  8.3e-05  4.057406  0.0  -0.102053  -0.157193  7.2e-05  4.022345  0.0
C  C64  1  0.71879741  0.04291911  0.95006934  1  0.125043  -0.000186  3.81113  0.0  0.138208  -0.000236  4.072382  0.0  0.140439  -0.000197  4.094588  0.0  0.00705  0.136613  -0.000327  4.057398  0.0
C  C65  1  0.28120840  0.95708021  0.04992959  1  0.125174  -0.000208  3.810915  0.0  0.138299  -0.000236  4.072227  0.0  0.140529  -0.000197  4.094433  0.0  0.007046  0.136709  -0.000327  4.057234  0.0
C  C66  1  0.78142928  0.11369413  0.99246496  1  -0.132251  0.000124  3.78668  0.0  -0.1516  5.8e-05  4.033403  0.0  -0.153999  7.3e-05  4.054887  0.0  -0.100487  -0.150008  4.5e-05  4.018353  0.0
C  C67  1  0.21858062  0.88630924  0.00753218  1  -0.132255  0.000128  3.786917  0.0  -0.151602  5.8e-05  4.033671  0.0  -0.153997  7.4e-05  4.055161  0.0  -0.100401  -0.150014  4.5e-05  4.018616  0.0
C  C68  1  0.84306006  0.05331160  0.08211716  1  -0.107256  -0.000128  3.735737  0.0  -0.126643  -0.000196  3.984519  0.0  -0.129117  -0.000167  4.005555  0.0  -0.090739  -0.124822  -0.000248  3.970225  0.0
C  C69  1  0.15694853  0.94668366  0.91788172  1  -0.107214  -0.000186  3.735819  0.0  -0.12662  -0.000195  3.984592  0.0  -0.129091  -0.000168  4.00562  0.0  -0.090714  -0.124817  -0.000248  3.970289  0.0
C  C70  1  0.80920063  0.79088556  0.56824556  1  0.132857  0.002376  3.708979  0.002  0.106016  0.00409  3.955669  0.004  0.113674  0.003462  3.974141  0.003  0.045052  0.100713  0.004471  3.943285  0.004
C  C71  1  0.19079165  0.20911888  0.43175807  1  0.132881  0.00239  3.708888  0.002  0.106078  0.004088  3.955605  0.004  0.113738  0.003466  3.974073  0.003  0.045064  0.100779  0.00447  3.94322  0.004
C  C72  1  0.72581554  0.71073137  0.62655313  1  -0.17296  -0.000715  3.700541  -0.001  -0.189164  2e-05  3.943241  0.0  -0.197637  -0.000424  3.965162  0.0  -0.089826  -0.184054  0.000272  3.929295  0.0
C  C73  1  0.27417960  0.28928017  0.37344884  1  -0.172928  -0.000784  3.700168  -0.001  -0.189139  2.3e-05  3.942874  0.0  -0.197608  -0.000431  3.964792  0.0  -0.089801  -0.184038  0.000273  3.928931  0.0
C  C74  1  0.69051983  0.71784059  0.72002061  1  0.163502  0.002175  3.702236  0.002  0.180996  0.003314  3.935751  0.003  0.186119  0.002996  3.95734  0.002  0.013036  0.177862  0.003975  3.921136  0.003
C  C75  1  0.30947474  0.28216384  0.27998083  1  0.163598  0.002265  3.702392  0.002  0.181122  0.00331  3.935883  0.003  0.18623  0.003005  3.957476  0.002  0.013042  0.177993  0.003973  3.921264  0.003
C  C76  1  0.74159851  0.80812143  0.74957751  1  -0.185556  -0.001028  3.73941  -0.001  -0.202668  -0.000565  3.985079  0.0  -0.210514  -0.000944  4.005859  -0.001  -0.095531  -0.197779  -0.000277  3.971341  0.0
C  C77  1  0.25840950  0.19188097  0.25042805  1  -0.185652  -0.001153  3.739674  -0.001  -0.202735  -0.000562  3.985317  0.0  -0.210581  -0.000953  4.0061  -0.001  -0.095479  -0.197851  -0.000277  3.971586  0.0
C  C78  1  0.82400032  0.88505943  0.68687426  1  0.124217  0.002032  3.741888  0.002  0.094097  0.003616  3.995366  0.003  0.10156  0.00309  4.013899  0.003  0.039945  0.089143  0.004488  3.982615  0.004
C  C79  1  0.17600442  0.11493688  0.31313211  1  0.124165  0.002187  3.741598  0.002  0.09405  0.003614  3.995075  0.003  0.101512  0.003097  4.013604  0.003  0.039872  0.089086  0.004488  3.982335  0.004
C  C80  1  0.59895171  0.63307249  0.78544186  1  -0.206582  0.000122  3.709036  0.0  -0.251432  0.00064  3.9435  0.0  -0.252842  0.000515  3.953914  0.0  -0.153008  -0.250507  0.000766  3.936436  0.0
C  C81  1  0.40104442  0.36693090  0.21455495  1  -0.20658  0.000169  3.709082  0.0  -0.251559  0.00064  3.943624  0.0  -0.252932  0.000515  3.954006  0.0  -0.153027  -0.250631  0.000766  3.936558  0.0
C  C82  1  0.65960981  0.57937533  0.88414008  1  0.09843  5.1e-05  3.749124  0.0  0.116296  7.7e-05  3.987809  0.0  0.116535  6.3e-05  4.011955  0.0  -0.012877  0.116466  9.7e-05  3.971427  0.0
C  C83  1  0.34038337  0.42062399  0.11585643  1  0.09841  4.2e-05  3.749255  0.0  0.116346  7.8e-05  3.987836  0.0  0.116575  6.2e-05  4.011977  0.0  -0.012788  0.11651  9.7e-05  3.97146  0.0
C  C84  1  0.57202309  0.63776391  0.95623819  1  -0.108435  -3e-05  3.741691  0.0  -0.125674  1e-05  3.986782  0.0  -0.128393  1e-06  4.008861  0.0  -0.092616  -0.124077  2.4e-05  3.971722  0.0
C  C85  1  0.42796230  0.36224049  0.04375653  1  -0.108315  -3.1e-05  3.741583  0.0  -0.12549  1e-05  3.986681  0.0  -0.12821  1e-06  4.008764  0.0  -0.092635  -0.123895  2.4e-05  3.971629  0.0
C  C86  1  0.62598516  0.58885748  0.04801566  1  -0.128925  2.9e-05  3.765179  0.0  -0.149004  5.2e-05  4.014105  0.0  -0.151839  3.7e-05  4.035291  0.0  -0.098962  -0.147303  4.6e-05  3.999926  0.0
C  C87  1  0.37400293  0.41114591  0.95197907  1  -0.129296  3.6e-05  3.765449  0.0  -0.149386  5.1e-05  4.014375  0.0  -0.152222  3.7e-05  4.035558  0.0  -0.099071  -0.147681  4.6e-05  4.000194  0.0
C  C88  1  0.77118599  0.47960380  0.06782715  1  0.123689  2.9e-05  3.815611  0.0  0.137051  9e-06  4.077484  0.0  0.139522  1e-06  4.099613  0.0  0.007004  0.13538  2.3e-05  4.062921  0.0
C  C89  1  0.22879784  0.52040163  0.93217085  1  0.123841  -8e-06  3.815704  0.0  0.137221  1e-05  4.07754  0.0  0.139693  1e-06  4.099669  0.0  0.007131  0.135547  2.3e-05  4.062975  0.0
C  C90  1  0.86267628  0.42047857  0.99697197  1  -0.130888  2.5e-05  3.778055  0.0  -0.151811  1.4e-05  4.028186  0.0  -0.154401  1.2e-05  4.049512  0.0  -0.098359  -0.150131  3e-05  4.01382  0.0
C  C91  1  0.13731190  0.57952178  0.00302606  1  -0.130829  3.2e-05  3.77793  0.0  -0.151784  1.4e-05  4.028079  0.0  -0.154384  1.1e-05  4.049413  0.0  -0.098329  -0.150102  3e-05  4.013711  0.0
C  C92  1  0.80615739  0.47075215  0.90583948  1  -0.109574  -3.5e-05  3.736079  0.0  -0.129347  2.3e-05  3.988046  0.0  -0.13153  9e-06  4.008427  0.0  -0.092126  -0.12818  4.1e-05  3.974255  0.0
C  C93  1  0.19383194  0.52924820  0.09415846  1  -0.109468  -4e-06  3.735715  0.0  -0.129265  2.2e-05  3.987679  0.0  -0.131448  1e-05  4.008061  0.0  -0.092121  -0.128094  4.1e-05  3.973887  0.0
S  S94  1  0.70173339  0.37619737  0.63685282  1  -0.323019  -0.018711  2.287064  -0.005  -0.302137  -0.021498  2.644484  -0.001  -0.321723  -0.019967  2.633961  -0.001  -0.103526  -0.285139  -0.02147  2.651166  0.0
S  S95  1  0.29827341  0.62379382  0.36314568  1  -0.322897  -0.018674  2.28735  -0.005  -0.302019  -0.021452  2.64477  -0.001  -0.321598  -0.019925  2.634253  -0.001  -0.103509  -0.285012  -0.021416  2.651421  0.0
S  S96  1  0.23926605  0.89378156  0.62168708  1  -0.330507  0.015205  2.201962  0.004  -0.310763  0.017627  2.543073  0.0  -0.332026  0.016546  2.535263  0.0  -0.115144  -0.292174  0.017236  2.548106  -0.001
S  S97  1  0.76074525  0.10621270  0.37831651  1  -0.330237  0.015176  2.202333  0.004  -0.310506  0.017594  2.543485  0.0  -0.331765  0.016519  2.535675  0.0  -0.115005  -0.291916  0.01719  2.548511  -0.001
N  N98  1  0.90930736  0.14935045  0.57462552  1  -0.527613  0.001341  2.969509  -0.02  -0.47515  0.003313  3.271172  -0.023  -0.498704  0.000387  3.273736  -0.025  -0.38918  -0.457041  0.005354  3.269687  -0.021
N  N99  1  0.09069476  0.85064382  0.42537876  1  -0.527625  0.001262  2.968677  -0.02  -0.475169  0.003281  3.270379  -0.023  -0.498732  0.000343  3.27295  -0.025  -0.389085  -0.457056  0.005321  3.268885  -0.021
N  N100  1  0.38935172  0.64073031  0.57887646  1  -0.541131  -0.00377  2.980259  0.017  -0.489615  -0.006054  3.280186  0.02  -0.514493  -0.002522  3.282842  0.023  -0.397638  -0.47013  -0.008997  3.278991  0.017
N  N101  1  0.61064761  0.35926804  0.42112855  1  -0.541303  -0.003781  2.979856  0.017  -0.489772  -0.006029  3.279767  0.02  -0.514662  -0.002493  3.282444  0.023  -0.397676  -0.47028  -0.008976  3.278569  0.017
N  N102  1  0.65611807  0.62650634  0.42088424  1  -0.331293  -0.028363  3.2832  -0.018  -0.261098  -0.033296  3.549765  -0.02  -0.282415  -0.02967  3.568795  -0.017  -0.320603  -0.24496  -0.036451  3.536402  -0.023
N  N103  1  0.34388667  0.37348993  0.57911472  1  -0.33126  -0.028328  3.283233  -0.018  -0.26115  -0.033299  3.549897  -0.02  -0.282464  -0.02967  3.568916  -0.017  -0.320667  -0.245013  -0.036452  3.536538  -0.023
N  N104  1  0.85863978  0.87691689  0.59733103  1  -0.328675  0.028142  3.287486  0.017  -0.254303  0.031911  3.548541  0.018  -0.276429  0.028593  3.568071  0.015  -0.321072  -0.238144  0.034815  3.534626  0.021
N  N105  1  0.14136512  0.12308755  0.40267570  1  -0.328625  0.028039  3.287568  0.017  -0.254264  0.031911  3.548623  0.018  -0.276389  0.028588  3.568152  0.015  -0.32105  -0.238105  0.034814  3.534713  0.021
Cl  Cl106  1  0.64077469  0.11898741  0.83877770  1  -0.098946  2.3e-05  1.382392  0.0  -0.077427  -0.000151  1.617696  0.0  -0.082287  -7.4e-05  1.615458  0.0  0.013686  -0.073696  -0.000232  1.619052  0.0
Cl  Cl107  1  0.35923218  0.88101496  0.16122188  1  -0.098997  2.7e-05  1.382303  0.0  -0.077463  -0.000151  1.617618  0.0  -0.082324  -7.4e-05  1.615382  0.0  0.013681  -0.073737  -0.000231  1.618974  0.0
Cl  Cl108  1  0.83819811  0.41553784  0.18185062  1  -0.097939  -1e-06  1.335724  0.0  -0.07752  4.7e-05  1.555229  0.0  -0.082372  2.9e-05  1.553625  0.0  0.003234  -0.074053  5.5e-05  1.556807  0.0
Cl  Cl109  1  0.16178269  0.58446659  0.81814713  1  -0.097918  -2e-06  1.335714  0.0  -0.077523  4.7e-05  1.555238  0.0  -0.082375  2.9e-05  1.553633  0.0  0.003201  -0.074055  5.6e-05  1.556817  0.0
