# generated using pymatgen
data_ZnH5C10N5O2
_symmetry_space_group_name_H-M   'P 1'
_cell_length_a   10.82773874
_cell_length_b   13.82292573
_cell_length_c   13.82291622
_cell_angle_alpha   113.42472051
_cell_angle_beta   105.13687467
_cell_angle_gamma   105.13704443
_symmetry_Int_Tables_number   1
_chemical_formula_structural   ZnH5C10N5O2
_chemical_formula_sum   'Zn6 H30 C60 N30 O12'
_cell_volume   1669.74816330
_cell_formula_units_Z   6
loop_
 _symmetry_equiv_pos_site_id
 _symmetry_equiv_pos_as_xyz
  1  'x, y, z'
loop_
 _atom_site_type_symbol
 _atom_site_label
 _atom_site_symmetry_multiplicity
 _atom_site_fract_x
 _atom_site_fract_y
 _atom_site_fract_z
 _atom_site_occupancy
 _atom_site_pbe_bader_charge
 _atom_site_pbe_bader_spin_density
 _atom_site_pbe_cm5_charge
 _atom_site_pbe_ddec_charge
 _atom_site_pbe_ddec_spin_density
 _atom_site_pbe_ddec_sum_bond_order
 _atom_site_pbe_magmom
Zn  Zn0  1  0.79692197  0.32730957  0.24664458  1  1.200503  0  0.72089  0.65212  0  2.49526  0
Zn  Zn1  1  0.55032372  0.75333660  0.08069416  1  1.200301  0  0.721218  0.652932  0  2.494743  0
Zn  Zn2  1  0.46967030  0.91930580  0.67271228  1  1.200099  0  0.72108  0.652801  0  2.492968  0
Zn  Zn3  1  0.05032411  0.08069280  0.75333777  1  1.200315  0  0.721232  0.652972  0  2.494721  0
Zn  Zn4  1  0.96967258  0.67271360  0.91930711  1  1.200083  0  0.721081  0.652788  0  2.492939  0
Zn  Zn5  1  0.29691873  0.24664407  0.32730745  1  1.200483  0  0.720889  0.652092  0  2.495218  0
H  H6  1  0.56509127  0.55822096  0.53240077  1  0.121808  0  0.105216  0.128417  0  1.042806  0
H  H7  1  0.03273504  0.46757113  0.02586107  1  0.114287  0  0.104663  0.127887  0  1.042603  0
H  H8  1  0.00680794  0.97422592  0.44174425  1  0.103734  0  0.104957  0.128574  0  1.041796  0
H  H9  1  0.53273876  0.02586084  0.46757031  1  0.114365  0  0.104671  0.127863  0  1.042641  0
H  H10  1  0.50680911  0.44174376  0.97422546  1  0.103744  0  0.104964  0.128598  0  1.041772  0
H  H11  1  0.06509229  0.53239972  0.55822183  1  0.121805  0  0.105202  0.128382  0  1.042786  0
H  H12  1  0.95876402  0.98670365  0.14648587  1  0.102065  0  0.111714  0.109484  0  1.018768  0
H  H13  1  0.81223529  0.85361792  0.84020163  1  0.096816  0  0.112429  0.1111  0  1.018508  0
H  H14  1  0.97204925  0.15982930  0.01334221  1  0.099058  0  0.111965  0.110803  0  1.018551  0
H  H15  1  0.31223356  0.84020268  0.85361705  1  0.096851  0  0.112444  0.111127  0  1.01851  0
H  H16  1  0.47204999  0.01334237  0.15982811  1  0.099053  0  0.111968  0.110826  0  1.01852  0
H  H17  1  0.45876473  0.14648592  0.98670387  1  0.102054  0  0.111714  0.109479  0  1.018794  0
H  H18  1  0.61981554  0.76894744  0.63867462  1  0.082159  0  0.106314  0.076116  0  1.04888  0
H  H19  1  0.98113701  0.36128081  0.13032328  1  0.091506  0  0.106444  0.076742  0  1.047019  0
H  H20  1  0.85081143  0.86975568  0.23103390  1  0.080543  0  0.106981  0.077404  0  1.049105  0
H  H21  1  0.48113602  0.13032322  0.36128012  1  0.091649  0  0.106441  0.076722  0  1.046995  0
H  H22  1  0.35081047  0.23103255  0.86975632  1  0.080513  0  0.106983  0.077363  0  1.04915  0
H  H23  1  0.11981435  0.63867268  0.76894816  1  0.082056  0  0.106319  0.076141  0  1.048887  0
H  H24  1  0.73049965  0.04484984  0.12634946  1  0.11608  0  0.112251  0.10445  0  1.020518  0
H  H25  1  0.60414428  0.87369566  0.91853134  1  0.092423  0  0.111759  0.103458  0  1.020413  0
H  H26  1  0.68566927  0.08151735  0.95518338  1  0.079748  0  0.112411  0.103887  0  1.021954  0
H  H27  1  0.10414537  0.91853362  0.87369643  1  0.092361  0  0.111756  0.103447  0  1.02039  0
H  H28  1  0.18567036  0.95518205  0.08151618  1  0.079787  0  0.112417  0.103896  0  1.021916  0
H  H29  1  0.23050126  0.12635104  0.04485159  1  0.116106  0  0.112235  0.104415  0  1.020508  0
H  H30  1  0.19985396  0.71642596  0.51243981  1  0.135309  0  0.117318  0.102583  0  1.005342  0
H  H31  1  0.68740479  0.48754435  0.20396155  1  0.12432  0  0.117683  0.103338  0  1.004462  0
H  H32  1  0.48343206  0.79595390  0.28360127  1  0.119136  0  0.117657  0.10287  0  1.004614  0
H  H33  1  0.18740413  0.20396060  0.48754490  1  0.12434  0  0.117697  0.103368  0  1.004384  0
H  H34  1  0.98343196  0.28359999  0.79595455  1  0.119096  0  0.117671  0.102875  0  1.004618  0
H  H35  1  0.69985446  0.51243993  0.71642633  1  0.135313  0  0.117321  0.102575  0  1.005345  0
C  C36  1  0.03227150  0.25799645  0.27077278  1  0.992058  0  0.184366  0.201308  0  4.113687  0
C  C37  1  0.76146804  0.72923822  0.98715574  1  0.97435  0  0.184951  0.203255  0  4.115096  0
C  C38  1  0.77431269  0.01277263  0.74206796  1  0.962729  0  0.184963  0.202834  0  4.115457  0
C  C39  1  0.26146558  0.98715461  0.72923790  1  0.974769  0  0.184966  0.203327  0  4.115047  0
C  C40  1  0.27431303  0.74206741  0.01277281  1  0.962704  0  0.184952  0.202828  0  4.115369  0
C  C41  1  0.53227069  0.27077214  0.25799601  1  0.992024  0  0.184348  0.201179  0  4.113658  0
C  C42  1  0.48207454  0.58877309  0.52541834  1  0.001  0  -0.100669  -0.215957  0  3.992104  0
C  C43  1  0.95665280  0.47453698  0.06336029  1  0.017728  0  -0.101503  -0.216627  0  3.99212  0
C  C44  1  0.89325540  0.93666397  0.41120176  1  0.081333  0  -0.100689  -0.215535  0  3.993433  0
C  C45  1  0.45665441  0.06336061  0.47453750  1  0.017914  0  -0.101509  -0.216625  0  3.992156  0
C  C46  1  0.39325310  0.41119928  0.93666301  1  0.081633  0  -0.100727  -0.215697  0  3.993365  0
C  C47  1  0.98207575  0.52542004  0.58877542  1  0.000613  0  -0.100676  -0.215897  0  3.992074  0
C  C48  1  0.34038308  0.51337153  0.45691844  1  0.401641  0  0.096168  0.184149  0  4.068236  0
C  C49  1  0.88353636  0.54310705  0.05645465  1  0.408798  0  0.096975  0.182214  0  4.068613  0
C  C50  1  0.82702600  0.94354675  0.48664098  1  0.421907  0  0.097447  0.184154  0  4.06925  0
C  C51  1  0.38353554  0.05645447  0.54310696  1  0.40843  0  0.097021  0.182329  0  4.068643  0
C  C52  1  0.32702146  0.48663999  0.94354441  1  0.42199  0  0.097484  0.184174  0  4.069117  0
C  C53  1  0.84038334  0.45691772  0.51337123  1  0.402048  0  0.096232  0.184181  0  4.068206  0
C  C54  1  0.95625175  0.07134094  0.18045611  1  0.363942  0  -0.007949  -0.032218  0  4.003479  0
C  C55  1  0.77576026  0.81956199  0.89080039  1  0.415719  0  -0.008539  -0.035209  0  4.007522  0
C  C56  1  0.88492107  0.10915747  0.92869349  1  0.362199  0  -0.008001  -0.034826  0  4.006666  0
C  C57  1  0.27575875  0.89080001  0.81956127  1  0.41578  0  -0.008552  -0.035289  0  4.00776  0
C  C58  1  0.38492230  0.92869275  0.10915713  1  0.361788  0  -0.008021  -0.034842  0  4.006507  0
C  C59  1  0.45625436  0.18045639  0.07134098  1  0.36394  0  -0.007977  -0.032281  0  4.003575  0
C  C60  1  0.13274626  0.37627726  0.34584793  1  0.975951  0  0.202185  0.244148  0  4.143534  0
C  C61  1  0.78688657  0.65411101  0.03033943  1  0.994909  0  0.202293  0.243513  0  4.142874  0
C  C62  1  0.75649220  0.96954738  0.62376201  1  0.984868  0  0.201842  0.244172  0  4.142522  0
C  C63  1  0.28688514  0.03033998  0.65411183  1  0.994365  0  0.202312  0.243437  0  4.142948  0
C  C64  1  0.25649190  0.62376145  0.96954884  1  0.984683  0  0.201861  0.244171  0  4.142394  0
C  C65  1  0.63274758  0.34584791  0.37627848  1  0.975987  0  0.202168  0.244173  0  4.143517  0
C  C66  1  0.23528055  0.55894857  0.45063279  1  0.465898  0  0.082438  0.101316  0  4.081536  0
C  C67  1  0.78465478  0.54934947  0.10829057  1  0.411358  0  0.082616  0.102023  0  4.080036  0
C  C68  1  0.67634111  0.89168470  0.44108227  1  0.409571  0  0.081636  0.100002  0  4.079473  0
C  C69  1  0.28465604  0.10829140  0.54934975  1  0.411472  0  0.082532  0.101792  0  4.080106  0
C  C70  1  0.17634155  0.44108176  0.89168583  1  0.409515  0  0.08165  0.100049  0  4.079644  0
C  C71  1  0.73528132  0.45063105  0.55894760  1  0.466197  0  0.082371  0.101243  0  4.081509  0
C  C72  1  0.51189476  0.70556211  0.58452216  1  0.455719  0  0.017095  0.053289  0  4.014475  0
C  C73  1  0.92736978  0.41548031  0.12110552  1  0.439394  0  0.01668  0.05218  0  4.009182  0
C  C74  1  0.80626810  0.87894566  0.29442984  1  0.442279  0  0.016435  0.050883  0  4.017204  0
C  C75  1  0.42736947  0.12110460  0.41547973  1  0.439237  0  0.016652  0.052179  0  4.009128  0
C  C76  1  0.30626641  0.29442810  0.87894604  1  0.44198  0  0.01644  0.051043  0  4.01722  0
C  C77  1  0.01189519  0.58452239  0.70556491  1  0.455822  0  0.017092  0.053245  0  4.014635  0
C  C78  1  0.84183035  0.10020821  0.16995324  1  0.379495  0  -0.013614  -0.054344  0  4.026094  0
C  C79  1  0.67187435  0.83007113  0.93019446  1  0.355119  0  -0.012963  -0.051568  0  4.023912  0
C  C80  1  0.74164844  0.06977468  0.89982988  1  0.416364  0  -0.012517  -0.049855  0  4.022713  0
C  C81  1  0.17187657  0.93019387  0.83007204  1  0.354962  0  -0.012983  -0.051501  0  4.02385  0
C  C82  1  0.24165033  0.89982931  0.06977470  1  0.416399  0  -0.012485  -0.049865  0  4.022682  0
C  C83  1  0.34183186  0.16995335  0.10020877  1  0.37952  0  -0.013602  -0.054278  0  4.026076  0
C  C84  1  0.27562672  0.67774050  0.51345312  1  0.412604  0  0.040285  0.015937  0  3.917531  0
C  C85  1  0.76216396  0.48652469  0.16427142  1  0.466489  0  0.039791  0.014901  0  3.917457  0
C  C86  1  0.59787838  0.83570523  0.32227741  1  0.464641  0  0.039652  0.015087  0  3.916626  0
C  C87  1  0.26216505  0.16427076  0.48652346  1  0.466503  0  0.039804  0.014922  0  3.917457  0
C  C88  1  0.09788040  0.32227787  0.83570545  1  0.464707  0  0.039622  0.015056  0  3.916705  0
C  C89  1  0.77562782  0.51345451  0.67774097  1  0.412637  0  0.040306  0.015997  0  3.91738  0
C  C90  1  0.84564746  0.17930735  0.43413861  1  2.114162  0  0.366715  0.714279  0  4.123343  0
C  C91  1  0.41155722  0.56589645  0.74517683  1  2.110811  0  0.369479  0.719819  0  4.120898  0
C  C92  1  0.66653832  0.25489975  0.82064709  1  2.097996  0  0.367966  0.716393  0  4.118941  0
C  C93  1  0.91155639  0.74517899  0.56589850  1  2.110813  0  0.36941  0.719773  0  4.121053  0
C  C94  1  0.16654166  0.82064141  0.25489955  1  2.098233  0  0.367967  0.716541  0  4.118979  0
C  C95  1  0.34565095  0.43414107  0.17930959  1  2.114271  0  0.366734  0.714312  0  4.12326  0
N  N96  1  0.07649473  0.17172595  0.24387876  1  -1.263621  0  -0.361154  -0.331107  0  3.500892  0
N  N97  1  0.83259377  0.75615272  0.92777918  1  -1.245787  0  -0.363025  -0.334185  0  3.503804  0
N  N98  1  0.90480190  0.07217536  0.82830269  1  -1.22209  0  -0.363682  -0.335529  0  3.506315  0
N  N99  1  0.33259160  0.92777672  0.75615210  1  -1.245714  0  -0.363036  -0.334193  0  3.503809  0
N  N100  1  0.40480375  0.82830204  0.07217589  1  -1.221705  0  -0.363672  -0.335541  0  3.506174  0
N  N101  1  0.57649695  0.24387905  0.17172719  1  -1.263698  0  -0.361131  -0.331053  0  3.500946  0
N  N102  1  0.89086656  0.21901317  0.22704175  1  -1.256605  0  -0.371202  -0.324542  0  3.592126  0
N  N103  1  0.66381547  0.77298723  0.99195564  1  -1.269346  0  -0.370302  -0.32374  0  3.589353  0
N  N104  1  0.67187477  0.00800812  0.78103438  1  -1.276815  0  -0.370455  -0.324402  0  3.588038  0
N  N105  1  0.16381407  0.99195737  0.77298620  1  -1.269188  0  -0.370327  -0.323849  0  3.589291  0
N  N106  1  0.17187685  0.78103412  0.00800965  1  -1.276808  0  -0.370464  -0.324355  0  3.587995  0
N  N107  1  0.39086471  0.22703991  0.21901215  1  -1.256578  0  -0.371144  -0.324433  0  3.591993  0
N  N108  1  0.41258582  0.74892996  0.57929055  1  -1.261028  0  -0.353598  -0.239623  0  3.675619  0
N  N109  1  0.83332106  0.42069611  0.16971276  1  -1.25899  0  -0.352527  -0.237293  0  3.673751  0
N  N110  1  0.66359827  0.83029725  0.25101628  1  -1.298705  0  -0.352479  -0.237284  0  3.676757  0
N  N111  1  0.33332019  0.16971238  0.42069550  1  -1.259005  0  -0.352522  -0.237273  0  3.67377  0
N  N112  1  0.16359939  0.25101731  0.83029878  1  -1.298786  0  -0.352466  -0.237321  0  3.676808  0
N  N113  1  0.91258658  0.57928953  0.74893024  1  -1.26107  0  -0.353608  -0.239645  0  3.675645  0
N  N114  1  0.27215878  0.39574453  0.38884297  1  -1.217122  0  -0.374483  -0.406253  0  3.478447  0
N  N115  1  0.88331544  0.61112509  0.00683883  1  -1.223031  0  -0.375271  -0.404629  0  3.480151  0
N  N116  1  0.87641708  0.99307577  0.60424984  1  -1.234269  0  -0.375546  -0.405631  0  3.477394  0
N  N117  1  0.38331612  0.00683930  0.61112539  1  -1.222996  0  -0.375215  -0.404568  0  3.480179  0
N  N118  1  0.37641979  0.60425096  0.99307676  1  -1.234147  0  -0.37554  -0.405581  0  3.477269  0
N  N119  1  0.77216030  0.38884285  0.39574328  1  -1.217156  0  -0.374498  -0.406255  0  3.478465  0
N  N120  1  0.10381517  0.46937882  0.37947251  1  -1.180838  0  -0.343653  -0.401598  0  3.221203  0
N  N121  1  0.72431063  0.62049389  0.08979875  1  -1.176199  0  -0.342872  -0.400741  0  3.218415  0
N  N122  1  0.63445417  0.91007995  0.53070910  1  -1.170054  0  -0.343042  -0.401205  0  3.219868  0
N  N123  1  0.22430939  0.08979939  0.62049398  1  -1.176212  0  -0.34287  -0.400603  0  3.218433  0
N  N124  1  0.13445355  0.53070654  0.91007941  1  -1.169983  0  -0.343085  -0.401245  0  3.219956  0
N  N125  1  0.60381729  0.37947340  0.46938036  1  -1.181156  0  -0.343657  -0.401611  0  3.221193  0
O  O126  1  0.72367173  0.12534066  0.38076505  1  -1.073288  0  -0.16845  -0.344053  0  2.210843  0
O  O127  1  0.34285616  0.61918164  0.74456275  1  -1.066257  0  -0.170861  -0.34884  0  2.209487  0
O  O128  1  0.59842439  0.25547115  0.87452659  1  -1.063169  0  -0.171183  -0.348075  0  2.209162  0
O  O129  1  0.84285784  0.74456583  0.61918521  1  -1.06633  0  -0.17083  -0.348835  0  2.209688  0
O  O130  1  0.09842307  0.87452265  0.25546934  1  -1.063205  0  -0.171273  -0.348297  0  2.209183  0
O  O131  1  0.22367456  0.38077067  0.12534531  1  -1.073327  0  -0.168457  -0.34406  0  2.210758  0
O  O132  1  0.96730976  0.23354390  0.48840277  1  -1.068497  0  -0.168651  -0.339049  0  2.1748  0
O  O133  1  0.47905042  0.51168458  0.74513286  1  -1.072194  0  -0.16895  -0.339804  0  2.174639  0
O  O134  1  0.73400240  0.25486317  0.76641743  1  -1.062986  0  -0.167107  -0.337108  0  2.171967  0
O  O135  1  0.97905055  0.74513548  0.51168664  1  -1.072126  0  -0.168915  -0.339761  0  2.1746  0
O  O136  1  0.23400036  0.76641395  0.25486337  1  -1.063182  0  -0.167014  -0.337039  0  2.17203  0
O  O137  1  0.46731459  0.48840358  0.23354314  1  -1.068575  0  -0.168662  -0.33908  0  2.174822  0
