# generated using pymatgen
data_CdH16C24(NO2)2
_symmetry_space_group_name_H-M   'P 1'
_cell_length_a   14.30168645
_cell_length_b   18.36318965
_cell_length_c   19.57494678
_cell_angle_alpha   90.00007362
_cell_angle_beta   89.99996849
_cell_angle_gamma   89.99996204
_symmetry_Int_Tables_number   1
_chemical_formula_structural   CdH16C24(NO2)2
_chemical_formula_sum   'Cd8 H128 C192 N16 O32'
_cell_volume   5140.86218902
_cell_formula_units_Z   8
loop_
 _symmetry_equiv_pos_site_id
 _symmetry_equiv_pos_as_xyz
  1  'x, y, z'
loop_
 _atom_site_type_symbol
 _atom_site_label
 _atom_site_symmetry_multiplicity
 _atom_site_fract_x
 _atom_site_fract_y
 _atom_site_fract_z
 _atom_site_occupancy
 _atom_site_pbe_bader_charge
 _atom_site_pbe_bader_spin_density
 _atom_site_pbe_cm5_charge
 _atom_site_pbe_ddec_charge
 _atom_site_pbe_ddec_spin_density
 _atom_site_pbe_ddec_sum_bond_order
 _atom_site_pbe_magmom
Cd  Cd0  1  0.97752838  0.08761590  0.94219501  1  1.284335  0  0.776234  0.883821  0  2.201104  0
Cd  Cd1  1  0.02247043  0.41238345  0.44219506  1  1.284329  0  0.776242  0.883856  0  2.201064  0
Cd  Cd2  1  0.52247098  0.58761623  0.05780474  1  1.284318  0  0.776233  0.883852  0  2.201079  0
Cd  Cd3  1  0.47752910  0.91238261  0.55780477  1  1.284269  0  0.776251  0.883861  0  2.201096  0
Cd  Cd4  1  0.02247107  0.91238347  0.05780555  1  1.284288  0  0.776253  0.88386  0  2.20105  0
Cd  Cd5  1  0.97752901  0.58761591  0.55780397  1  1.284342  0  0.776235  0.883818  0  2.201113  0
Cd  Cd6  1  0.47752917  0.41238368  0.94219428  1  1.28436  0  0.776233  0.883827  0  2.201115  0
Cd  Cd7  1  0.52247105  0.08761567  0.44219527  1  1.284385  0  0.776246  0.883849  0  2.20108  0
H  H8  1  0.51780732  0.22076172  0.14726224  1  0.066201  0  0.108093  0.115747  0  1.005013  0
H  H9  1  0.48219242  0.27923994  0.64726160  1  0.066161  0  0.10805  0.115678  0  1.005148  0
H  H10  1  0.98219193  0.72076074  0.85273665  1  0.066167  0  0.108064  0.1157  0  1.005081  0
H  H11  1  0.01780723  0.77924014  0.35273807  1  0.066165  0  0.108085  0.115713  0  1.005131  0
H  H12  1  0.48219353  0.77923873  0.85273781  1  0.066173  0  0.108091  0.115719  0  1.005071  0
H  H13  1  0.51780842  0.72075943  0.35273845  1  0.0662  0  0.108077  0.115696  0  1.005091  0
H  H14  1  0.01780612  0.27924026  0.14726187  1  0.066174  0  0.108087  0.115691  0  1.005108  0
H  H15  1  0.98219082  0.22076032  0.64726198  1  0.066172  0  0.108066  0.115711  0  1.005142  0
H  H16  1  0.77262770  0.12201784  0.03415940  1  0.144144  0  0.104837  0.123369  0  1.047522  0
H  H17  1  0.22737142  0.37798258  0.53415846  1  0.144135  0  0.104812  0.123306  0  1.047517  0
H  H18  1  0.72737023  0.62201769  0.96584142  1  0.144113  0  0.104833  0.12337  0  1.047536  0
H  H19  1  0.27262954  0.87798280  0.46584030  1  0.14413  0  0.104806  0.123316  0  1.047571  0
H  H20  1  0.22737315  0.87798152  0.96584065  1  0.144129  0  0.104843  0.123379  0  1.047505  0
H  H21  1  0.77262942  0.62201516  0.46584158  1  0.144157  0  0.104806  0.123334  0  1.047475  0
H  H22  1  0.27262642  0.37798276  0.03415812  1  0.144109  0  0.104817  0.123331  0  1.047549  0
H  H23  1  0.72736991  0.12201711  0.53415872  1  0.144122  0  0.104839  0.123363  0  1.047541  0
H  H24  1  0.71542052  0.89357393  0.86563850  1  0.075698  0  0.107909  0.113149  0  1.00072  0
H  H25  1  0.28457863  0.60642587  0.36563808  1  0.075699  0  0.107927  0.113155  0  1.000746  0
H  H26  1  0.78457928  0.39357476  0.13436264  1  0.075708  0  0.107935  0.113179  0  1.000736  0
H  H27  1  0.21542116  0.10642634  0.63436139  1  0.075708  0  0.107917  0.113168  0  1.000704  0
H  H28  1  0.28457893  0.10642543  0.13436206  1  0.075715  0  0.107916  0.113169  0  1.000733  0
H  H29  1  0.71542082  0.39357404  0.63436146  1  0.075708  0  0.107917  0.113165  0  1.000709  0
H  H30  1  0.21542016  0.60642569  0.86563792  1  0.075697  0  0.107926  0.113172  0  1.000718  0
H  H31  1  0.78457898  0.89357357  0.36563866  1  0.075696  0  0.107905  0.113152  0  1.000727  0
H  H32  1  0.56910782  0.77397753  0.69244157  1  0.113357  0  0.09968  0.113281  0  1.040957  0
H  H33  1  0.43089426  0.72602149  0.19244276  1  0.113329  0  0.099682  0.113277  0  1.040901  0
H  H34  1  0.93089278  0.27397634  0.30755637  1  0.11334  0  0.099688  0.11329  0  1.040918  0
H  H35  1  0.06910544  0.22602228  0.80755787  1  0.11332  0  0.099677  0.113275  0  1.040899  0
H  H36  1  0.43089513  0.22602293  0.30755746  1  0.113296  0  0.099679  0.113267  0  1.040931  0
H  H37  1  0.56910589  0.27397787  0.80755780  1  0.113322  0  0.099671  0.113257  0  1.040922  0
H  H38  1  0.06910597  0.72602302  0.69244266  1  0.113324  0  0.099669  0.113257  0  1.040995  0
H  H39  1  0.93089331  0.77397709  0.19244115  1  0.113327  0  0.099671  0.113255  0  1.040982  0
H  H40  1  0.80371800  0.99387956  0.21601634  1  0.100699  0  0.098918  0.097684  0  1.033814  0
H  H41  1  0.19628406  0.50612330  0.71601498  1  0.100695  0  0.098906  0.097701  0  1.033786  0
H  H42  1  0.69628102  0.49387861  0.78398441  1  0.10069  0  0.098913  0.097677  0  1.033798  0
H  H43  1  0.30371932  0.00612106  0.28398386  1  0.100697  0  0.098915  0.097692  0  1.033762  0
H  H44  1  0.19628494  0.00612252  0.78398524  1  0.10074  0  0.098888  0.097643  0  1.033746  0
H  H45  1  0.80371818  0.49387824  0.28398354  1  0.100669  0  0.098919  0.097698  0  1.033825  0
H  H46  1  0.30371773  0.50612184  0.21601462  1  0.100706  0  0.098908  0.097675  0  1.033811  0
H  H47  1  0.69628013  0.99387885  0.71601517  1  0.100699  0  0.098896  0.09766  0  1.033825  0
H  H48  1  0.67175804  0.33829520  0.95231428  1  0.1081  0  0.117399  0.094802  0  1.004476  0
H  H49  1  0.32824217  0.16170471  0.45231493  1  0.108112  0  0.117402  0.094804  0  1.004498  0
H  H50  1  0.82824111  0.83829482  0.04768578  1  0.108099  0  0.117406  0.094795  0  1.004473  0
H  H51  1  0.17175828  0.66170564  0.54768563  1  0.108117  0  0.1174  0.094803  0  1.004482  0
H  H52  1  0.32824211  0.66170525  0.04768577  1  0.108089  0  0.117396  0.094796  0  1.004478  0
H  H53  1  0.67175868  0.83829520  0.54768512  1  0.108103  0  0.117412  0.094812  0  1.004491  0
H  H54  1  0.17175764  0.16170455  0.95231529  1  0.108097  0  0.117414  0.094814  0  1.004513  0
H  H55  1  0.82824117  0.33829427  0.45231493  1  0.108108  0  0.117414  0.094791  0  1.004494  0
H  H56  1  0.79389022  0.98831949  0.93684691  1  0.129935  0  0.119936  0.098095  0  0.984018  0
H  H57  1  0.20610888  0.51168042  0.43684641  1  0.129949  0  0.119935  0.098084  0  0.984026  0
H  H58  1  0.70610880  0.48831971  0.06315383  1  0.129959  0  0.119946  0.098099  0  0.98401  0
H  H59  1  0.29389170  0.01168075  0.56315295  1  0.129954  0  0.119946  0.09812  0  0.983998  0
H  H60  1  0.20610783  0.01168042  0.06315314  1  0.129966  0  0.119937  0.098097  0  0.983958  0
H  H61  1  0.79389057  0.48831949  0.56315313  1  0.129954  0  0.119933  0.098092  0  0.983998  0
H  H62  1  0.29389064  0.51168074  0.93684673  1  0.129958  0  0.11994  0.098113  0  0.983981  0
H  H63  1  0.70610915  0.98831971  0.43684659  1  0.129953  0  0.11994  0.098114  0  0.983977  0
H  H64  1  0.91476005  0.79495746  0.70733146  1  0.040512  0  0.102137  0.100437  0  1.028622  0
H  H65  1  0.08524132  0.70504321  0.20733226  1  0.040553  0  0.102098  0.100384  0  1.028526  0
H  H66  1  0.58524054  0.29495807  0.29266905  1  0.04053  0  0.102086  0.100361  0  1.028639  0
H  H67  1  0.41475839  0.20504271  0.79266886  1  0.040555  0  0.102081  0.100338  0  1.028615  0
H  H68  1  0.08524150  0.20504190  0.29266910  1  0.040571  0  0.102089  0.100351  0  1.028504  0
H  H69  1  0.91475883  0.29495833  0.79266830  1  0.040554  0  0.102079  0.100343  0  1.028574  0
H  H70  1  0.41475821  0.70504130  0.70733100  1  0.040562  0  0.102102  0.100379  0  1.028554  0
H  H71  1  0.58524175  0.79495666  0.20733170  1  0.040543  0  0.102129  0.10043  0  1.028574  0
H  H72  1  0.67241947  0.69269854  0.62226710  1  0.082548  0  0.10366  0.104457  0  0.998783  0
H  H73  1  0.32758336  0.80730147  0.12226844  1  0.082385  0  0.103679  0.104465  0  0.998787  0
H  H74  1  0.82758190  0.19269751  0.37773073  1  0.082397  0  0.103709  0.104504  0  0.998842  0
H  H75  1  0.17241697  0.30730121  0.87773229  1  0.08252  0  0.103697  0.104496  0  0.998834  0
H  H76  1  0.32758277  0.30730082  0.37773192  1  0.082542  0  0.103696  0.104498  0  0.998819  0
H  H77  1  0.67241749  0.19269898  0.87773212  1  0.082544  0  0.103686  0.104476  0  0.998768  0
H  H78  1  0.17241685  0.80730131  0.62226829  1  0.082539  0  0.103703  0.104499  0  0.99881  0
H  H79  1  0.82758178  0.69269816  0.12226776  1  0.082526  0  0.103705  0.104521  0  0.998892  0
H  H80  1  0.69427742  0.07751759  0.27837768  1  0.060835  0  0.098767  0.100737  0  1.023422  0
H  H81  1  0.30572431  0.42248534  0.77837779  1  0.060862  0  0.09875  0.100727  0  1.023285  0
H  H82  1  0.80572194  0.57751597  0.72162207  1  0.060855  0  0.098766  0.100767  0  1.02332  0
H  H83  1  0.19427661  0.92248363  0.22162206  1  0.060846  0  0.098761  0.100749  0  1.023351  0
H  H84  1  0.30572272  0.92248341  0.72162237  1  0.060855  0  0.098765  0.100742  0  1.023391  0
H  H85  1  0.69427863  0.57751729  0.22162175  1  0.060839  0  0.098774  0.100746  0  1.023412  0
H  H86  1  0.19427680  0.42248557  0.27837594  1  0.060878  0  0.09874  0.100729  0  1.02336  0
H  H87  1  0.80572144  0.07751573  0.77837799  1  0.06085  0  0.098758  0.100746  0  1.023387  0
H  H88  1  0.75509336  0.23675171  0.01049044  1  0.096306  0  0.107974  0.125319  0  1.026438  0
H  H89  1  0.24490648  0.26324922  0.51049038  1  0.096295  0  0.107997  0.125353  0  1.026496  0
H  H90  1  0.74490517  0.73675104  0.98951000  1  0.096275  0  0.107979  0.125318  0  1.026513  0
H  H91  1  0.25509388  0.76324948  0.48951029  1  0.096286  0  0.107961  0.125299  0  1.026435  0
H  H92  1  0.24490678  0.76324874  0.98950961  1  0.096306  0  0.10797  0.125312  0  1.026446  0
H  H93  1  0.75509507  0.73675069  0.48951017  1  0.096243  0  0.107985  0.125325  0  1.026545  0
H  H94  1  0.25509358  0.26324887  0.01049056  1  0.096294  0  0.108002  0.125361  0  1.026483  0
H  H95  1  0.74490556  0.23675043  0.51048976  1  0.09626  0  0.10799  0.125346  0  1.026556  0
H  H96  1  0.94803649  0.90977793  0.72542046  1  0.039099  0  0.111512  0.120892  0  0.98995  0
H  H97  1  0.05196347  0.59022331  0.22542011  1  0.039093  0  0.111506  0.120915  0  0.989901  0
H  H98  1  0.55196260  0.40977853  0.27458070  1  0.039074  0  0.111516  0.120934  0  0.989902  0
H  H99  1  0.44803634  0.09022276  0.77458036  1  0.039086  0  0.111498  0.120882  0  0.989932  0
H  H100  1  0.05196296  0.09022361  0.27458061  1  0.039073  0  0.111503  0.120896  0  0.989923  0
H  H101  1  0.94803528  0.40977769  0.77458045  1  0.039093  0  0.111525  0.120914  0  0.98993  0
H  H102  1  0.44803685  0.59022301  0.72542037  1  0.039085  0  0.111514  0.120925  0  0.989899  0
H  H103  1  0.55196380  0.90977714  0.22541969  1  0.039089  0  0.111503  0.120888  0  0.989934  0
H  H104  1  0.63910789  0.86514691  0.76929086  1  0.040551  0  0.101165  0.095307  0  1.005115  0
H  H105  1  0.36089203  0.63485222  0.26929095  1  0.040512  0  0.101164  0.095318  0  1.00512  0
H  H106  1  0.86089124  0.36514674  0.23070923  1  0.040539  0  0.101174  0.095345  0  1.005121  0
H  H107  1  0.13910704  0.13485286  0.73070906  1  0.040536  0  0.101167  0.095309  0  1.005133  0
H  H108  1  0.36089366  0.13485300  0.23070919  1  0.040455  0  0.101155  0.095311  0  1.005124  0
H  H109  1  0.63910671  0.36514714  0.73070910  1  0.040477  0  0.101166  0.0953  0  1.005139  0
H  H110  1  0.13910611  0.63485317  0.76929082  1  0.04051  0  0.10115  0.095307  0  1.00513  0
H  H111  1  0.86089311  0.86514705  0.26928996  1  0.04054  0  0.101167  0.095303  0  1.005156  0
H  H112  1  0.61993302  0.17899722  0.21770530  1  0.080414  0  0.098752  0.096902  0  1.046378  0
H  H113  1  0.38006736  0.32100291  0.71770577  1  0.080504  0  0.098768  0.096966  0  1.046311  0
H  H114  1  0.88006766  0.67899673  0.78229405  1  0.080518  0  0.098753  0.096934  0  1.046318  0
H  H115  1  0.11993086  0.82100350  0.28229446  1  0.080516  0  0.09875  0.096928  0  1.04633  0
H  H116  1  0.38006642  0.82100106  0.78229322  1  0.080405  0  0.098726  0.096882  0  1.046339  0
H  H117  1  0.61993349  0.67899700  0.28229530  1  0.0805  0  0.098758  0.096962  0  1.046325  0
H  H118  1  0.11993179  0.32100372  0.21770497  1  0.080522  0  0.098758  0.096948  0  1.046312  0
H  H119  1  0.88006649  0.17899750  0.71770610  1  0.08046  0  0.098747  0.096926  0  1.046294  0
H  H120  1  0.01656208  0.00274136  0.80329107  1  0.111218  0  0.11776  0.09174  0  1.011653  0
H  H121  1  0.98343754  0.49725943  0.30329032  1  0.111233  0  0.117751  0.091721  0  1.011614  0
H  H122  1  0.48343710  0.50274110  0.19670929  1  0.111212  0  0.117756  0.09173  0  1.011654  0
H  H123  1  0.51656217  0.99725956  0.69670941  1  0.111186  0  0.117746  0.091717  0  1.011643  0
H  H124  1  0.98343667  0.99726018  0.19671000  1  0.111209  0  0.117765  0.09173  0  1.011674  0
H  H125  1  0.01656191  0.50274103  0.69671024  1  0.111215  0  0.117756  0.091757  0  1.011643  0
H  H126  1  0.51656304  0.49725990  0.80329024  1  0.111188  0  0.117753  0.091719  0  1.011617  0
H  H127  1  0.48343798  0.00274089  0.30329013  1  0.111234  0  0.11775  0.091723  0  1.011613  0
H  H128  1  0.44471941  0.32221738  0.08260160  1  0.123903  0  0.116105  0.087277  0  0.999217  0
H  H129  1  0.55528037  0.17778364  0.58260183  1  0.123902  0  0.116115  0.087258  0  0.999289  0
H  H130  1  0.05527950  0.82221671  0.91739812  1  0.123933  0  0.116098  0.087246  0  0.999248  0
H  H131  1  0.94472031  0.67778426  0.41739854  1  0.12372  0  0.116109  0.087261  0  0.999255  0
H  H132  1  0.55528143  0.67778307  0.91739895  1  0.123889  0  0.116112  0.087277  0  0.999248  0
H  H133  1  0.44472047  0.82221572  0.41739821  1  0.123731  0  0.116112  0.087257  0  0.999236  0
H  H134  1  0.94471925  0.17778374  0.08260193  1  0.123905  0  0.116125  0.08728  0  0.999214  0
H  H135  1  0.05527914  0.32221511  0.58260253  1  0.123729  0  0.116102  0.087239  0  0.999258  0
C  C136  1  0.55558049  0.24538922  0.10478806  1  -0.037487  0  -0.085827  -0.18233  0  3.951534  0
C  C137  1  0.44442138  0.25461348  0.60478996  1  -0.037285  0  -0.085748  -0.182215  0  3.951299  0
C  C138  1  0.94441944  0.74538777  0.89521086  1  -0.03728  0  -0.085816  -0.182327  0  3.951534  0
C  C139  1  0.05557969  0.75461372  0.39521071  1  -0.037283  0  -0.08582  -0.182357  0  3.951512  0
C  C140  1  0.44442106  0.75461124  0.89521199  1  -0.03728  0  -0.085805  -0.182327  0  3.951512  0
C  C141  1  0.55558017  0.74538698  0.39521213  1  -0.037294  0  -0.085745  -0.182202  0  3.95162  0
C  C142  1  0.05557861  0.25461269  0.10478816  1  -0.037316  0  -0.085756  -0.182241  0  3.951643  0
C  C143  1  0.94441976  0.24538619  0.60479036  1  -0.037299  0  -0.085791  -0.182324  0  3.951459  0
C  C144  1  0.79444750  0.05358425  0.12185103  1  0.021929  0  -0.02339  -0.035033  0  3.995473  0
C  C145  1  0.20555296  0.44641683  0.62185019  1  0.021886  0  -0.023382  -0.035084  0  3.995501  0
C  C146  1  0.70555189  0.55358345  0.87814919  1  0.021886  0  -0.023379  -0.035035  0  3.995583  0
C  C147  1  0.29444865  0.94641692  0.37814815  1  0.021873  0  -0.023362  -0.035037  0  3.995601  0
C  C148  1  0.20555405  0.94641675  0.87814901  1  0.021907  0  -0.023373  -0.035055  0  3.995473  0
C  C149  1  0.79444859  0.55358253  0.37814884  1  0.021912  0  -0.023413  -0.035147  0  3.995778  0
C  C150  1  0.29444756  0.44641701  0.12184932  1  0.021935  0  -0.02337  -0.035052  0  3.995435  0
C  C151  1  0.70555080  0.05358408  0.62185037  1  0.021863  0  -0.023383  -0.035004  0  3.995526  0
C  C152  1  0.75420468  0.11269162  0.08756950  1  -0.067345  0  -0.083824  -0.145367  0  3.904215  0
C  C153  1  0.24579650  0.38730887  0.58756959  1  -0.067346  0  -0.083844  -0.145312  0  3.904305  0
C  C154  1  0.74579536  0.61269084  0.91243028  1  -0.067319  0  -0.083862  -0.145494  0  3.904388  0
C  C155  1  0.25420515  0.88730903  0.41243021  1  -0.067301  0  -0.083858  -0.145447  0  3.904231  0
C  C156  1  0.24579756  0.88730775  0.91243106  1  -0.067242  0  -0.083867  -0.145405  0  3.904214  0
C  C157  1  0.75420434  0.61268886  0.41243045  1  -0.067339  0  -0.083863  -0.14539  0  3.904369  0
C  C158  1  0.25420339  0.38730907  0.08756772  1  -0.067594  0  -0.083801  -0.145293  0  3.904256  0
C  C159  1  0.74579429  0.11269142  0.58757035  1  -0.067315  0  -0.08384  -0.145437  0  3.904292  0
C  C160  1  0.68937593  0.15794033  0.12108126  1  -0.033291  0  -0.013365  0.049942  0  3.996954  0
C  C161  1  0.31062453  0.34206129  0.62108076  1  -0.03348  0  -0.01331  0.049976  0  3.997057  0
C  C162  1  0.81062337  0.65793893  0.87891858  1  -0.033335  0  -0.013258  0.050164  0  3.996956  0
C  C163  1  0.18937577  0.84206144  0.37891797  1  -0.033344  0  -0.013282  0.050163  0  3.996994  0
C  C164  1  0.31062492  0.84205958  0.87891828  1  -0.033355  0  -0.013318  0.049994  0  3.997002  0
C  C165  1  0.68937632  0.65793752  0.37891878  1  -0.033247  0  -0.013256  0.050123  0  3.997105  0
C  C166  1  0.18937468  0.34206207  0.12108147  1  -0.033102  0  -0.013284  0.050018  0  3.997035  0
C  C167  1  0.81062298  0.15793956  0.62108208  1  -0.033321  0  -0.013298  0.050105  0  3.997029  0
C  C168  1  0.64415468  0.21931364  0.08511032  1  -0.036212  0  0.015868  0.120159  0  3.968508  0
C  C169  1  0.35584371  0.28068793  0.58510973  1  -0.036367  0  0.015804  0.12009  0  3.968441  0
C  C170  1  0.85584317  0.71931227  0.91489010  1  -0.036521  0  0.015812  0.12008  0  3.968471  0
C  C171  1  0.14415594  0.78068870  0.41489045  1  -0.036527  0  0.015788  0.120048  0  3.968563  0
C  C172  1  0.35584477  0.78068681  0.91488922  1  -0.036256  0  0.015815  0.12011  0  3.968426  0
C  C173  1  0.64415644  0.71931089  0.41489083  1  -0.036563  0  0.01581  0.120041  0  3.968583  0
C  C174  1  0.14415488  0.28068819  0.08510944  1  -0.036501  0  0.015831  0.120135  0  3.968482  0
C  C175  1  0.85584211  0.21931230  0.58510960  1  -0.03655  0  0.015814  0.120094  0  3.968546  0
C  C176  1  0.78184275  0.91663798  0.84911228  1  -0.036585  0  -0.084968  -0.183229  0  3.955009  0
C  C177  1  0.21815781  0.58336235  0.34911236  1  -0.036592  0  -0.084967  -0.183225  0  3.955036  0
C  C178  1  0.71815703  0.41663832  0.15088838  1  -0.036579  0  -0.084979  -0.183299  0  3.955059  0
C  C179  1  0.28184340  0.08336226  0.65088759  1  -0.036599  0  -0.084986  -0.183255  0  3.955041  0
C  C180  1  0.21815740  0.08336193  0.15088828  1  -0.036579  0  -0.084958  -0.183259  0  3.955009  0
C  C181  1  0.78184304  0.41663811  0.65088768  1  -0.036619  0  -0.084982  -0.183246  0  3.95509  0
C  C182  1  0.28184242  0.58336159  0.84911218  1  -0.0366  0  -0.084994  -0.183282  0  3.95502  0
C  C183  1  0.71815744  0.91663765  0.34911246  1  -0.036589  0  -0.084986  -0.183288  0  3.955043  0
C  C184  1  0.78224907  0.83732271  0.74411322  1  0.030829  0  -0.01236  0.047204  0  4.014367  0
C  C185  1  0.21775017  0.66267802  0.24411289  1  0.030811  0  -0.012388  0.047161  0  4.014475  0
C  C186  1  0.71775078  0.33732211  0.25588836  1  0.031039  0  -0.012371  0.047173  0  4.014284  0
C  C187  1  0.28224818  0.16267862  0.75588766  1  0.030825  0  -0.012344  0.04721  0  4.01427  0
C  C188  1  0.21775108  0.16267665  0.25588836  1  0.030941  0  -0.012329  0.047116  0  4.014252  0
C  C189  1  0.78224858  0.33732244  0.75588767  1  0.030835  0  -0.012358  0.047212  0  4.014231  0
C  C190  1  0.28224797  0.66267671  0.74411219  1  0.030934  0  -0.012327  0.04718  0  4.014356  0
C  C191  1  0.71775127  0.83732184  0.24411290  1  0.030819  0  -0.012387  0.047156  0  4.014284  0
C  C192  1  0.64493733  0.77725145  0.69702241  1  -0.004538  0  -0.089497  -0.075112  0  3.988741  0
C  C193  1  0.35506264  0.72274703  0.19702210  1  -0.004508  0  -0.089492  -0.075067  0  3.988637  0
C  C194  1  0.85506256  0.27725193  0.30297757  1  -0.004487  0  -0.08947  -0.075037  0  3.988589  0
C  C195  1  0.14493706  0.22274777  0.80297751  1  -0.004519  0  -0.089487  -0.075051  0  3.988612  0
C  C196  1  0.35506351  0.22274791  0.30297815  1  -0.00454  0  -0.089481  -0.075047  0  3.988749  0
C  C197  1  0.64493681  0.27725233  0.80297744  1  -0.004542  0  -0.089492  -0.075066  0  3.988682  0
C  C198  1  0.14493548  0.72274907  0.69702196  1  -0.004544  0  -0.089436  -0.075006  0  3.988621  0
C  C199  1  0.85506309  0.77725214  0.19702152  1  -0.004525  0  -0.0895  -0.075065  0  3.988757  0
C  C200  1  0.86344429  0.00447183  0.08691910  1  1.557819  0  0.197054  0.564085  0  4.231956  0
C  C201  1  0.13655549  0.49552812  0.58691834  1  1.557724  0  0.197004  0.564058  0  4.23195  0
C  C202  1  0.63655444  0.50447056  0.91308107  1  1.55782  0  0.197047  0.564134  0  4.232044  0
C  C203  1  0.36344537  0.99552768  0.41308108  1  1.557783  0  0.19703  0.564174  0  4.231835  0
C  C204  1  0.13655516  0.99552808  0.91308249  1  1.557741  0  0.197073  0.564151  0  4.232172  0
C  C205  1  0.86344465  0.50447016  0.41307864  1  1.557826  0  0.197015  0.564125  0  4.231902  0
C  C206  1  0.36344501  0.49552880  0.08691796  1  1.557727  0  0.197033  0.564081  0  4.23201  0
C  C207  1  0.63655547  0.00447114  0.58691897  1  1.55778  0  0.19703  0.564074  0  4.231933  0
C  C208  1  0.77197321  0.04043844  0.19048212  1  -0.059101  0  -0.085571  -0.093358  0  3.972429  0
C  C209  1  0.22802930  0.45956328  0.69048180  1  -0.059071  0  -0.085581  -0.093404  0  3.97238  0
C  C210  1  0.72802689  0.54043807  0.80951860  1  -0.059102  0  -0.085553  -0.093317  0  3.972419  0
C  C211  1  0.27197369  0.95956057  0.30951809  1  -0.059125  0  -0.085583  -0.093379  0  3.972478  0
C  C212  1  0.22802974  0.95956147  0.80951946  1  -0.059151  0  -0.085569  -0.09332  0  3.972404  0
C  C213  1  0.77197365  0.54043717  0.30951723  1  -0.059081  0  -0.085515  -0.093274  0  3.972296  0
C  C214  1  0.27197325  0.45956347  0.19048094  1  -0.059125  0  -0.085586  -0.093351  0  3.97226  0
C  C215  1  0.72802505  0.04043771  0.69048145  1  -0.059115  0  -0.085574  -0.093384  0  3.972268  0
C  C216  1  0.82513768  0.89258492  0.78874172  1  -0.012844  0  0.016364  0.117351  0  3.990704  0
C  C217  1  0.17486293  0.60741587  0.28874185  1  -0.012833  0  0.016339  0.117332  0  3.990697  0
C  C218  1  0.67486212  0.39258591  0.21125891  1  -0.013031  0  0.016292  0.117357  0  3.990591  0
C  C219  1  0.32513757  0.10741530  0.71125813  1  -0.01282  0  0.016313  0.117266  0  3.990625  0
C  C220  1  0.17486177  0.10741445  0.21125884  1  -0.01294  0  0.016283  0.117322  0  3.990687  0
C  C221  1  0.82513792  0.39258622  0.71125769  1  -0.012772  0  0.016333  0.117269  0  3.990684  0
C  C222  1  0.32513593  0.60741563  0.78874114  1  -0.012975  0  0.0163  0.117307  0  3.990628  0
C  C223  1  0.67486188  0.89258461  0.28874141  1  -0.01285  0  0.016335  0.117336  0  3.990746  0
C  C224  1  0.64076868  0.31060887  0.99614938  1  0.439993  0  0.045911  0.093796  0  3.952436  0
C  C225  1  0.35923079  0.18939164  0.49614954  1  0.440004  0  0.045883  0.093746  0  3.952378  0
C  C226  1  0.85923049  0.81060841  0.00385115  1  0.440004  0  0.045883  0.093771  0  3.95235  0
C  C227  1  0.14076963  0.68939253  0.50385105  1  0.439994  0  0.045882  0.093763  0  3.952338  0
C  C228  1  0.35923147  0.68939104  0.00385118  1  0.439991  0  0.045909  0.093811  0  3.952399  0
C  C229  1  0.64077075  0.81060772  0.50385102  1  0.439964  0  0.045872  0.093749  0  3.952454  0
C  C230  1  0.14076966  0.18939095  0.99614839  1  0.440008  0  0.045909  0.09379  0  3.952318  0
C  C231  1  0.85922982  0.31060793  0.49614849  1  0.439994  0  0.045883  0.093828  0  3.952316  0
C  C232  1  0.82511593  0.96909675  0.88934229  1  0.471273  0  0.047122  0.097428  0  3.961769  0
C  C233  1  0.17488320  0.53090309  0.38934234  1  0.471291  0  0.047132  0.097448  0  3.961754  0
C  C234  1  0.67488380  0.46909706  0.11065843  1  0.471282  0  0.047137  0.097484  0  3.961745  0
C  C235  1  0.32511666  0.03090401  0.61065806  1  0.471283  0  0.047137  0.097426  0  3.961745  0
C  C236  1  0.17488212  0.03090316  0.11065878  1  0.471306  0  0.047138  0.097458  0  3.961731  0
C  C237  1  0.82511625  0.46909627  0.61065873  1  0.471281  0  0.047139  0.097456  0  3.961749  0
C  C238  1  0.32511634  0.53090340  0.88934111  1  0.471282  0  0.047134  0.097431  0  3.961747  0
C  C239  1  0.67488349  0.96909590  0.38934199  1  0.471285  0  0.047156  0.097467  0  3.961699  0
C  C240  1  0.83874664  0.79191553  0.70399353  1  -0.057383  0  -0.083148  -0.144984  0  3.952728  0
C  C241  1  0.16125543  0.70808515  0.20399481  1  -0.057422  0  -0.083103  -0.144961  0  3.952681  0
C  C242  1  0.66125395  0.29191610  0.29600647  1  -0.057387  0  -0.083101  -0.144931  0  3.952711  0
C  C243  1  0.33874498  0.20808468  0.79600580  1  -0.057407  0  -0.08311  -0.144947  0  3.952764  0
C  C244  1  0.16125701  0.20808384  0.29600754  1  -0.057404  0  -0.08316  -0.144916  0  3.952761  0
C  C245  1  0.83874402  0.29191640  0.79600626  1  -0.057256  0  -0.083077  -0.14483  0  3.952636  0
C  C246  1  0.33874410  0.70808381  0.70399256  1  -0.05736  0  -0.083157  -0.14495  0  3.952725  0
C  C247  1  0.66125447  0.79191522  0.20399374  1  -0.057388  0  -0.08313  -0.144984  0  3.952663  0
C  C248  1  0.86205515  0.68951604  0.62112734  1  1.533095  0  0.185353  0.547809  0  4.254222  0
C  C249  1  0.13794698  0.81048561  0.12112773  1  1.533073  0  0.185213  0.547535  0  4.254524  0
C  C250  1  0.63794622  0.18951510  0.37887253  1  1.533058  0  0.185261  0.547543  0  4.254556  0
C  C251  1  0.36205264  0.31048525  0.87887300  1  1.533066  0  0.185267  0.547616  0  4.254508  0
C  C252  1  0.13794709  0.31048496  0.37887322  1  1.533074  0  0.185241  0.547578  0  4.254447  0
C  C253  1  0.86205457  0.18951539  0.87887283  1  1.533043  0  0.185294  0.547639  0  4.254444  0
C  C254  1  0.36205393  0.81048481  0.62112751  1  1.533031  0  0.185258  0.547651  0  4.254383  0
C  C255  1  0.63794541  0.68951575  0.12112756  1  1.533099  0  0.185375  0.547837  0  4.254169  0
C  C256  1  0.70213831  0.73302271  0.65688535  1  -0.09646  0  -0.079001  -0.08713  0  3.959698  0
C  C257  1  0.29786309  0.76697735  0.15688614  1  -0.096343  0  -0.079023  -0.087216  0  3.959741  0
C  C258  1  0.79786232  0.23302219  0.34311509  1  -0.096368  0  -0.079075  -0.087284  0  3.959789  0
C  C259  1  0.20213657  0.26697812  0.84311454  1  -0.096516  0  -0.07906  -0.087283  0  3.959744  0
C  C260  1  0.29786393  0.26697666  0.34311521  1  -0.096512  0  -0.079069  -0.087299  0  3.959796  0
C  C261  1  0.70213776  0.23302310  0.84311442  1  -0.096503  0  -0.079022  -0.087172  0  3.959725  0
C  C262  1  0.20213713  0.76697663  0.65688547  1  -0.096507  0  -0.079054  -0.087229  0  3.959818  0
C  C263  1  0.79786288  0.73302179  0.15688448  1  -0.096509  0  -0.07907  -0.087331  0  3.959858  0
C  C264  1  0.79951843  0.73988315  0.66057321  1  0.042694  0  -0.018665  -0.024974  0  3.990773  0
C  C265  1  0.20048506  0.76011746  0.16057454  1  0.042741  0  -0.018651  -0.024818  0  3.990681  0
C  C266  1  0.70048359  0.23988322  0.33942621  1  0.042727  0  -0.018634  -0.024832  0  3.990738  0
C  C267  1  0.29951460  0.26011762  0.83942613  1  0.042748  0  -0.018592  -0.024732  0  3.990605  0
C  C268  1  0.20048381  0.26011567  0.33942632  1  0.042728  0  -0.018603  -0.02478  0  3.990773  0
C  C269  1  0.79951508  0.23988354  0.83942602  1  0.042621  0  -0.018681  -0.024995  0  3.990874  0
C  C270  1  0.29951515  0.76011615  0.66057333  1  0.042753  0  -0.018618  -0.02486  0  3.990786  0
C  C271  1  0.70048345  0.73988283  0.16057341  1  0.042729  0  -0.018607  -0.024793  0  3.990674  0
C  C272  1  0.71008537  0.08625950  0.22458903  1  -0.081179  0  -0.094435  -0.080776  0  4.025443  0
C  C273  1  0.28991571  0.41374227  0.72458709  1  -0.081009  0  -0.094401  -0.08067  0  4.025371  0
C  C274  1  0.78991469  0.58625905  0.77541226  1  -0.08099  0  -0.094437  -0.080774  0  4.025365  0
C  C275  1  0.21008592  0.91374118  0.27541172  1  -0.081052  0  -0.094389  -0.080701  0  4.025418  0
C  C276  1  0.28991478  0.91374096  0.77541204  1  -0.08121  0  -0.094419  -0.080749  0  4.025382  0
C  C277  1  0.71008583  0.58625927  0.27541143  1  -0.081037  0  -0.094429  -0.080724  0  4.025444  0
C  C278  1  0.21008475  0.41374249  0.22458728  1  -0.080948  0  -0.094434  -0.080769  0  4.025283  0
C  C279  1  0.78991353  0.08625928  0.72458833  1  -0.08097  0  -0.094406  -0.080726  0  4.025398  0
C  C280  1  0.68697341  0.25425632  0.02936612  1  0.039745  0  -0.082492  -0.172875  0  3.916802  0
C  C281  1  0.31302642  0.24574463  0.52936602  1  0.039984  0  -0.082503  -0.172877  0  3.916802  0
C  C282  1  0.81302581  0.75425505  0.97063383  1  0.039992  0  -0.082482  -0.172825  0  3.916746  0
C  C283  1  0.18697326  0.74574545  0.47063413  1  0.039988  0  -0.082443  -0.172784  0  3.916716  0
C  C284  1  0.31302674  0.74574358  0.97063393  1  0.039763  0  -0.082482  -0.17286  0  3.916779  0
C  C285  1  0.68697513  0.75425528  0.47063505  1  0.039972  0  -0.082492  -0.172831  0  3.916805  0
C  C286  1  0.18697364  0.24574486  0.02936622  1  0.040003  0  -0.082502  -0.172893  0  3.916785  0
C  C287  1  0.81302549  0.25425501  0.52936643  1  0.039967  0  -0.082502  -0.172904  0  3.916816  0
C  C288  1  0.91164075  0.92435605  0.77232686  1  -0.032607  0  -0.082963  -0.177675  0  3.953258  0
C  C289  1  0.08835846  0.57564417  0.27232699  1  -0.032611  0  -0.082952  -0.177716  0  3.953224  0
C  C290  1  0.58835902  0.42435657  0.22767381  1  -0.032624  0  -0.082942  -0.177743  0  3.953311  0
C  C291  1  0.41164066  0.07564412  0.72767346  1  -0.032607  0  -0.082955  -0.177631  0  3.953255  0
C  C292  1  0.08836009  0.07564549  0.22767421  1  -0.032646  0  -0.082948  -0.177691  0  3.953286  0
C  C293  1  0.91163959  0.42435520  0.72767357  1  -0.032684  0  -0.082958  -0.177641  0  3.953271  0
C  C294  1  0.41164113  0.57564389  0.77232624  1  -0.03257  0  -0.082966  -0.177719  0  3.953205  0
C  C295  1  0.58836019  0.92435525  0.27232659  1  -0.032619  0  -0.082946  -0.177647  0  3.953293  0
C  C296  1  0.68468296  0.82897070  0.74023941  1  -0.056393  0  -0.080592  -0.103311  0  3.954092  0
C  C297  1  0.31531838  0.67102730  0.24024007  1  -0.056414  0  -0.080568  -0.103284  0  3.954042  0
C  C298  1  0.81531760  0.32897223  0.25976013  1  -0.05644  0  -0.080584  -0.103333  0  3.953989  0
C  C299  1  0.18468206  0.17102850  0.75976101  1  -0.056417  0  -0.080594  -0.103312  0  3.954025  0
C  C300  1  0.31531999  0.17102812  0.25976115  1  -0.056295  0  -0.080561  -0.103255  0  3.953946  0
C  C301  1  0.68468176  0.32897098  0.75976100  1  -0.056353  0  -0.080562  -0.103277  0  3.954049  0
C  C302  1  0.18468115  0.67102768  0.74023941  1  -0.056376  0  -0.08056  -0.103278  0  3.95392  0
C  C303  1  0.81531879  0.82897141  0.24023853  1  -0.056391  0  -0.080563  -0.103255  0  3.953988  0
C  C304  1  0.66801339  0.14383118  0.18996011  1  -0.03917  0  -0.084231  -0.112793  0  3.952982  0
C  C305  1  0.33198561  0.35617218  0.68995962  1  -0.039402  0  -0.084234  -0.112908  0  3.953071  0
C  C306  1  0.83198452  0.64382749  0.81004073  1  -0.039424  0  -0.084276  -0.112944  0  3.953145  0
C  C307  1  0.16801467  0.85617169  0.31004117  1  -0.039356  0  -0.08427  -0.112944  0  3.953183  0
C  C308  1  0.33198535  0.85616927  0.81003994  1  -0.039143  0  -0.084196  -0.112778  0  3.952948  0
C  C309  1  0.66801593  0.64382828  0.31004145  1  -0.039326  0  -0.084294  -0.113019  0  3.953275  0
C  C310  1  0.16801423  0.35617133  0.18995829  1  -0.039431  0  -0.084272  -0.112928  0  3.953128  0
C  C311  1  0.83198268  0.14382822  0.68995939  1  -0.039368  0  -0.084253  -0.112894  0  3.953215  0
C  C312  1  0.95009213  0.97656705  0.81507898  1  0.521254  0  0.043796  0.088959  0  3.972732  0
C  C313  1  0.04990916  0.52343378  0.31507855  1  0.521236  0  0.04384  0.089028  0  3.972869  0
C  C314  1  0.54990830  0.47656643  0.18492175  1  0.521236  0  0.043857  0.089054  0  3.97279  0
C  C315  1  0.45009141  0.02343365  0.68492133  1  0.521288  0  0.043808  0.088959  0  3.9728  0
C  C316  1  0.04990732  0.02343341  0.18492107  1  0.521237  0  0.043863  0.089044  0  3.97281  0
C  C317  1  0.95009239  0.47656667  0.68492098  1  0.521262  0  0.043775  0.088888  0  3.972838  0
C  C318  1  0.45009114  0.52343457  0.81507881  1  0.521262  0  0.043841  0.089024  0  3.972847  0
C  C319  1  0.54990874  0.97656626  0.31507872  1  0.521253  0  0.043841  0.088998  0  3.972792  0
C  C320  1  0.51393294  0.30189845  0.06877881  1  0.456301  0  0.043562  0.094168  0  3.973685  0
C  C321  1  0.48606755  0.19810147  0.56877807  1  0.456233  0  0.043556  0.094169  0  3.973748  0
C  C322  1  0.98606554  0.80189757  0.93122120  1  0.456215  0  0.043594  0.094258  0  3.973689  0
C  C323  1  0.01393286  0.69810233  0.43122202  1  0.456555  0  0.04355  0.094209  0  3.973675  0
C  C324  1  0.48606790  0.69810146  0.93122124  1  0.456167  0  0.043584  0.09425  0  3.973736  0
C  C325  1  0.51393399  0.80189680  0.43122147  1  0.456417  0  0.043537  0.094196  0  3.973757  0
C  C326  1  0.01393321  0.19810288  0.06877885  1  0.456323  0  0.043489  0.094163  0  3.973816  0
C  C327  1  0.98606588  0.30189758  0.56877854  1  0.456449  0  0.043587  0.09428  0  3.973658  0
N  N328  1  0.55528681  0.33405676  0.01487676  1  -1.22079  0  -0.332824  -0.244867  0  3.525056  0
N  N329  1  0.44471372  0.16594364  0.51487753  1  -1.220794  0  -0.33283  -0.244842  0  3.525141  0
N  N330  1  0.94471304  0.83405598  0.98512278  1  -1.220769  0  -0.332835  -0.244905  0  3.525055  0
N  N331  1  0.05528602  0.66594454  0.48512252  1  -1.220892  0  -0.332803  -0.244838  0  3.525035  0
N  N332  1  0.44471403  0.66594370  0.98512278  1  -1.220789  0  -0.332866  -0.244954  0  3.52509  0
N  N333  1  0.55528782  0.83405573  0.48512303  1  -1.220706  0  -0.332844  -0.244913  0  3.525039  0
N  N334  1  0.05528571  0.16594339  0.01487778  1  -1.220879  0  -0.332836  -0.244902  0  3.52502  0
N  N335  1  0.94471343  0.33405537  0.51487753  1  -1.220744  0  -0.332824  -0.24492  0  3.525084  0
N  N336  1  0.90814809  0.99866783  0.87300713  1  -1.237654  0  -0.330822  -0.239681  0  3.510175  0
N  N337  1  0.09185105  0.50133253  0.37300615  1  -1.237651  0  -0.330883  -0.239745  0  3.510289  0
N  N338  1  0.59185092  0.49866766  0.12699363  1  -1.237642  0  -0.330897  -0.239789  0  3.510195  0
N  N339  1  0.40814953  0.00133234  0.62699319  1  -1.237646  0  -0.330837  -0.239685  0  3.510157  0
N  N340  1  0.09185136  0.00133262  0.12699394  1  -1.237686  0  -0.330896  -0.239758  0  3.510304  0
N  N341  1  0.90814909  0.49866792  0.62699339  1  -1.23765  0  -0.330837  -0.239699  0  3.510228  0
N  N342  1  0.40814853  0.50133279  0.87300591  1  -1.237663  0  -0.330888  -0.23974  0  3.51027  0
N  N343  1  0.59185062  0.99866757  0.37300583  1  -1.23764  0  -0.330872  -0.239728  0  3.510219  0
O  O344  1  0.88280593  0.94403683  0.11575600  1  -1.160949  0  -0.32683  -0.551695  0  2.22667  0
O  O345  1  0.11719410  0.55596427  0.61575473  1  -1.160847  0  -0.326818  -0.551686  0  2.226616  0
O  O346  1  0.61719662  0.44403551  0.88424469  1  -1.160937  0  -0.326801  -0.551693  0  2.226801  0
O  O347  1  0.38280504  0.05596539  0.38424519  1  -1.160913  0  -0.326806  -0.55171  0  2.226596  0
O  O348  1  0.11719491  0.05596308  0.88424609  1  -1.160815  0  -0.326859  -0.551739  0  2.226887  0
O  O349  1  0.88280395  0.44403292  0.38424226  1  -1.161084  0  -0.326778  -0.551672  0  2.226642  0
O  O350  1  0.38280562  0.55596385  0.11575383  1  -1.160849  0  -0.326785  -0.551643  0  2.226751  0
O  O351  1  0.61719511  0.94403452  0.61575435  1  -1.160928  0  -0.326805  -0.551674  0  2.226659  0
O  O352  1  0.90195235  0.02493936  0.03150388  1  -1.20354  0  -0.339687  -0.593894  0  2.357179  0
O  O353  1  0.09804608  0.47505997  0.53150413  1  -1.203581  0  -0.339648  -0.593855  0  2.357215  0
O  O354  1  0.59804567  0.52493819  0.96849529  1  -1.203548  0  -0.339703  -0.593897  0  2.357211  0
O  O355  1  0.40195550  0.97506013  0.46849526  1  -1.203541  0  -0.339666  -0.593933  0  2.357135  0
O  O356  1  0.09804710  0.97505892  0.96849566  1  -1.203583  0  -0.339682  -0.5939  0  2.35719  0
O  O357  1  0.90195757  0.52493722  0.46849438  1  -1.203541  0  -0.339697  -0.593912  0  2.357134  0
O  O358  1  0.40195378  0.47506009  0.03150271  1  -1.203625  0  -0.339721  -0.59395  0  2.357174  0
O  O359  1  0.59804534  0.02493869  0.53150326  1  -1.203581  0  -0.339681  -0.593902  0  2.357194  0
O  O360  1  0.82990932  0.65754989  0.56826639  1  -1.170291  0  -0.337108  -0.575371  0  2.196161  0
O  O361  1  0.17009424  0.84245005  0.06826732  1  -1.170314  0  -0.337103  -0.575321  0  2.196177  0
O  O362  1  0.67009277  0.15755010  0.43173293  1  -1.17029  0  -0.337107  -0.575296  0  2.196204  0
O  O363  1  0.32990675  0.34245033  0.93173294  1  -1.170332  0  -0.337136  -0.575348  0  2.196207  0
O  O364  1  0.17009362  0.34245057  0.43173366  1  -1.170346  0  -0.337102  -0.575314  0  2.196081  0
O  O365  1  0.82990730  0.15755040  0.93173273  1  -1.170295  0  -0.3371  -0.575316  0  2.196207  0
O  O366  1  0.32990598  0.84245036  0.56826711  1  -1.170315  0  -0.337135  -0.57538  0  2.196093  0
O  O367  1  0.67009130  0.65754958  0.06826609  1  -1.170318  0  -0.337171  -0.575491  0  2.196116  0
O  O368  1  0.94494397  0.67954663  0.64343594  1  -1.168986  0  -0.334251  -0.559458  0  2.187894  0
O  O369  1  0.05505884  0.82045450  0.14343535  1  -1.168828  0  -0.334135  -0.559311  0  2.188057  0
O  O370  1  0.55505811  0.17954625  0.35656495  1  -1.168899  0  -0.334187  -0.559331  0  2.188039  0
O  O371  1  0.44494147  0.32045461  0.85656488  1  -1.16887  0  -0.334149  -0.559352  0  2.188051  0
O  O372  1  0.05505967  0.32045382  0.35656513  1  -1.16879  0  -0.334153  -0.55935  0  2.188096  0
O  O373  1  0.94494131  0.17954704  0.85656470  1  -1.168904  0  -0.334217  -0.559383  0  2.18808  0
O  O374  1  0.44493994  0.82045420  0.64343510  1  -1.168818  0  -0.334153  -0.559355  0  2.188115  0
O  O375  1  0.55505658  0.67954693  0.14343619  1  -1.16894  0  -0.334235  -0.559433  0  2.187907  0
