# generated using pymatgen
data_HgH11C13Br2N3
_symmetry_space_group_name_H-M   'P 1'
_cell_length_a   8.09510614
_cell_length_b   9.11903383
_cell_length_c   10.92042530
_cell_angle_alpha   102.22900574
_cell_angle_beta   96.48941887
_cell_angle_gamma   112.01215904
_symmetry_Int_Tables_number   1
_chemical_formula_structural   HgH11C13Br2N3
_chemical_formula_sum   'Hg2 H22 C26 Br4 N6'
_cell_volume   713.75841128
_cell_formula_units_Z   2
loop_
 _symmetry_equiv_pos_site_id
 _symmetry_equiv_pos_as_xyz
  1  'x, y, z'
loop_
 _atom_site_type_symbol
 _atom_site_label
 _atom_site_symmetry_multiplicity
 _atom_site_fract_x
 _atom_site_fract_y
 _atom_site_fract_z
 _atom_site_occupancy
 _atom_site_hle17_bader_spin_density
 _atom_site_hle17_ddec_charge
 _atom_site_hle17_ddec_spin_density
 _atom_site_hle17_ddec_sum_bond_order
 _atom_site_hle17_magmom
 _atom_site_hse06_10hf_bader_spin_density
 _atom_site_hse06_10hf_ddec_charge
 _atom_site_hse06_10hf_ddec_spin_density
 _atom_site_hse06_10hf_ddec_sum_bond_order
 _atom_site_hse06_10hf_magmom
 _atom_site_hse06_bader_spin_density
 _atom_site_hse06_ddec_charge
 _atom_site_hse06_ddec_spin_density
 _atom_site_hse06_ddec_sum_bond_order
 _atom_site_hse06_magmom
 _atom_site_pbe_bader_spin_density
 _atom_site_pbe_cm5_charge
 _atom_site_pbe_ddec_charge
 _atom_site_pbe_ddec_spin_density
 _atom_site_pbe_ddec_sum_bond_order
 _atom_site_pbe_magmom
Hg  Hg0  1  0.45013678  0.08199429  0.70590375  1  0  0.667377  0  2.11706  0  0  0.519761  0  2.616412  0  0  0.567562  0  2.584447  0  0  0.462053  0.487706  0  2.637594  0
Hg  Hg1  1  0.54985788  0.91800955  0.29409953  1  0  0.667425  0  2.117035  0  0  0.51982  0  2.616388  0  0  0.567617  0  2.584427  0  0  0.462066  0.487762  0  2.637569  0
H  H2  1  0.52359107  0.77336734  0.79468317  1  0  0.086514  0  0.968195  0  0  0.092842  0  1.041657  0  0  0.095296  0  1.03831  0  0  0.125947  0.091006  0  1.044164  0
H  H3  1  0.47640629  0.22664265  0.20532047  1  0  0.08652  0  0.968241  0  0  0.092887  0  1.041629  0  0  0.095342  0  1.038282  0  0  0.125964  0.09105  0  1.044138  0
H  H4  1  0.95958982  0.85115496  0.65326727  1  0  0.111387  0  0.959055  0  0  0.1196  0  1.023944  0  0  0.123123  0  1.021524  0  0  0.092368  0.116862  0  1.026152  0
H  H5  1  0.04038518  0.14882166  0.34672243  1  0  0.111351  0  0.95907  0  0  0.119557  0  1.023969  0  0  0.123059  0  1.021573  0  0  0.092361  0.116819  0  1.026178  0
H  H6  1  0.91473515  0.27808648  0.63352718  1  0  0.109455  0  0.975709  0  0  0.11519  0  1.045148  0  0  0.118842  0  1.042695  0  0  0.090105  0.112516  0  1.047079  0
H  H7  1  0.08528085  0.72190660  0.36647576  1  0  0.109497  0  0.975809  0  0  0.115265  0  1.045162  0  0  0.118917  0  1.042718  0  0  0.090134  0.112587  0  1.047095  0
H  H8  1  0.47339450  0.47786642  0.74751329  1  0  0.093844  0  0.921666  0  0  0.111331  0  0.983649  0  0  0.111349  0  0.984774  0  0  0.117194  0.111244  0  0.982961  0
H  H9  1  0.52661479  0.52214248  0.25249012  1  0  0.093784  0  0.921765  0  0  0.111232  0  0.983825  0  0  0.111246  0  0.984954  0  0  0.11717  0.111147  0  0.983137  0
H  H10  1  0.26224927  0.32859087  0.65141074  1  0  0.097924  0  0.947343  0  0  0.107947  0  1.019595  0  0  0.109352  0  1.018334  0  0  0.107414  0.106981  0  1.020274  0
H  H11  1  0.73775949  0.67141680  0.34859333  1  0  0.097921  0  0.9473  0  0  0.107949  0  1.019567  0  0  0.109353  0  1.018307  0  0  0.107421  0.106985  0  1.020245  0
H  H12  1  0.64265495  0.32479238  0.55945202  1  0  0.072061  0  1.006174  0  0  0.076953  0  1.08445  0  0  0.079427  0  1.083414  0  0  0.076008  0.075159  0  1.085287  0
H  H13  1  0.35735329  0.67518593  0.44054865  1  0  0.072044  0  1.006174  0  0  0.07694  0  1.084449  0  0  0.079415  0  1.083409  0  0  0.076008  0.075135  0  1.085292  0
H  H14  1  0.66295620  0.60670793  0.57193733  1  0  0.081864  0  0.965912  0  0  0.094212  0  1.026572  0  0  0.096834  0  1.025592  0  0  0.088188  0.092309  0  1.027281  0
H  H15  1  0.33702825  0.39325903  0.42805410  1  0  0.081852  0  0.965775  0  0  0.094172  0  1.026485  0  0  0.09681  0  1.025488  0  0  0.088133  0.09227  0  1.027192  0
H  H16  1  0.13531578  0.42973139  0.13205259  1  0  0.087617  0  0.973893  0  0  0.096281  0  1.039539  0  0  0.09752  0  1.040368  0  0  0.100514  0.095417  0  1.038879  0
H  H17  1  0.86469960  0.57028857  0.86795047  1  0  0.087695  0  0.973854  0  0  0.096341  0  1.039522  0  0  0.09758  0  1.040351  0  0  0.100573  0.095475  0  1.038862  0
H  H18  1  0.27180065  0.03756452  0.94237995  1  0  0.074495  0  0.969249  0  0  0.075969  0  1.046914  0  0  0.078934  0  1.043999  0  0  0.099118  0.073633  0  1.049283  0
H  H19  1  0.72819514  0.96244180  0.05762568  1  0  0.074571  0  0.969316  0  0  0.07609  0  1.046878  0  0  0.079061  0  1.043964  0  0  0.099159  0.073749  0  1.04925  0
H  H20  1  0.21309468  0.55762995  0.95535334  1  0  0.108059  0  0.987031  0  0  0.112193  0  1.058671  0  0  0.11597  0  1.057037  0  0  0.092924  0.109423  0  1.06024  0
H  H21  1  0.78691334  0.44237892  0.04464906  1  0  0.107892  0  0.987099  0  0  0.112014  0  1.058786  0  0  0.115804  0  1.057136  0  0  0.092839  0.109242  0  1.060357  0
H  H22  1  0.15768238  0.15823317  0.12348358  1  0  0.101077  0  0.966933  0  0  0.108653  0  1.033326  0  0  0.111289  0  1.033562  0  0  0.099039  0.106637  0  1.033543  0
H  H23  1  0.84232392  0.84178554  0.87652775  1  0  0.100965  0  0.966934  0  0  0.108583  0  1.033317  0  0  0.111213  0  1.033549  0  0  0.099015  0.106568  0  1.03353  0
C  C24  1  0.37732304  0.72377267  0.75884042  1  0  0.198875  0  3.670918  0  0  0.134048  0  3.944928  0  0  0.152543  0  3.954126  0  0  0.154652  0.121922  0  3.93856  0
C  C25  1  0.62267476  0.27623850  0.24115889  1  0  0.198772  0  3.670907  0  0  0.133902  0  3.944945  0  0  0.152396  0  3.954145  0  0  0.154602  0.12178  0  3.938578  0
C  C26  1  0.10418775  0.70226889  0.69212449  1  0  0.145708  0  3.82257  0  0  0.144892  0  4.066083  0  0  0.14853  0  4.08958  0  0  0.085399  0.142425  0  4.050133  0
C  C27  1  0.89580063  0.29772382  0.30787087  1  0  0.145696  0  3.822539  0  0  0.144823  0  4.066099  0  0  0.148475  0  4.089569  0  0  0.085389  0.142348  0  4.050165  0
C  C28  1  0.94989341  0.72835251  0.65199275  1  0  -0.138277  0  3.742393  0  0  -0.155778  0  3.991582  0  0  -0.158253  0  4.010944  0  0  -0.098146  -0.153976  0  3.978245  0
C  C29  1  0.05008970  0.27162545  0.34800053  1  0  -0.138191  0  3.742289  0  0  -0.155664  0  3.991449  0  0  -0.158127  0  4.010822  0  0  -0.098106  -0.153851  0  3.978096  0
C  C30  1  0.92583817  0.40246360  0.64013026  1  0  -0.136773  0  3.752897  0  0  -0.154328  0  4.004004  0  0  -0.157097  0  4.024549  0  0  -0.096794  -0.152318  0  3.990316  0
C  C31  1  0.07416945  0.59753054  0.35986492  1  0  -0.136859  0  3.752794  0  0  -0.154473  0  4.004017  0  0  -0.157224  0  4.024507  0  0  -0.096825  -0.152473  0  3.990356  0
C  C32  1  0.32499245  0.42954173  0.74061614  1  0  -0.067439  0  3.649764  0  0  -0.133757  0  3.894295  0  0  -0.130084  0  3.904031  0  0  -0.044363  -0.136061  0  3.887282  0
C  C33  1  0.67501791  0.57046962  0.25938686  1  0  -0.067321  0  3.649762  0  0  -0.133653  0  3.894392  0  0  -0.129978  0  3.904135  0  0  -0.044307  -0.135957  0  3.887381  0
C  C34  1  0.09038937  0.54116717  0.68676783  1  0  0.097314  0  3.766759  0  0  0.089513  0  4.004264  0  0  0.093009  0  4.026711  0  0  0.091017  0.087184  0  3.989388  0
C  C35  1  0.90960570  0.45882931  0.31323143  1  0  0.097435  0  3.766696  0  0  0.089657  0  4.004195  0  0  0.093152  0  4.026643  0  0  0.091065  0.08733  0  3.98932  0
C  C36  1  0.77337219  0.43030894  0.59936344  1  0  -0.081717  0  3.792407  0  0  -0.095638  0  4.046975  0  0  -0.098813  0  4.071066  0  0  -0.107662  -0.093592  0  4.030891  0
C  C37  1  0.22662942  0.56967166  0.40062800  1  0  -0.081722  0  3.792191  0  0  -0.095597  0  4.046651  0  0  -0.098771  0  4.070752  0  0  -0.107667  -0.09354  0  4.030573  0
C  C38  1  0.78496583  0.59012966  0.60601572  1  0  -0.089696  0  3.79784  0  0  -0.105445  0  4.052537  0  0  -0.107801  0  4.075319  0  0  -0.107177  -0.10364  0  4.0368  0
C  C39  1  0.21502215  0.40984831  0.39397242  1  0  -0.089693  0  3.797639  0  0  -0.105437  0  4.052358  0  0  -0.107805  0  4.075133  0  0  -0.107173  -0.103631  0  4.036621  0
C  C40  1  0.27839174  0.36222229  0.85353779  1  0  0.238075  0  3.711459  0  0  0.240494  0  3.956411  0  0  0.248262  0  3.977414  0  0  0.117967  0.235334  0  3.942126  0
C  C41  1  0.72161333  0.63778285  0.14646099  1  0  0.238246  0  3.711323  0  0  0.240613  0  3.956403  0  0  0.24838  0  3.97741  0  0  0.118056  0.235452  0  3.942122  0
C  C42  1  0.17944146  0.36949050  0.05317725  1  0  0.011497  0  3.723007  0  0  -0.003152  0  3.96719  0  0  0.001532  0  3.98532  0  0  -0.07064  -0.005919  0  3.954532  0
C  C43  1  0.82057371  0.63052335  0.94682564  1  0  0.011371  0  3.723032  0  0  -0.00324  0  3.967188  0  0  0.001442  0  3.985318  0  0  -0.070703  -0.006005  0  3.954529  0
C  C44  1  0.25444475  0.15171077  0.94761940  1  0  0.123788  0  3.727517  0  0  0.095919  0  3.979197  0  0  0.103112  0  3.997534  0  0  0.038219  0.091371  0  3.966433  0
C  C45  1  0.74555400  0.84829678  0.05238300  1  0  0.123747  0  3.727501  0  0  0.095895  0  3.979177  0  0  0.10308  0  3.997518  0  0  0.03825  0.09135  0  3.966411  0
C  C46  1  0.22250539  0.44121371  0.95375937  1  0  -0.160461  0  3.702767  0  0  -0.180263  0  3.950567  0  0  -0.187955  0  3.970658  0  0  -0.093534  -0.175423  0  3.937304  0
C  C47  1  0.77750874  0.55879769  0.04624484  1  0  -0.16024  0  3.702742  0  0  -0.18004  0  3.950583  0  0  -0.18774  0  3.97067  0  0  -0.093434  -0.175197  0  3.937319  0
C  C48  1  0.19344136  0.22086977  0.04949345  1  0  -0.13775  0  3.753434  0  0  -0.150471  0  4.00239  0  0  -0.158492  0  4.024612  0  0  -0.094632  -0.144952  0  3.987  0
C  C49  1  0.80656245  0.77913786  0.95051208  1  0  -0.137686  0  3.753493  0  0  -0.150467  0  4.002467  0  0  -0.158476  0  4.024679  0  0  -0.094674  -0.144948  0  3.987071  0
Br  Br50  1  0.28835463  0.06370766  0.48645117  1  0  -0.425801  0  1.100774  0  0  -0.369365  0  1.418514  0  0  -0.388247  0  1.397464  0  0  -0.2076  -0.356444  0  1.433306  0
Br  Br51  1  0.71164099  0.93629005  0.51354834  1  0  -0.425794  0  1.100741  0  0  -0.369367  0  1.418503  0  0  -0.388248  0  1.397454  0  0  -0.207607  -0.356445  0  1.433292  0
Br  Br52  1  0.73702174  0.15303075  0.87043884  1  0  -0.4231  0  1.012024  0  0  -0.366025  0  1.308416  0  0  -0.385397  0  1.293449  0  0  -0.228315  -0.353293  0  1.319744  0
Br  Br53  1  0.26297306  0.84697064  0.12956310  1  0  -0.423136  0  1.012021  0  0  -0.36608  0  1.308442  0  0  -0.385452  0  1.293472  0  0  -0.228341  -0.353344  0  1.319772  0
N  N54  1  0.28567011  0.81268459  0.73758063  1  0  -0.388731  0  3.182799  0  0  -0.325668  0  3.46556  0  0  -0.347178  0  3.48168  0  0  -0.335734  -0.311156  0  3.454304  0
N  N55  1  0.71431898  0.18731796  0.26242109  1  0  -0.388733  0  3.182748  0  0  -0.325644  0  3.465517  0  0  -0.347158  0  3.481637  0  0  -0.335756  -0.31113  0  3.454264  0
N  N56  1  0.26749251  0.56002365  0.73054293  1  0  -0.113008  0  3.533433  0  0  -0.021172  0  3.748949  0  0  -0.037915  0  3.772854  0  0  -0.241087  -0.010042  0  3.732591  0
N  N57  1  0.73251113  0.43998392  0.26945525  1  0  -0.113058  0  3.533655  0  0  -0.021184  0  3.749159  0  0  -0.037927  0  3.773062  0  0  -0.241093  -0.010057  0  3.732803  0
N  N58  1  0.29616572  0.22079536  0.85190827  1  0  -0.344195  0  3.201208  0  0  -0.274744  0  3.454945  0  0  -0.295275  0  3.475558  0  0  -0.312443  -0.260322  0  3.440332  0
N  N59  1  0.70383609  0.77921346  0.14809549  1  0  -0.344335  0  3.201149  0  0  -0.274883  0  3.45494  0  0  -0.295414  0  3.475554  0  0  -0.312519  -0.260461  0  3.440328  0
