# generated using pymatgen
data_Zn4H10C32S4O25F8
_symmetry_space_group_name_H-M   'P 1'
_cell_length_a   13.03533728
_cell_length_b   13.08877949
_cell_length_c   17.96950623
_cell_angle_alpha   69.99559247
_cell_angle_beta   69.77022996
_cell_angle_gamma   87.28203036
_symmetry_Int_Tables_number   1
_chemical_formula_structural   Zn4H10C32S4O25F8
_chemical_formula_sum   'Zn4 H10 C32 S4 O25 F8'
_cell_volume   2694.45950160
_cell_formula_units_Z   1
loop_
 _symmetry_equiv_pos_site_id
 _symmetry_equiv_pos_as_xyz
  1  'x, y, z'
loop_
 _atom_site_type_symbol
 _atom_site_label
 _atom_site_symmetry_multiplicity
 _atom_site_fract_x
 _atom_site_fract_y
 _atom_site_fract_z
 _atom_site_occupancy
 _atom_site_pbe_bader_charge
 _atom_site_pbe_bader_spin_density
 _atom_site_pbe_cm5_charge
 _atom_site_pbe_ddec_charge
 _atom_site_pbe_ddec_spin_density
 _atom_site_pbe_ddec_sum_bond_order
 _atom_site_pbe_magmom
Zn  Zn0  1  0.58195752  0.55982161  0.55671014  1  1.337159  0  0.695744  0.990684  0  2.34842  0
Zn  Zn1  1  0.60378809  0.41408716  0.44067753  1  1.311905  0  0.680867  0.968142  0  2.350089  0
Zn  Zn2  1  0.45723213  0.61461761  0.42407807  1  1.34265  0  0.694479  0.994083  0  2.314471  0
Zn  Zn3  1  0.38017085  0.39996608  0.59643128  1  1.315794  0  0.684705  0.974818  0  2.325819  0
H  H4  1  0.57586052  0.10702527  0.44664015  1  0.133915  0  0.128638  0.148646  0  0.95863  0
H  H5  1  0.77998043  0.51403898  0.25382828  1  0.656246  0  0.314764  0.37973  0  0.928084  0
H  H6  1  0.57084240  0.95767858  0.38312514  1  0.12288  0  0.129602  0.171107  0  0.957448  0
H  H7  1  0.93696508  0.37952571  0.47723927  1  0.135369  0  0.132421  0.164249  0  0.939396  0
H  H8  1  0.04866923  0.54120124  0.57815275  1  0.159895  0  0.136242  0.173475  0  0.936079  0
H  H9  1  0.72762438  0.70492547  0.88189339  1  0.150422  0  0.124547  0.15724  0  0.96914  0
H  H10  1  0.34063472  0.43695545  0.17173304  1  0.131814  0  0.111114  0.146704  0  1.028265  0
H  H11  1  0.26296833  0.16495666  0.63287550  1  0.649182  0  0.321943  0.386852  0  0.913621  0
H  H12  1  0.08555683  0.75876314  0.39814024  1  0.648898  0  0.357098  0.411857  0  0.82175  0
H  H13  1  0.09071001  0.50860864  0.29121848  1  0.647054  0  0.363172  0.417719  0  0.813828  0
C  C14  1  0.45704383  0.21079365  0.53982194  1  1.596892  0  0.239087  0.645172  0  4.138353  0
C  C15  1  0.58776720  0.60669900  0.90316684  1  0.447363  0  0.109717  0.262173  0  4.061761  0
C  C16  1  0.66044888  0.64560910  0.92851093  1  0.048966  0  -0.095819  -0.247111  0  3.990223  0
C  C17  1  0.55417372  0.78207215  0.45646406  1  1.611744  0  0.234874  0.686815  0  4.144622  0
C  C18  1  0.64396709  0.61301411  0.01569722  1  -6.8e-05  0  -0.004801  0.017873  0  4.045304  0
C  C19  1  0.54676085  0.54703311  0.07680952  1  0.095589  0  -0.003967  -0.05945  0  3.948104  0
C  C20  1  0.72098067  0.65005445  0.04250958  1  0.491021  0  0.114122  0.239928  0  4.024013  0
C  C21  1  0.70453939  0.62820759  0.12681297  1  -0.061543  0  -0.024422  -0.217749  0  3.981692  0
C  C22  1  0.53305470  0.52705162  0.16242535  1  0.45037  0  0.107154  0.224387  0  3.992858  0
C  C23  1  0.55714322  0.89880651  0.44618923  1  0.016311  0  -0.087017  -0.343547  0  3.824485  0
C  C24  1  0.52818235  0.93488011  0.51200749  1  0.525045  0  0.119416  0.329875  0  4.068961  0
C  C25  1  0.27718845  0.40575594  0.87490874  1  0.502339  0  0.107517  0.191084  0  4.073956  0
C  C26  1  0.44190292  0.09170662  0.55565128  1  -0.098098  0  -0.016684  -0.226312  0  3.846512  0
C  C27  1  0.51601728  0.04871187  0.50286869  1  -0.012345  0  -0.049647  -0.105149  0  3.926581  0
C  C28  1  0.11247079  0.53454796  0.52183997  1  0.002226  0  -0.05889  -0.191257  0  3.82545  0
C  C29  1  0.78337313  0.45927779  0.48740428  1  1.613111  0  0.233534  0.661261  0  4.168543  0
C  C30  1  0.08365212  0.53176584  0.45765435  1  -0.150332  0  -0.016261  -0.106687  0  4.012755  0
C  C31  1  0.90260496  0.45787001  0.47478460  1  0.071626  0  -0.059657  -0.186386  0  3.831174  0
C  C32  1  0.96923077  0.54254680  0.46076798  1  -0.193369  0  -0.010417  -0.085005  0  4.003509  0
C  C33  1  0.22636694  0.52871720  0.52356972  1  1.637974  0  0.232683  0.661901  0  4.180415  0
C  C34  1  0.57789702  0.54261675  0.28115099  1  1.620174  0  0.239131  0.636582  0  4.161906  0
C  C35  1  0.42230854  0.44723944  0.72875899  1  1.631384  0  0.233308  0.646997  0  4.150682  0
C  C36  1  0.45874560  0.47017897  0.85111121  1  0.504547  0  0.120908  0.258289  0  3.993063  0
C  C37  1  0.38626269  0.43925608  0.81924660  1  0.079459  0  -0.027248  -0.236956  0  3.971324  0
C  C38  1  0.60616971  0.56684787  0.18796407  1  0.07025  0  -0.022506  -0.145325  0  4.011442  0
C  C39  1  0.24490490  0.39998548  0.95824147  1  0.660935  0  0.093284  0.131478  0  4.07285  0
C  C40  1  0.42652664  0.48047161  0.93171446  1  0.104867  0  -0.005783  -0.040089  0  3.966579  0
C  C41  1  0.31787079  0.43529859  0.98864202  1  0.009989  0  -0.00854  -0.090383  0  4.033729  0
C  C42  1  0.49738000  0.52864861  0.95979904  1  0.062359  0  -0.003054  -0.057521  0  3.932426  0
C  C43  1  0.47103031  0.50758299  0.04795821  1  0.030305  0  0.009543  0.10357  0  3.942062  0
C  C44  1  0.36642548  0.45304091  0.10435245  1  0.09881  0  -0.100234  -0.266591  0  3.971965  0
C  C45  1  0.29293510  0.42481122  0.07477523  1  0.439526  0  0.107763  0.280988  0  4.04479  0
S  S46  1  0.32666714  0.01241662  0.64485005  1  3.127021  0  0.5307  1.17166  0  6.045377  0
S  S47  1  0.92342887  0.67700940  0.45215821  1  3.084678  0  0.542747  1.147265  0  6.006506  0
S  S48  1  0.18712243  0.51924924  0.36424710  1  3.08246  0  0.542271  1.152019  0  5.983218  0
S  S49  1  0.79882132  0.67348818  0.16414500  1  3.139815  0  0.537348  1.172536  0  6.022774  0
O  O50  1  0.50433923  0.49467776  0.50431510  1  -1.23347  0  -0.571047  -1.038938  0  2.525291  0
O  O51  1  0.63699419  0.47585335  0.31668637  1  -1.167806  0  -0.305615  -0.557746  0  2.347664  0
O  O52  1  0.37368528  0.38171218  0.71054533  1  -1.150435  0  -0.310233  -0.537189  0  2.316161  0
O  O53  1  0.49747274  0.58707835  0.31674598  1  -1.14467  0  -0.284552  -0.49944  0  2.349939  0
O  O54  1  0.49715808  0.52183936  0.67716302  1  -1.159176  0  -0.30396  -0.531856  0  2.35754  0
O  O55  1  0.29576832  0.92042973  0.62907572  1  -1.276446  0  -0.311572  -0.513827  0  2.114147  0
O  O56  1  0.34995554  0.00070850  0.71977880  1  -1.270103  0  -0.316875  -0.52512  0  2.077812  0
O  O57  1  0.23315367  0.09390396  0.63628544  1  -1.214022  0  -0.363267  -0.520858  0  2.138428  0
O  O58  1  0.83710504  0.69520877  0.41817026  1  -1.272893  0  -0.289525  -0.48478  0  2.155084  0
O  O59  1  0.91421277  0.69322207  0.52944754  1  -1.267322  0  -0.305065  -0.516602  0  2.090622  0
O  O60  1  0.02753473  0.75165821  0.37667986  1  -1.190802  0  -0.348545  -0.514197  0  2.153715  0
O  O61  1  0.72307879  0.49450836  0.54425067  1  -1.16518  0  -0.302353  -0.536872  0  2.329541  0
O  O62  1  0.22342420  0.62629111  0.30172248  1  -1.272484  0  -0.304383  -0.51672  0  2.109703  0
O  O63  1  0.26142092  0.44379663  0.39118102  1  -1.272998  0  -0.296177  -0.497226  0  2.143172  0
O  O64  1  0.11866922  0.45535977  0.33183399  1  -1.19763  0  -0.350342  -0.526286  0  2.144971  0
O  O65  1  0.89075312  0.73850168  0.09569311  1  -1.279371  0  -0.298485  -0.493199  0  2.116558  0
O  O66  1  0.73223180  0.71186764  0.23045829  1  -1.283856  0  -0.311982  -0.526011  0  2.124878  0
O  O67  1  0.84392002  0.56016954  0.20566421  1  -1.226738  0  -0.368851  -0.530012  0  2.137733  0
O  O68  1  0.24027557  0.44779525  0.58213073  1  -1.14959  0  -0.304261  -0.524671  0  2.275337  0
O  O69  1  0.54383333  0.26228674  0.48070538  1  -1.170472  0  -0.30434  -0.528665  0  2.333824  0
O  O70  1  0.51560957  0.75762974  0.40755149  1  -1.144448  0  -0.311337  -0.539503  0  2.265887  0
O  O71  1  0.38354221  0.25176476  0.58791886  1  -1.181414  0  -0.298132  -0.547413  0  2.361406  0
O  O72  1  0.58740300  0.71732251  0.51281553  1  -1.151475  0  -0.300473  -0.530542  0  2.352214  0
O  O73  1  0.75396776  0.41942237  0.44167216  1  -1.148689  0  -0.308709  -0.532272  0  2.271753  0
O  O74  1  0.29531019  0.60685766  0.46862051  1  -1.177139  0  -0.306112  -0.542406  0  2.310801  0
F  F75  1  0.19199321  0.38093697  0.13129493  1  -0.614986  0  -0.096354  -0.134746  0  1.333587  0
F  F76  1  0.81173570  0.70950211  0.98101664  1  -0.615503  0  -0.076323  -0.104783  0  1.372999  0
F  F77  1  0.50699541  0.86541680  0.59177661  1  -0.610672  0  -0.073945  -0.106905  0  1.375911  0
F  F78  1  0.44495718  0.46254148  0.22571549  1  -0.629495  0  -0.076907  -0.111058  0  1.410679  0
F  F79  1  0.14109835  0.36064812  0.00920743  1  -0.607129  0  -0.089341  -0.107257  0  1.375047  0
F  F80  1  0.20158401  0.37760237  0.84859122  1  -0.609455  0  -0.080413  -0.094432  0  1.373386  0
F  F81  1  0.56652121  0.48177118  0.80494219  1  -0.61337  0  -0.079038  -0.108535  0  1.42473  0
F  F82  1  0.59853649  0.65230786  0.82073124  1  -0.615339  0  -0.086981  -0.121576  0  1.377944  0
