# generated using pymatgen
data_HoH7C14(NO4)2
_symmetry_space_group_name_H-M   'P 1'
_cell_length_a   8.36667362
_cell_length_b   12.21827023
_cell_length_c   13.39615470
_cell_angle_alpha   102.41157938
_cell_angle_beta   90.00015922
_cell_angle_gamma   90.00002238
_symmetry_Int_Tables_number   1
_chemical_formula_structural   HoH7C14(NO4)2
_chemical_formula_sum   'Ho4 H28 C56 N8 O32'
_cell_volume   1337.43370031
_cell_formula_units_Z   4
loop_
 _symmetry_equiv_pos_site_id
 _symmetry_equiv_pos_as_xyz
  1  'x, y, z'
loop_
 _atom_site_type_symbol
 _atom_site_label
 _atom_site_symmetry_multiplicity
 _atom_site_fract_x
 _atom_site_fract_y
 _atom_site_fract_z
 _atom_site_occupancy
 _atom_site_hle17_bader_spin_density
 _atom_site_hle17_ddec_charge
 _atom_site_hle17_ddec_spin_density
 _atom_site_hle17_ddec_sum_bond_order
 _atom_site_hle17_magmom
 _atom_site_hse06_10hf_bader_charge
 _atom_site_hse06_10hf_bader_spin_density
 _atom_site_hse06_10hf_ddec_charge
 _atom_site_hse06_10hf_ddec_spin_density
 _atom_site_hse06_10hf_ddec_sum_bond_order
 _atom_site_hse06_10hf_magmom
 _atom_site_hse06_bader_spin_density
 _atom_site_hse06_ddec_charge
 _atom_site_hse06_ddec_spin_density
 _atom_site_hse06_ddec_sum_bond_order
 _atom_site_hse06_magmom
 _atom_site_pbe_bader_spin_density
 _atom_site_pbe_cm5_charge
 _atom_site_pbe_ddec_charge
 _atom_site_pbe_ddec_spin_density
 _atom_site_pbe_ddec_sum_bond_order
 _atom_site_pbe_magmom
Ho  Ho0  1  0.73023939  0.80230012  0.68155805  1  0  2.170137  0  1.725547  0  2.188762  0  1.992722  0  2.23922  0  0  2.04613  0  2.195196  0  0  1.554135  1.952721  0  2.272844  0
Ho  Ho1  1  0.76975936  0.80230103  0.18155868  1  0  2.170117  0  1.725565  0  2.188764  0  1.992674  0  2.239258  0  0  2.046087  0  2.195233  0  0  1.554094  1.952693  0  2.272837  0
Ho  Ho2  1  0.26975911  0.19769914  0.31844180  1  0  2.170143  0  1.725506  0  2.188788  0  1.992734  0  2.239145  0  0  2.046144  0  2.195118  0  0  1.554104  1.952754  0  2.272733  0
Ho  Ho3  1  0.23023914  0.19769907  0.81844133  1  0  2.170143  0  1.725592  0  2.188758  0  1.992733  0  2.239249  0  0  2.046143  0  2.195223  0  0  1.554138  1.952737  0  2.272866  0
H  H4  1  0.40313678  0.66218654  0.65785916  1  0  0.450467  0  0.848597  0  0.697143  0  0.414441  0  0.91976  0  0  0.427923  0  0.900561  0  0  0.319386  0.404965  0  0.933194  0
H  H5  1  0.09686341  0.66218648  0.15785856  1  0  0.450496  0  0.848557  0  0.697148  0  0.414467  0  0.919724  0  0  0.427949  0  0.900526  0  0  0.3194  0.40499  0  0.933161  0
H  H6  1  0.59686530  0.33781440  0.34214400  1  0  0.450515  0  0.848531  0  0.697134  0  0.414485  0  0.919698  0  0  0.427966  0  0.9005  0  0  0.319422  0.40501  0  0.933133  0
H  H7  1  0.90313389  0.33781446  0.84214236  1  0  0.45048  0  0.848584  0  0.69713  0  0.414444  0  0.919761  0  0  0.427925  0  0.900563  0  0  0.319395  0.404969  0  0.933194  0
H  H8  1  0.71063150  0.33742645  0.59419966  1  0  0.109717  0  0.965527  0  0.135577  0  0.116291  0  1.031171  0  0  0.118992  0  1.031071  0  0  0.110008  0.114324  0  1.03139  0
H  H9  1  0.78936778  0.33742653  0.09419942  1  0  0.109761  0  0.96545  0  0.135694  0  0.116339  0  1.031089  0  0  0.11904  0  1.03099  0  0  0.110019  0.114375  0  1.031312  0
H  H10  1  0.28936818  0.66257365  0.40580034  1  0  0.109739  0  0.965533  0  0.135571  0  0.116316  0  1.031166  0  0  0.119017  0  1.031067  0  0  0.110015  0.114349  0  1.031387  0
H  H11  1  0.21063191  0.66257357  0.90579984  1  0  0.10976  0  0.965507  0  0.135675  0  0.116343  0  1.031134  0  0  0.119043  0  1.031035  0  0  0.110019  0.114376  0  1.031359  0
H  H12  1  0.01063885  0.30747261  0.59272216  1  0  0.124156  0  0.944924  0  0.201571  0  0.132276  0  1.002449  0  0  0.136629  0  0.998893  0  0  0.119176  0.129042  0  1.005195  0
H  H13  1  0.48935845  0.30747367  0.09272171  1  0  0.124103  0  0.944977  0  0.201577  0  0.13223  0  1.0025  0  0  0.136582  0  0.998947  0  0  0.119172  0.129005  0  1.005236  0
H  H14  1  0.98936203  0.69252749  0.40727785  1  0  0.124123  0  0.944951  0  0.201569  0  0.132253  0  1.002476  0  0  0.136606  0  0.998921  0  0  0.11917  0.129028  0  1.005208  0
H  H15  1  0.51064123  0.69252643  0.90727681  1  0  0.124155  0  0.944941  0  0.201566  0  0.132285  0  1.002463  0  0  0.136638  0  0.998908  0  0  0.119186  0.129072  0  1.005186  0
H  H16  1  0.18938503  0.47591752  0.62510832  1  0  0.12884  0  0.956853  0  0.141122  0  0.131558  0  1.026516  0  0  0.136309  0  1.02325  0  0  0.111909  0.128083  0  1.029051  0
H  H17  1  0.31061251  0.47592013  0.12510935  1  0  0.128796  0  0.95687  0  0.141275  0  0.131518  0  1.026544  0  0  0.136268  0  1.02328  0  0  0.111925  0.128045  0  1.029078  0
H  H18  1  0.81061465  0.52408174  0.37489227  1  0  0.128854  0  0.956835  0  0.141137  0  0.131574  0  1.026498  0  0  0.136326  0  1.023229  0  0  0.111922  0.128097  0  1.029034  0
H  H19  1  0.68938718  0.52408081  0.87489082  1  0  0.128802  0  0.956868  0  0.141111  0  0.131517  0  1.026547  0  0  0.136266  0  1.023282  0  0  0.111903  0.128041  0  1.029086  0
H  H20  1  0.40738630  0.84272961  0.33413148  1  0  0.126041  0  0.969346  0  0.131327  0  0.132569  0  1.032885  0  0  0.136499  0  1.03081  0  0  0.117002  0.129648  0  1.03457  0
H  H21  1  0.09261716  0.84272945  0.83413225  1  0  0.126086  0  0.9693  0  0.131353  0  0.13262  0  1.032831  0  0  0.136551  0  1.030751  0  0  0.117004  0.129697  0  1.034515  0
H  H22  1  0.59261577  0.15726965  0.66586836  1  0  0.126063  0  0.969306  0  0.131337  0  0.132595  0  1.032836  0  0  0.136524  0  1.030762  0  0  0.117009  0.129671  0  1.034516  0
H  H23  1  0.90738492  0.15726981  0.16586759  1  0  0.126083  0  0.969317  0  0.131344  0  0.13262  0  1.032839  0  0  0.136549  0  1.030766  0  0  0.117013  0.129698  0  1.034526  0
H  H24  1  0.15106840  0.91592247  0.42114534  1  0  0.12017  0  0.956236  0  0.156667  0  0.129802  0  1.010733  0  0  0.133824  0  1.007663  0  0  0.117105  0.12681  0  1.013115  0
H  H25  1  0.34893310  0.91592333  0.92114750  1  0  0.120052  0  0.956328  0  0.156676  0  0.129684  0  1.010805  0  0  0.133706  0  1.007736  0  0  0.117076  0.126691  0  1.01319  0
H  H26  1  0.84893248  0.08407595  0.57885360  1  0  0.120097  0  0.95632  0  0.156658  0  0.129733  0  1.010804  0  0  0.133755  0  1.007737  0  0  0.117083  0.126739  0  1.013187  0
H  H27  1  0.65106898  0.08407510  0.07885293  1  0  0.120073  0  0.956309  0  0.156672  0  0.129706  0  1.010802  0  0  0.133727  0  1.007735  0  0  0.117078  0.126712  0  1.013187  0
H  H28  1  0.14508558  0.97185829  0.61325447  1  0  0.134726  0  0.952599  0  0.194011  0  0.139707  0  1.015961  0  0  0.144446  0  1.01247  0  0  0.121612  0.136215  0  1.018699  0
H  H29  1  0.35491458  0.97185758  0.11325792  1  0  0.134714  0  0.952593  0  0.193703  0  0.139676  0  1.015976  0  0  0.144387  0  1.012523  0  0  0.121595  0.136185  0  1.018718  0
H  H30  1  0.85491410  0.02814014  0.38674372  1  0  0.13474  0  0.952573  0  0.194004  0  0.139686  0  1.015979  0  0  0.144418  0  1.012499  0  0  0.1216  0.136196  0  1.018717  0
H  H31  1  0.64508630  0.02814001  0.88674309  1  0  0.134738  0  0.952573  0  0.193999  0  0.139692  0  1.015965  0  0  0.144423  0  1.012487  0  0  0.121601  0.136201  0  1.018702  0
C  C32  1  0.56029232  0.53858948  0.62856897  1  0  0.637231  0  3.802716  0  1.560635  0  0.586905  0  4.101663  0  0  0.619087  0  4.092842  0  0  0.243681  0.564907  0  4.107241  0
C  C33  1  0.93970723  0.53858967  0.12856826  1  0  0.637432  0  3.802498  0  1.560653  0  0.587033  0  4.101531  0  0  0.619221  0  4.092698  0  0  0.243743  0.565021  0  4.107127  0
C  C34  1  0.43970976  0.46141230  0.37143361  1  0  0.637268  0  3.802716  0  1.560665  0  0.586927  0  4.101687  0  0  0.619106  0  4.09287  0  0  0.243668  0.564924  0  4.107276  0
C  C35  1  0.06028887  0.46141295  0.87143373  1  0  0.637296  0  3.802681  0  1.560708  0  0.586931  0  4.101677  0  0  0.619104  0  4.09287  0  0  0.243697  0.564932  0  4.107262  0
C  C36  1  0.73570372  0.51658070  0.62683292  1  0  0.103666  0  3.773342  0  0.569657  0  0.10765  0  4.017523  0  0  0.107203  0  4.036455  0  0  0.12091  0.107851  0  4.004737  0
C  C37  1  0.76429581  0.51658161  0.12683354  1  0  0.103525  0  3.773302  0  0.5697  0  0.10757  0  4.017451  0  0  0.107122  0  4.036377  0  0  0.12084  0.107785  0  4.00465  0
C  C38  1  0.26429597  0.48341940  0.37316709  1  0  0.103661  0  3.773364  0  0.569693  0  0.107652  0  4.017542  0  0  0.107207  0  4.036474  0  0  0.120914  0.107867  0  4.004734  0
C  C39  1  0.23570388  0.48341849  0.87316647  1  0  0.103647  0  3.773363  0  0.569703  0  0.107668  0  4.01752  0  0  0.107224  0  4.036452  0  0  0.120887  0.107878  0  4.004719  0
C  C40  1  0.79418447  0.40722972  0.60808592  1  0  -0.072967  0  3.647642  0  -0.056144  0  -0.099623  0  3.898471  0  0  -0.101627  0  3.916968  0  0  -0.060973  -0.098338  0  3.886129  0
C  C41  1  0.70581132  0.40722890  0.10808536  1  0  -0.073097  0  3.647624  0  -0.056221  0  -0.099774  0  3.898481  0  0  -0.101779  0  3.916976  0  0  -0.061  -0.09849  0  3.886147  0
C  C42  1  0.20581521  0.59277122  0.39191425  1  0  -0.072982  0  3.647791  0  -0.055725  0  -0.099629  0  3.898621  0  0  -0.101633  0  3.917117  0  0  -0.060954  -0.098349  0  3.886277  0
C  C43  1  0.29418597  0.59277120  0.89191390  1  0  -0.073098  0  3.647608  0  -0.056226  0  -0.099772  0  3.898457  0  0  -0.101776  0  3.916953  0  0  -0.061007  -0.098486  0  3.886124  0
C  C44  1  0.95903134  0.39121828  0.60800319  1  0  0.013579  0  3.631609  0  -0.077887  0  -0.005508  0  3.888488  0  0  -0.003703  0  3.903663  0  0  -0.05408  -0.006643  0  3.878282  0
C  C45  1  0.54096683  0.39121903  0.10800339  1  0  0.013749  0  3.631639  0  -0.077915  0  -0.005332  0  3.888534  0  0  -0.003527  0  3.903711  0  0  -0.054  -0.006475  0  3.878327  0
C  C46  1  0.04097073  0.60878182  0.39199682  1  0  0.013611  0  3.631699  0  -0.078341  0  -0.005507  0  3.888608  0  0  -0.003702  0  3.903781  0  0  -0.054087  -0.006647  0  3.878389  0
C  C47  1  0.45903285  0.60878191  0.89199678  1  0  0.013612  0  3.631611  0  -0.077921  0  -0.005486  0  3.88852  0  0  -0.003683  0  3.903697  0  0  -0.054083  -0.006641  0  3.878312  0
C  C48  1  0.05959391  0.48466148  0.62575596  1  0  -0.085648  0  3.626505  0  0.042726  0  -0.112913  0  3.883813  0  0  -0.116398  0  3.902881  0  0  -0.063663  -0.110565  0  3.871133  0
C  C49  1  0.44040603  0.48466251  0.12575766  1  0  -0.085534  0  3.626492  0  0.043003  0  -0.112847  0  3.883839  0  0  -0.116331  0  3.902908  0  0  -0.063718  -0.110499  0  3.871164  0
C  C50  1  0.94040817  0.51533778  0.37424313  1  0  -0.085652  0  3.626492  0  0.043191  0  -0.112908  0  3.883807  0  0  -0.116393  0  3.902875  0  0  -0.063683  -0.110553  0  3.871124  0
C  C51  1  0.55959366  0.51533927  0.87424267  1  0  -0.085505  0  3.626424  0  0.043197  0  -0.112789  0  3.883729  0  0  -0.116273  0  3.902799  0  0  -0.063608  -0.110437  0  3.871055  0
C  C52  1  0.99099639  0.59141888  0.64371712  1  0  0.107361  0  3.74003  0  0.438167  0  0.111878  0  3.983399  0  0  0.111937  0  4.002699  0  0  0.121511  0.11165  0  3.970345  0
C  C53  1  0.50900325  0.59141876  0.14371859  1  0  0.107353  0  3.74013  0  0.437728  0  0.111903  0  3.983461  0  0  0.111961  0  4.002761  0  0  0.121604  0.111667  0  3.970416  0
C  C54  1  0.00900449  0.40858206  0.35628155  1  0  0.107329  0  3.740008  0  0.437371  0  0.111837  0  3.983375  0  0  0.111893  0  4.002679  0  0  0.121498  0.111603  0  3.970333  0
C  C55  1  0.49099524  0.40858050  0.85628050  1  0  0.107292  0  3.740102  0  0.437406  0  0.111855  0  3.98343  0  0  0.111911  0  4.002731  0  0  0.121502  0.11162  0  3.970379  0
C  C56  1  0.08707571  0.69900066  0.66441313  1  0  0.653713  0  3.902666  0  1.677846  0  0.603441  0  4.20018  0  0  0.637394  0  4.190099  0  0  0.226159  0.580541  0  4.206088  0
C  C57  1  0.41292333  0.69900334  0.16441436  1  0  0.653622  0  3.902753  0  1.67785  0  0.603413  0  4.200147  0  0  0.637368  0  4.190066  0  0  0.226153  0.580505  0  4.206074  0
C  C58  1  0.91292398  0.30099860  0.33558596  1  0  0.653701  0  3.902821  0  1.677843  0  0.603457  0  4.200285  0  0  0.637412  0  4.190209  0  0  0.226164  0.580543  0  4.20622  0
C  C59  1  0.58707397  0.30099760  0.83558432  1  0  0.653726  0  3.902453  0  1.677818  0  0.603435  0  4.199988  0  0  0.637391  0  4.189909  0  0  0.226167  0.580531  0  4.205903  0
C  C60  1  0.68479665  0.79213342  0.43719293  1  0  0.699947  0  3.855413  0  1.674599  0  0.652294  0  4.149109  0  0  0.687833  0  4.136866  0  0  0.240923  0.628209  0  4.156424  0
C  C61  1  0.81520442  0.79213173  0.93719304  1  0  0.699864  0  3.855567  0  1.674581  0  0.652215  0  4.149228  0  0  0.68776  0  4.136987  0  0  0.240874  0.628134  0  4.15655  0
C  C62  1  0.31520185  0.20786668  0.56280708  1  0  0.699917  0  3.855474  0  1.674621  0  0.652323  0  4.149078  0  0  0.687865  0  4.136837  0  0  0.240948  0.628248  0  4.156372  0
C  C63  1  0.18479646  0.20786837  0.06280697  1  0  0.699935  0  3.855376  0  1.674605  0  0.652242  0  4.149108  0  0  0.687787  0  4.136866  0  0  0.240893  0.628171  0  4.156408  0
C  C64  1  0.52568692  0.84142062  0.47701021  1  0  0.096503  0  3.758268  0  0.501785  0  0.098534  0  4.005449  0  0  0.098442  0  4.024447  0  0  0.115907  0.098368  0  3.99273  0
C  C65  1  0.97431196  0.84141905  0.97701137  1  0  0.096536  0  3.758184  0  0.501989  0  0.098594  0  4.005336  0  0  0.098497  0  4.024337  0  0  0.115965  0.098416  0  3.992626  0
C  C66  1  0.47431157  0.15857948  0.52298980  1  0  0.096466  0  3.758281  0  0.501747  0  0.09849  0  4.005449  0  0  0.098395  0  4.024449  0  0  0.115915  0.098325  0  3.992713  0
C  C67  1  0.02568892  0.15858105  0.02298939  1  0  0.096521  0  3.758169  0  0.50175  0  0.098593  0  4.005326  0  0  0.098496  0  4.024325  0  0  0.115957  0.098421  0  3.992606  0
C  C68  1  0.39692953  0.86103686  0.41710154  1  0  -0.08877  0  3.632557  0  -0.015125  0  -0.114277  0  3.886262  0  0  -0.116631  0  3.903954  0  0  -0.06558  -0.112697  0  3.874537  0
C  C69  1  0.10307192  0.86103586  0.91710291  1  0  -0.08885  0  3.632424  0  -0.015285  0  -0.114394  0  3.886129  0  0  -0.116745  0  3.903819  0  0  -0.065614  -0.112806  0  3.874401  0
C  C70  1  0.60307016  0.13896324  0.58289772  1  0  -0.088756  0  3.632443  0  -0.015095  0  -0.114276  0  3.886156  0  0  -0.116628  0  3.903849  0  0  -0.065591  -0.112692  0  3.874417  0
C  C71  1  0.89692896  0.13896340  0.08289768  1  0  -0.088883  0  3.632511  0  -0.015092  0  -0.114413  0  3.886224  0  0  -0.116765  0  3.903916  0  0  -0.065633  -0.112831  0  3.8745  0
C  C72  1  0.25555447  0.90425499  0.46605386  1  0  0.012259  0  3.625084  0  -0.098817  0  -0.004089  0  3.876661  0  0  -0.002262  0  3.89201  0  0  -0.054629  -0.005186  0  3.866246  0
C  C73  1  0.24444722  0.90425326  0.96605608  1  0  0.012407  0  3.625044  0  -0.098866  0  -0.003887  0  3.876549  0  0  -0.002057  0  3.891886  0  0  -0.054539  -0.004983  0  3.866138  0
C  C74  1  0.74444641  0.09574427  0.53394524  1  0  0.012294  0  3.625077  0  -0.098852  0  -0.004049  0  3.876641  0  0  -0.002224  0  3.891991  0  0  -0.054617  -0.005147  0  3.866225  0
C  C75  1  0.75555366  0.09574516  0.03394509  1  0  0.012365  0  3.625095  0  -0.09882  0  -0.003968  0  3.876642  0  0  -0.002141  0  3.891991  0  0  -0.054601  -0.005068  0  3.866235  0
C  C76  1  0.25054795  0.93414322  0.57229579  1  0  -0.076083  0  3.626817  0  0.025648  0  -0.102628  0  3.879014  0  0  -0.104902  0  3.894941  0  0  -0.057654  -0.10117  0  3.868562  0
C  C77  1  0.24945440  0.93414076  0.07229797  1  0  -0.076154  0  3.626821  0  0.026612  0  -0.102701  0  3.879018  0  0  -0.104958  0  3.894959  0  0  -0.057728  -0.101247  0  3.868572  0
C  C78  1  0.74945174  0.06585605  0.42770331  1  0  -0.076055  0  3.626837  0  0.025656  0  -0.102612  0  3.879008  0  0  -0.104882  0  3.89494  0  0  -0.057649  -0.10116  0  3.868564  0
C  C79  1  0.75054887  0.06585683  0.92770379  1  0  -0.076124  0  3.626806  0  0.025609  0  -0.102628  0  3.879013  0  0  -0.104898  0  3.894949  0  0  -0.057659  -0.101174  0  3.868562  0
C  C80  1  0.38591488  0.91361804  0.62620504  1  0  0.111684  0  3.764713  0  0.504421  0  0.11521  0  4.008352  0  0  0.116561  0  4.024871  0  0  0.12334  0.114064  0  3.997393  0
C  C81  1  0.11408650  0.91361464  0.12620531  1  0  0.111811  0  3.764671  0  0.503785  0  0.115301  0  4.008316  0  0  0.116653  0  4.024826  0  0  0.123388  0.114166  0  3.99735  0
C  C82  1  0.61408600  0.08638122  0.37379331  1  0  0.111528  0  3.764827  0  0.504394  0  0.115178  0  4.008324  0  0  0.116528  0  4.024842  0  0  0.123275  0.114023  0  3.997376  0
C  C83  1  0.88591438  0.08638294  0.87379570  1  0  0.111753  0  3.764571  0  0.504465  0  0.115214  0  4.008274  0  0  0.116557  0  4.024802  0  0  0.123331  0.114074  0  3.997305  0
C  C84  1  0.40056015  0.94337696  0.74040984  1  0  0.695491  0  3.844878  0  1.66252  0  0.645214  0  4.138174  0  0  0.68138  0  4.123814  0  0  0.244379  0.620641  0  4.147108  0
C  C85  1  0.09944056  0.94337523  0.24041115  1  0  0.695475  0  3.845039  0  1.662419  0  0.645252  0  4.138236  0  0  0.681422  0  4.123875  0  0  0.244396  0.620654  0  4.147203  0
C  C86  1  0.59944073  0.05662230  0.25958926  1  0  0.695672  0  3.844868  0  1.662573  0  0.645319  0  4.138213  0  0  0.681488  0  4.123848  0  0  0.244417  0.62075  0  4.147148  0
C  C87  1  0.90055793  0.05662403  0.75958869  1  0  0.695461  0  3.844925  0  1.662438  0  0.645226  0  4.138169  0  0  0.681398  0  4.123808  0  0  0.24438  0.620642  0  4.147111  0
N  N88  1  0.83184594  0.60658051  0.64462141  1  0  -0.41992  0  3.294915  0  -1.264349  0  -0.372933  0  3.545399  0  0  -0.385258  0  3.565724  0  0  -0.38216  -0.364193  0  3.53145  0
N  N89  1  0.66815372  0.60658218  0.14462202  1  0  -0.419912  0  3.295001  0  -1.264362  0  -0.372957  0  3.545481  0  0  -0.385282  0  3.565806  0  0  -0.382192  -0.364215  0  3.531517  0
N  N90  1  0.16815495  0.39341959  0.35537934  1  0  -0.419907  0  3.294874  0  -1.264018  0  -0.372924  0  3.545367  0  0  -0.385251  0  3.565693  0  0  -0.38216  -0.364188  0  3.53141  0
N  N91  1  0.33184596  0.39341875  0.85537741  1  0  -0.419922  0  3.295073  0  -1.264028  0  -0.372962  0  3.545543  0  0  -0.385289  0  3.565868  0  0  -0.382153  -0.364226  0  3.531587  0
N  N92  1  0.51716645  0.86488167  0.57954561  1  0  -0.460515  0  3.367881  0  -1.311297  0  -0.411018  0  3.618388  0  0  -0.425063  0  3.640217  0  0  -0.401011  -0.401118  0  3.603532  0
N  N93  1  0.98283666  0.86487853  0.07954432  1  0  -0.460531  0  3.367889  0  -1.311321  0  -0.411044  0  3.618407  0  0  -0.425088  0  3.640239  0  0  -0.401012  -0.40114  0  3.603541  0
N  N94  1  0.48283444  0.13511843  0.42045515  1  0  -0.460439  0  3.367859  0  -1.311258  0  -0.410984  0  3.618331  0  0  -0.425028  0  3.640159  0  0  -0.400973  -0.401087  0  3.603474  0
N  N95  1  0.01716661  0.13511989  0.92045536  1  0  -0.460503  0  3.367833  0  -1.311314  0  -0.411005  0  3.618357  0  0  -0.425045  0  3.640186  0  0  -0.400983  -0.401106  0  3.603497  0
O  O96  1  0.52622630  0.64936642  0.65230119  1  0  -0.66365  0  2.189699  0  -1.214609  0  -0.60495  0  2.427757  0  0  -0.629438  0  2.409828  0  0  -0.362189  -0.587431  0  2.439588  0
O  O97  1  0.97377103  0.64936746  0.15229996  1  0  -0.663723  0  2.189652  0  -1.214616  0  -0.605008  0  2.427749  0  0  -0.629497  0  2.409816  0  0  -0.362203  -0.587483  0  2.439582  0
O  O98  1  0.47377578  0.35063452  0.34770197  1  0  -0.663687  0  2.189592  0  -1.214572  0  -0.604986  0  2.427662  0  0  -0.629474  0  2.409738  0  0  -0.36217  -0.587456  0  2.439475  0
O  O99  1  0.02622388  0.35063347  0.84770096  1  0  -0.663687  0  2.189597  0  -1.214568  0  -0.604969  0  2.427674  0  0  -0.629454  0  2.409751  0  0  -0.362191  -0.587437  0  2.43948  0
O  O100  1  0.45897840  0.46478421  0.61133134  1  0  -0.50172  0  1.921983  0  -1.160679  0  -0.459259  0  2.129013  0  0  -0.47872  0  2.12318  0  0  -0.262958  -0.445966  0  2.132896  0
O  O101  1  0.04102027  0.46478578  0.11132946  1  0  -0.501806  0  1.921839  0  -1.160677  0  -0.459315  0  2.128907  0  0  -0.478777  0  2.123072  0  0  -0.263001  -0.446023  0  2.132807  0
O  O102  1  0.54102128  0.53521673  0.38867182  1  0  -0.501747  0  1.922043  0  -1.160751  0  -0.45929  0  2.129095  0  0  -0.478747  0  2.123262  0  0  -0.262972  -0.445997  0  2.132986  0
O  O103  1  0.95897822  0.53521767  0.88867195  1  0  -0.501745  0  1.922018  0  -1.1608  0  -0.459283  0  2.129089  0  0  -0.47874  0  2.123262  0  0  -0.262983  -0.445996  0  2.132982  0
O  O104  1  0.00655750  0.78918888  0.67383513  1  0  -0.700619  0  2.067604  0  -1.19887  0  -0.65054  0  2.323801  0  0  -0.676167  0  2.314407  0  0  -0.390126  -0.632353  0  2.329374  0
O  O105  1  0.49344283  0.78919245  0.17383667  1  0  -0.700568  0  2.067649  0  -1.198904  0  -0.650492  0  2.32377  0  0  -0.676112  0  2.314363  0  0  -0.39012  -0.632306  0  2.329348  0
O  O106  1  0.99344219  0.21080871  0.32616439  1  0  -0.700615  0  2.067629  0  -1.198877  0  -0.650542  0  2.323802  0  0  -0.676153  0  2.314371  0  0  -0.390134  -0.632348  0  2.329382  0
O  O107  1  0.50655446  0.21080765  0.82616259  1  0  -0.700634  0  2.067485  0  -1.198896  0  -0.650539  0  2.323655  0  0  -0.676146  0  2.31422  0  0  -0.390151  -0.632354  0  2.329232  0
O  O108  1  0.23641704  0.69557092  0.67445365  1  0  -0.611168  0  2.019142  0  -1.227391  0  -0.560369  0  2.24878  0  0  -0.585446  0  2.239261  0  0  -0.309862  -0.542885  0  2.2548  0
O  O109  1  0.26358204  0.69557182  0.17445353  1  0  -0.611153  0  2.019189  0  -1.227407  0  -0.560367  0  2.248774  0  0  -0.585445  0  2.239254  0  0  -0.309862  -0.54288  0  2.254807  0
O  O110  1  0.76358384  0.30443170  0.32554535  1  0  -0.611171  0  2.019259  0  -1.227392  0  -0.560386  0  2.248893  0  0  -0.585465  0  2.239372  0  0  -0.309853  -0.542902  0  2.254934  0
O  O111  1  0.73641645  0.30442744  0.82554258  1  0  -0.611188  0  2.019176  0  -1.227366  0  -0.560367  0  2.248795  0  0  -0.585446  0  2.239274  0  0  -0.309843  -0.542874  0  2.2548  0
O  O112  1  0.77785886  0.76724996  0.50415755  1  0  -0.691602  0  2.006841  0  -1.202609  0  -0.642957  0  2.25501  0  0  -0.668426  0  2.245768  0  0  -0.372489  -0.624926  0  2.260643  0
O  O113  1  0.72214505  0.76724664  0.00415652  1  0  -0.691557  0  2.0069  0  -1.202615  0  -0.642922  0  2.25509  0  0  -0.668393  0  2.245841  0  0  -0.372463  -0.624895  0  2.260726  0
O  O114  1  0.22214083  0.23275014  0.49584395  1  0  -0.691585  0  2.006814  0  -1.202616  0  -0.642964  0  2.254959  0  0  -0.668435  0  2.245709  0  0  -0.3725  -0.624942  0  2.260584  0
O  O115  1  0.27785583  0.23275178  0.99584316  1  0  -0.691585  0  2.006841  0  -1.202615  0  -0.642945  0  2.25506  0  0  -0.668418  0  2.245815  0  0  -0.372485  -0.624924  0  2.260695  0
O  O116  1  0.71707330  0.77951743  0.34310454  1  0  -0.721615  0  2.050391  0  -1.238804  0  -0.66997  0  2.318714  0  0  -0.69611  0  2.307288  0  0  -0.400653  -0.651365  0  2.325774  0
O  O117  1  0.78292376  0.77951405  0.84310501  1  0  -0.72156  0  2.050382  0  -1.238799  0  -0.669955  0  2.31877  0  0  -0.696068  0  2.307278  0  0  -0.400649  -0.651341  0  2.325835  0
O  O118  1  0.28292639  0.22048183  0.65689530  1  0  -0.721589  0  2.050409  0  -1.238818  0  -0.669986  0  2.31873  0  0  -0.696116  0  2.307276  0  0  -0.400666  -0.651381  0  2.325783  0
O  O119  1  0.21707593  0.22048437  0.15689541  1  0  -0.721594  0  2.050306  0  -1.238807  0  -0.669971  0  2.318704  0  0  -0.696094  0  2.307226  0  0  -0.400659  -0.651368  0  2.325759  0
O  O120  1  0.50769001  0.89256014  0.77994188  1  0  -0.680183  0  2.008414  0  -1.207851  0  -0.631666  0  2.255355  0  0  -0.655645  0  2.243039  0  0  -0.358032  -0.614751  0  2.263271  0
O  O121  1  0.99231280  0.89256036  0.27994351  1  0  -0.680241  0  2.00849  0  -1.207793  0  -0.631733  0  2.255411  0  0  -0.655711  0  2.243094  0  0  -0.358077  -0.614811  0  2.263328  0
O  O122  1  0.49231087  0.10743828  0.22005481  1  0  -0.680273  0  2.008302  0  -1.207885  0  -0.631723  0  2.255248  0  0  -0.655697  0  2.242925  0  0  -0.358068  -0.614812  0  2.263161  0
O  O123  1  0.00768449  0.10744225  0.72005773  1  0  -0.680209  0  2.008471  0  -1.207763  0  -0.631696  0  2.255378  0  0  -0.655674  0  2.243058  0  0  -0.358076  -0.614783  0  2.263297  0
O  O124  1  0.30824971  0.01834540  0.78991442  1  0  -0.721215  0  2.070909  0  -1.22973  0  -0.667756  0  2.340394  0  0  -0.694788  0  2.328813  0  0  -0.411082  -0.648422  0  2.347455  0
O  O125  1  0.19174949  0.01834206  0.28991558  1  0  -0.721215  0  2.071012  0  -1.22973  0  -0.667776  0  2.340481  0  0  -0.694796  0  2.328861  0  0  -0.411065  -0.64844  0  2.347555  0
O  O126  1  0.69174878  0.98165553  0.21008500  1  0  -0.721245  0  2.070967  0  -1.229756  0  -0.667769  0  2.340473  0  0  -0.694797  0  2.328887  0  0  -0.411045  -0.648438  0  2.347532  0
O  O127  1  0.80824661  0.98165804  0.71008443  1  0  -0.721193  0  2.070938  0  -1.229758  0  -0.667759  0  2.340438  0  0  -0.694775  0  2.328816  0  0  -0.411046  -0.648421  0  2.3475  0
