# generated using pymatgen
data_CoH16C20(BrN3)2
_symmetry_space_group_name_H-M   'P 1'
_cell_length_a   9.41882892
_cell_length_b   10.68424388
_cell_length_c   10.73388744
_cell_angle_alpha   67.43813574
_cell_angle_beta   80.85544710
_cell_angle_gamma   83.16133032
_symmetry_Int_Tables_number   1
_chemical_formula_structural   CoH16C20(BrN3)2
_chemical_formula_sum   'Co2 H32 C40 Br4 N12'
_cell_volume   982.83360851
_cell_formula_units_Z   2
loop_
 _symmetry_equiv_pos_site_id
 _symmetry_equiv_pos_as_xyz
  1  'x, y, z'
loop_
 _atom_site_type_symbol
 _atom_site_label
 _atom_site_symmetry_multiplicity
 _atom_site_fract_x
 _atom_site_fract_y
 _atom_site_fract_z
 _atom_site_occupancy
 _atom_site_hle17_ddec_charge
 _atom_site_hle17_ddec_spin_density
 _atom_site_hle17_ddec_sum_bond_order
 _atom_site_hle17_magmom
 _atom_site_hse06_10hf_ddec_charge
 _atom_site_hse06_10hf_ddec_spin_density
 _atom_site_hse06_10hf_ddec_sum_bond_order
 _atom_site_hse06_10hf_magmom
 _atom_site_hse06_ddec_charge
 _atom_site_hse06_ddec_spin_density
 _atom_site_hse06_ddec_sum_bond_order
 _atom_site_hse06_magmom
 _atom_site_pbe_cm5_charge
 _atom_site_pbe_ddec_charge
 _atom_site_pbe_ddec_spin_density
 _atom_site_pbe_ddec_sum_bond_order
 _atom_site_pbe_magmom
Co  Co0  1  0.25785214  0.63723426  0.66519278  1  0.687551  2.721493  2.345527  2.414  0.646242  2.748655  2.836853  2.49  0.750369  2.821463  2.745954  2.612  0.501102  0.569405  2.683883  2.904353  2.385
Co  Co1  1  0.74214809  0.36276226  0.33481081  1  0.687459  2.721448  2.345692  2.414  0.646288  2.748674  2.837049  2.49  0.750315  2.821431  2.746113  2.612  0.50109  0.569362  2.683853  2.904519  2.385
H  H2  1  0.61179028  0.19265320  0.80756826  1  0.093999  0.000565  0.988709  0.0  0.104649  0.000621  1.052496  0.0  0.109044  0.000406  1.048715  0.0  0.087212  0.100732  0.000883  1.056599  0.0
H  H3  1  0.38820861  0.80734742  0.19243026  1  0.094002  0.000568  0.988742  0.0  0.104653  0.000621  1.052525  0.0  0.109049  0.000405  1.048744  0.0  0.087189  0.100736  0.000883  1.056625  0.0
H  H4  1  0.87020390  0.81313910  0.18340011  1  0.087435  2.5e-05  0.969215  0.0  0.099698  8.5e-05  1.031274  0.0  0.103155  4.6e-05  1.029089  0.0  0.095532  0.096899  0.000157  1.0332  0.0
H  H5  1  0.12979909  0.18686457  0.81659672  1  0.087463  2.8e-05  0.969208  0.0  0.09972  8.4e-05  1.03128  0.0  0.103176  4.6e-05  1.029095  0.0  0.095546  0.096921  0.000157  1.033208  0.0
H  H6  1  0.60278801  0.39200123  0.95059316  1  0.08459  -7.2e-05  0.962544  0.0  0.096884  -1e-06  1.02305  0.0  0.099645  -2.4e-05  1.021987  0.0  0.097588  0.09484  3.6e-05  1.024  0.0
H  H7  1  0.39720979  0.60799935  0.04941019  1  0.084578  -7.1e-05  0.96267  0.0  0.09685  -1e-06  1.023187  0.0  0.09961  -2.4e-05  1.022123  0.0  0.097573  0.094808  3.6e-05  1.024137  0.0
H  H8  1  0.97975929  0.04659130  0.75781341  1  0.093068  0.000345  0.956701  0.0  0.103822  0.0004  1.019902  0.0  0.107022  0.000272  1.018049  0.0  0.095845  0.101222  0.000521  1.022007  0.0
H  H9  1  0.02024498  0.95340933  0.24218344  1  0.093039  0.000346  0.956749  0.0  0.103808  0.0004  1.019946  0.0  0.107009  0.000272  1.018091  0.0  0.095836  0.101206  0.000521  1.022047  0.0
H  H10  1  0.34016614  0.85655737  0.95556651  1  0.097732  -9.7e-05  0.962704  0.0  0.105917  -6.2e-05  1.029806  0.0  0.107867  -4.7e-05  1.029719  0.0  0.103071  0.104964  -8.1e-05  1.029351  0.0
H  H11  1  0.65983282  0.14344225  0.04443145  1  0.097706  -9.8e-05  0.962737  0.0  0.105914  -6.2e-05  1.029829  0.0  0.107863  -4.7e-05  1.029743  0.0  0.103073  0.104961  -8.1e-05  1.029372  0.0
H  H12  1  0.86149758  0.65296004  0.50598048  1  0.095556  -0.000129  0.949859  0.0  0.105944  -0.000141  1.01062  0.0  0.109672  -0.00016  1.008617  0.0  0.09764  0.102458  -6.9e-05  1.013528  0.0
H  H13  1  0.13850473  0.34703751  0.49402151  1  0.095582  -0.000125  0.949892  0.0  0.105978  -0.000141  1.010636  0.0  0.109703  -0.00016  1.008635  0.0  0.09767  0.102492  -6.9e-05  1.013543  0.0
H  H14  1  0.93560227  0.86052675  0.51678649  1  0.091631  -0.000177  0.959143  0.0  0.101924  -7.6e-05  1.021324  0.0  0.104934  -0.000122  1.020107  0.0  0.09413  0.099518  -4.3e-05  1.022442  0.0
H  H15  1  0.06439782  0.13947181  0.48321543  1  0.091635  -0.000173  0.959136  0.0  0.101944  -7.6e-05  1.021305  0.0  0.104954  -0.000122  1.020091  0.0  0.094136  0.099535  -4.3e-05  1.022428  0.0
H  H16  1  0.74836244  0.78068844  0.02398205  1  0.091933  0.000333  0.949375  0.0  0.104328  0.000376  1.019734  0.0  0.10695  0.000229  1.017709  0.0  0.10612  0.102142  0.000598  1.021524  0.0
H  H17  1  0.25163953  0.21931419  0.97601810  1  0.091949  0.000321  0.949392  0.0  0.104347  0.000376  1.019765  0.0  0.106967  0.000229  1.01774  0.0  0.106128  0.102161  0.000598  1.021556  0.0
H  H18  1  0.75592081  0.90115237  0.85402545  1  0.079535  -0.000164  0.947722  0.0  0.091308  7e-05  1.01808  0.0  0.091579  5.2e-05  1.019302  0.0  0.106614  0.090638  0.000164  1.018154  0.0
H  H19  1  0.24407915  0.09884823  0.14597573  1  0.079515  -0.00017  0.947727  0.0  0.091302  6.9e-05  1.018085  0.0  0.091571  5.2e-05  1.019307  0.0  0.106605  0.090631  0.000164  1.018156  0.0
H  H20  1  0.33314874  0.10115035  0.70861027  1  0.099005  3.6e-05  0.928585  0.0  0.113168  0.000163  0.994248  0.0  0.113816  0.000116  0.994276  0.0  0.119141  0.112366  0.000229  0.994493  0.0
H  H21  1  0.66685331  0.89885130  0.29138650  1  0.098994  4.2e-05  0.928568  0.0  0.113154  0.000163  0.994242  0.0  0.113804  0.000116  0.994272  0.0  0.119133  0.112368  0.000229  0.99447  0.0
H  H22  1  0.51688690  0.13413225  0.64980814  1  0.097179  0.000147  0.933981  0.0  0.108127  0.000196  1.004944  0.0  0.109841  0.000106  1.003505  0.0  0.11139  0.106519  0.000262  1.005924  0.0
H  H23  1  0.48311643  0.86586634  0.35019054  1  0.0972  0.00015  0.933961  0.0  0.108168  0.000196  1.004902  0.0  0.109884  0.000106  1.003465  0.0  0.111414  0.106559  0.000262  1.005882  0.0
H  H24  1  0.60727691  0.58523762  0.57836200  1  0.115114  -0.000175  0.967481  0.0  0.120702  -9e-06  1.035781  0.0  0.125132  -0.000116  1.032849  0.0  0.09893  0.117401  9.2e-05  1.038081  0.0
H  H25  1  0.39272433  0.41475993  0.42163921  1  0.115109  -0.000172  0.967541  0.0  0.120708  -9e-06  1.035823  0.0  0.125138  -0.000116  1.032891  0.0  0.098922  0.117406  9.2e-05  1.038124  0.0
H  H26  1  0.62979369  0.60349698  0.99027837  1  0.10414  0.000122  0.975418  0.0  0.112257  0.000125  1.041942  0.0  0.116075  4.3e-05  1.039715  0.0  0.098966  0.109345  0.000256  1.043776  0.0
H  H27  1  0.37020734  0.39650360  0.00972454  1  0.104157  0.000125  0.975373  0.0  0.11226  0.000125  1.041925  0.0  0.116081  4.3e-05  1.039688  0.0  0.098973  0.10935  0.000256  1.043755  0.0
H  H28  1  0.03716954  0.40047515  0.74437386  1  0.103752  -4.7e-05  0.971276  0.0  0.111121  0.000126  1.03989  0.0  0.114858  4.1e-05  1.037292  0.0  0.100126  0.107916  0.000244  1.042663  0.0
H  H29  1  0.96282828  0.59952548  0.25562388  1  0.103721  -4.9e-05  0.971358  0.0  0.11109  0.000126  1.039984  0.0  0.114825  4.1e-05  1.037387  0.0  0.100135  0.107883  0.000244  1.042758  0.0
H  H30  1  0.80290088  0.29160023  0.83305104  1  0.091738  0.000562  0.970009  0.0  0.105265  0.000492  1.027867  0.0  0.108264  0.000342  1.026685  0.0  0.095223  0.102838  0.00062  1.029335  0.0
H  H31  1  0.19709477  0.70840038  0.16694979  1  0.091745  0.000555  0.970025  0.0  0.105273  0.000492  1.027883  0.0  0.108272  0.000342  1.026701  0.0  0.095212  0.102852  0.00062  1.029343  0.0
H  H32  1  0.75932744  0.01554346  0.59998503  1  0.106374  0.000116  0.984654  0.0  0.111938  0.000136  1.05762  0.0  0.116093  1.8e-05  1.055605  0.0  0.093221  0.108718  0.000296  1.059306  0.0
H  H33  1  0.24067266  0.98445512  0.40001596  1  0.106375  0.000108  0.984629  0.0  0.11194  0.000136  1.057609  0.0  0.116097  1.7e-05  1.055589  0.0  0.093217  0.10872  0.000296  1.059293  0.0
C  C34  1  0.56249322  0.10860806  0.89244228  1  -0.114235  0.00191  3.753644  0.002  -0.128287  0.00172  3.991955  0.002  -0.12978  0.001109  4.011063  0.001  -0.095747  -0.127991  0.001853  3.981482  0.002
C  C35  1  0.43750782  0.89139257  0.10755595  1  -0.114378  0.001964  3.753922  0.002  -0.128441  0.00172  3.99224  0.002  -0.129933  0.001108  4.011346  0.001  -0.09581  -0.128143  0.001853  3.981762  0.002
C  C36  1  0.92748547  0.89536992  0.10300713  1  -0.108418  0.000157  3.743928  0.0  -0.126904  0.00022  3.987894  0.0  -0.130007  0.000135  4.010456  0.0  -0.08937  -0.123567  0.000332  3.972204  0.0
C  C37  1  0.07251651  0.10463273  0.89699114  1  -0.108387  0.000165  3.744083  0.0  -0.126897  0.000222  3.988041  0.0  -0.129998  0.000136  4.010607  0.0  -0.089359  -0.123558  0.000332  3.972349  0.0
C  C38  1  0.91553742  0.92003623  0.96720498  1  0.070808  -2.2e-05  3.761713  0.0  0.089874  6.2e-05  4.001775  0.0  0.088529  2.7e-05  4.027334  0.0  -0.01115  0.091704  0.000174  3.984909  0.0
C  C39  1  0.08446456  0.07996642  0.03279236  1  0.070826  -4.1e-05  3.761942  0.0  0.089921  6e-05  4.002006  0.0  0.088573  2.3e-05  4.027566  0.0  -0.01112  0.091748  0.000174  3.985137  0.0
C  C40  1  0.47392853  0.02723444  0.86663232  1  0.065684  0.000663  3.744721  0.001  0.085307  0.000759  3.984336  0.001  0.084073  0.000478  4.00792  0.001  -0.016215  0.085968  0.000714  3.968863  0.001
C  C41  1  0.52607043  0.97276517  0.13336658  1  0.065756  0.000595  3.744748  0.001  0.085376  0.00076  3.984385  0.001  0.084149  0.00048  4.007969  0.001  -0.016184  0.086036  0.000713  3.968914  0.001
C  C42  1  0.70396896  0.44175767  0.91534113  1  -0.041135  0.001535  3.73394  0.002  -0.060829  -2.1e-05  3.990775  0.0  -0.062576  -0.000251  4.012787  0.0  -0.084464  -0.059286  0.000344  3.975842  0.001
C  C43  1  0.29603100  0.55824291  0.08466192  1  -0.04112  0.001551  3.73401  0.002  -0.060793  -2.2e-05  3.990808  0.0  -0.062539  -0.00025  4.012817  0.0  -0.084393  -0.059255  0.000344  3.975881  0.001
C  C44  1  0.98858570  0.02564813  0.86411725  1  -0.097488  0.000612  3.739986  0.001  -0.121618  0.000667  3.992001  0.001  -0.12376  0.000445  4.012686  0.0  -0.088527  -0.12139  0.000836  3.978532  0.001
C  C45  1  0.01141743  0.97435351  0.13588031  1  -0.097433  0.000627  3.740109  0.001  -0.121619  0.000668  3.992158  0.001  -0.123764  0.000445  4.012848  0.0  -0.08854  -0.121403  0.000836  3.978712  0.001
C  C46  1  0.96342520  0.56215293  0.81893113  1  0.118557  -0.00119  3.823765  0.0  0.115852  0.002057  4.078883  0.003  0.118541  0.001457  4.103745  0.002  0.093961  0.113952  0.003118  4.062222  0.005
C  C47  1  0.03657261  0.43784767  0.18106941  1  0.118446  -0.001181  3.823848  0.0  0.115771  0.002057  4.078991  0.003  0.118456  0.00146  4.103853  0.002  0.093929  0.113867  0.003118  4.062328  0.005
C  C48  1  0.54183688  0.76267637  0.63235534  1  0.114403  -0.000265  3.809989  0.001  0.112976  0.002498  4.062629  0.004  0.115141  0.001816  4.086401  0.003  0.09283  0.111569  0.002999  4.046424  0.004
C  C49  1  0.45816530  0.23732323  0.36764404  1  0.114348  -0.000239  3.810038  0.001  0.112888  0.002497  4.062714  0.004  0.115049  0.001819  4.086489  0.003  0.09284  0.11148  0.002999  4.046512  0.004
C  C50  1  0.41126004  0.91866801  0.97511114  1  -0.114976  -0.000243  3.741078  0.0  -0.136071  0.000109  3.989698  0.0  -0.139306  4.1e-05  4.01331  0.0  -0.094231  -0.134166  0.000402  3.974672  0.001
C  C51  1  0.58873993  0.08133261  0.02488817  1  -0.115048  -0.000156  3.740998  0.0  -0.136175  0.000108  3.989639  0.0  -0.13941  4.1e-05  4.01325  0.0  -0.094299  -0.13427  0.000402  3.974615  0.001
C  C52  1  0.78065622  0.71606553  0.54383381  1  -0.065755  -0.002663  3.747316  -0.002  -0.081076  0.000164  3.998098  0.0  -0.082966  0.000112  4.018417  0.0  -0.089197  -0.080144  8e-05  3.985862  0.0
C  C53  1  0.21934495  0.28393304  0.45616796  1  -0.065751  -0.002632  3.74732  -0.002  -0.081078  0.000162  3.998115  0.0  -0.082966  0.00011  4.018432  0.0  -0.089181  -0.080145  8e-05  3.985881  0.0
C  C54  1  0.82326483  0.83605280  0.55020093  1  -0.045495  0.001823  3.73481  0.002  -0.065462  5e-06  3.99224  0.0  -0.065864  -0.000195  4.013067  0.0  -0.087575  -0.064604  0.000135  3.977982  0.0
C  C55  1  0.17673526  0.16394577  0.44980100  1  -0.045501  0.001787  3.734831  0.002  -0.065489  5e-06  3.992285  0.0  -0.065891  -0.000195  4.013113  0.0  -0.087603  -0.064631  0.000135  3.97803  0.0
C  C56  1  0.82154659  0.83598011  0.93381294  1  -0.050848  0.000686  3.640223  0.001  -0.126433  0.000741  3.8825  0.001  -0.123062  0.000513  3.891173  0.001  -0.044741  -0.129107  0.000924  3.878286  0.001
C  C57  1  0.17845329  0.16402150  0.06618787  1  -0.050827  0.000719  3.640207  0.001  -0.126432  0.00074  3.882418  0.001  -0.12305  0.000514  3.891081  0.001  -0.044759  -0.129104  0.000924  3.878201  0.001
C  C58  1  0.84921157  0.61866370  0.88695483  1  0.092473  0.002888  3.790783  0.004  0.069829  0.001212  4.031948  0.002  0.072962  0.000715  4.053262  0.001  0.103791  0.067804  0.001605  4.017987  0.002
C  C59  1  0.15078630  0.38133587  0.11304795  1  0.092481  0.002891  3.790841  0.004  0.069727  0.001211  4.032117  0.002  0.072861  0.000712  4.053433  0.001  0.103752  0.067702  0.001605  4.018155  0.002
C  C60  1  0.44414447  0.05918378  0.72301810  1  -0.057083  0.000684  3.641258  0.001  -0.134104  0.000714  3.886318  0.0  -0.128011  0.000501  3.894219  0.0  -0.043178  -0.136331  0.000926  3.880959  0.001
C  C61  1  0.55585664  0.94081583  0.27697957  1  -0.05707  0.000674  3.641216  0.001  -0.134123  0.000715  3.886324  0.0  -0.128045  0.0005  3.894244  0.0  -0.043202  -0.136364  0.000926  3.88096  0.001
C  C62  1  0.64007607  0.67694622  0.58433543  1  -0.117199  0.002391  3.719902  0.003  -0.133258  0.000603  3.963502  0.001  -0.135383  0.000265  3.98259  0.0  -0.081847  -0.132515  0.000779  3.951846  0.001
C  C63  1  0.35992403  0.32305235  0.41566555  1  -0.117197  0.00236  3.719995  0.003  -0.133259  0.000604  3.963593  0.001  -0.135382  0.000268  3.982683  0.0  -0.081864  -0.132517  0.000779  3.951939  0.001
C  C64  1  0.71648595  0.55990809  0.93654292  1  -0.13637  -0.00162  3.748384  -0.001  -0.15672  0.00069  4.007711  0.001  -0.160931  0.000458  4.028659  0.0  -0.091641  -0.154334  0.000417  3.993834  0.0
C  C65  1  0.28351185  0.44009248  0.06346136  1  -0.136368  -0.001666  3.748245  -0.001  -0.156678  0.000691  4.007586  0.001  -0.160888  0.000458  4.028535  0.0  -0.091671  -0.15429  0.000417  3.99371  0.0
C  C66  1  0.94923186  0.44284179  0.79816050  1  -0.121383  0.002477  3.726196  0.003  -0.143097  0.000825  3.979248  0.001  -0.145816  0.000518  3.99838  0.001  -0.085245  -0.141243  0.000963  3.967213  0.001
C  C67  1  0.05076473  0.55716084  0.20183944  1  -0.121227  0.002475  3.726172  0.003  -0.142947  0.000825  3.979205  0.001  -0.145666  0.000517  3.998339  0.001  -0.085205  -0.141095  0.000963  3.967174  0.001
C  C68  1  0.58558514  0.88167564  0.63918556  1  0.08633  0.003091  3.788513  0.005  0.062143  0.001225  4.03486  0.002  0.068042  0.000732  4.054932  0.001  0.099381  0.059948  0.001625  4.020573  0.002
C  C69  1  0.41441489  0.11832396  0.36081412  1  0.086472  0.003076  3.788459  0.005  0.062289  0.001225  4.034809  0.002  0.068188  0.00073  4.054883  0.001  0.099424  0.060094  0.001625  4.020522  0.002
C  C70  1  0.81827125  0.38403007  0.84788777  1  -0.052184  -0.002383  3.734791  -0.002  -0.06966  0.00045  3.986158  0.001  -0.070439  0.000263  4.00622  0.0  -0.088876  -0.069326  0.000596  3.973166  0.001
C  C71  1  0.18172320  0.61597259  0.15211060  1  -0.052254  -0.002356  3.734891  -0.002  -0.069731  0.00045  3.98627  0.001  -0.07051  0.000264  4.006332  0.0  -0.088909  -0.069398  0.000597  3.973273  0.001
C  C72  1  0.72731132  0.92158889  0.59786428  1  -0.144841  -0.002624  3.744769  -0.002  -0.165862  0.000219  4.008545  0.0  -0.170737  0.000141  4.027796  0.0  -0.098412  -0.16238  0.000415  3.994906  0.0
C  C73  1  0.27268871  0.07841070  0.40213634  1  -0.1449  -0.002537  3.744778  -0.002  -0.165931  0.000218  4.008565  0.0  -0.170807  0.000141  4.027816  0.0  -0.098421  -0.162445  0.000415  3.99492  0.0
Br  Br74  1  0.35926059  0.41261635  0.72544210  1  -0.474736  0.109719  1.005183  0.135  -0.466893  0.082882  1.321994  0.091  -0.511649  0.055979  1.295491  0.06  -0.238375  -0.428518  0.108442  1.341145  0.118
Br  Br75  1  0.64073883  0.58737610  0.27456406  1  -0.474676  0.109733  1.005206  0.135  -0.466879  0.082883  1.322021  0.091  -0.51161  0.055984  1.29552  0.06  -0.238357  -0.428469  0.10845  1.341142  0.118
Br  Br76  1  0.20075590  0.71810589  0.44014725  1  -0.479513  0.108948  0.989084  0.134  -0.466553  0.084359  1.289203  0.092  -0.511132  0.05793  1.261607  0.063  -0.238795  -0.428886  0.108088  1.309498  0.118
Br  Br77  1  0.79923959  0.28188159  0.55985012  1  -0.479467  0.108959  0.989164  0.134  -0.466562  0.084361  1.28931  0.092  -0.511117  0.057938  1.261717  0.063  -0.238792  -0.428867  0.108078  1.309593  0.118
N  N78  1  0.07528807  0.64699749  0.78180905  1  -0.251217  0.040269  3.312252  0.062  -0.22132  0.02936  3.650261  0.037  -0.248586  0.023347  3.664335  0.028  -0.231889  -0.202143  0.034725  3.641651  0.044
N  N79  1  0.92470981  0.35300209  0.21819279  1  -0.251204  0.040261  3.312344  0.062  -0.221336  0.02936  3.65038  0.037  -0.248572  0.023349  3.664423  0.028  -0.23188  -0.202137  0.034727  3.641738  0.044
N  N80  1  0.03650067  0.74960988  0.82207354  1  -0.037851  -0.012038  2.846604  -0.011  -0.05523  0.001742  3.128227  0.003  -0.045778  0.001778  3.140199  0.003  -0.06193  -0.062707  0.000532  3.121297  0.001
N  N81  1  0.96349613  0.25038971  0.17792752  1  -0.037757  -0.012043  2.846346  -0.011  -0.05514  0.001743  3.127945  0.003  -0.045692  0.00178  3.139913  0.003  -0.061883  -0.062618  0.000532  3.12101  0.001
N  N82  1  0.46186907  0.93890881  0.68753264  1  0.013378  -0.000511  3.529341  0.001  0.124107  0.003297  3.721811  0.006  0.110812  0.002734  3.74648  0.005  -0.120612  0.129016  0.003697  3.708756  0.006
N  N83  1  0.53813198  0.06109182  0.31246465  1  0.013281  -0.000503  3.529378  0.001  0.124024  0.003296  3.721856  0.006  0.11074  0.002723  3.746524  0.005  -0.12063  0.128935  0.003698  3.708805  0.006
N  N84  1  0.39550232  0.75772429  0.67677559  1  -0.246923  0.039021  3.293644  0.06  -0.216322  0.028553  3.62788  0.036  -0.242267  0.022781  3.639221  0.027  -0.231262  -0.199171  0.033357  3.621682  0.042
N  N85  1  0.60449764  0.24227634  0.32322279  1  -0.246902  0.039009  3.293701  0.06  -0.21629  0.028553  3.627939  0.036  -0.242205  0.022786  3.639256  0.027  -0.231276  -0.199123  0.033357  3.62172  0.042
N  N86  1  0.34938623  0.86348623  0.71012461  1  -0.043061  -0.016543  2.845892  -0.015  -0.059493  7.6e-05  3.129236  0.0  -0.047592  0.000638  3.139726  0.001  -0.06458  -0.066866  -0.000119  3.123258  0.0
N  N87  1  0.65061467  0.13651642  0.28987288  1  -0.04303  -0.016537  2.845905  -0.015  -0.059472  7.6e-05  3.129243  0.0  -0.047577  0.000646  3.139727  0.001  -0.064574  -0.066846  -0.000119  3.123261  0.0
N  N88  1  0.90195147  0.73313047  0.88614012  1  0.018764  0.000282  3.504374  0.002  0.131873  0.003648  3.692794  0.006  0.123287  0.002877  3.713135  0.005  -0.113899  0.136858  0.004008  3.679982  0.007
N  N89  1  0.09804721  0.26687316  0.11386103  1  0.018639  0.000278  3.504204  0.002  0.131812  0.003648  3.692618  0.006  0.123225  0.002875  3.712957  0.005  -0.113941  0.136799  0.004008  3.679803  0.007
