# generated using pymatgen
data_CdPH13C14NO4
_symmetry_space_group_name_H-M   'P 1'
_cell_length_a   8.41996842
_cell_length_b   14.02394276
_cell_length_c   14.90177796
_cell_angle_alpha   105.00566635
_cell_angle_beta   106.37938741
_cell_angle_gamma   107.47385079
_symmetry_Int_Tables_number   1
_chemical_formula_structural   CdPH13C14NO4
_chemical_formula_sum   'Cd4 P4 H52 C56 N4 O16'
_cell_volume   1492.49697092
_cell_formula_units_Z   4
loop_
 _symmetry_equiv_pos_site_id
 _symmetry_equiv_pos_as_xyz
  1  'x, y, z'
loop_
 _atom_site_type_symbol
 _atom_site_label
 _atom_site_symmetry_multiplicity
 _atom_site_fract_x
 _atom_site_fract_y
 _atom_site_fract_z
 _atom_site_occupancy
 _atom_site_hle17_bader_spin_density
 _atom_site_hle17_ddec_charge
 _atom_site_hle17_ddec_spin_density
 _atom_site_hle17_ddec_sum_bond_order
 _atom_site_hle17_magmom
 _atom_site_hse06_10hf_bader_charge
 _atom_site_hse06_10hf_bader_spin_density
 _atom_site_hse06_10hf_ddec_charge
 _atom_site_hse06_10hf_ddec_spin_density
 _atom_site_hse06_10hf_ddec_sum_bond_order
 _atom_site_hse06_10hf_magmom
 _atom_site_hse06_bader_spin_density
 _atom_site_hse06_ddec_charge
 _atom_site_hse06_ddec_spin_density
 _atom_site_hse06_ddec_sum_bond_order
 _atom_site_hse06_magmom
 _atom_site_pbe_bader_spin_density
 _atom_site_pbe_cm5_charge
 _atom_site_pbe_ddec_charge
 _atom_site_pbe_ddec_spin_density
 _atom_site_pbe_ddec_sum_bond_order
 _atom_site_pbe_magmom
Cd  Cd0  1  0.10553053  0.25014352  0.25010078  1  0  1.185885  0  1.710825  0  1.338491  0  0.994485  0  2.167319  0  0  1.045184  0  2.116794  0  0  0.812927  0.958329  0  2.201957  0
Cd  Cd1  1  0.89446720  0.74986021  0.74989843  1  0  1.185972  0  1.710679  0  1.338565  0  0.99455  0  2.167171  0  0  1.045255  0  2.116644  0  0  0.812946  0.95839  0  2.20181  0
Cd  Cd2  1  0.64882527  0.24997652  0.24996606  1  0  1.219358  0  1.610981  0  1.333142  0  1.050752  0  2.056268  0  0  1.110306  0  1.994687  0  0  0.768328  1.008141  0  2.098488  0
Cd  Cd3  1  0.35116857  0.75002399  0.75003154  1  0  1.219324  0  1.611072  0  1.333066  0  1.050701  0  2.056369  0  0  1.110258  0  1.994781  0  0  0.768302  1.008091  0  2.098599  0
P  P4  1  0.25180657  0.05174474  0.15821461  1  0  1.211494  0  4.716456  0  3.121445  0  1.082044  0  5.193105  0  0  1.123058  0  5.171514  0  0  0.270298  1.053469  0  5.207364  0
P  P5  1  0.54223027  0.44837988  0.34177379  1  0  1.211383  0  4.716329  0  3.127895  0  1.082554  0  5.192485  0  0  1.123527  0  5.171053  0  0  0.270289  1.054063  0  5.206542  0
P  P6  1  0.74819869  0.94825255  0.84179285  1  0  1.211648  0  4.716384  0  3.1223  0  1.082242  0  5.193021  0  0  1.123257  0  5.171427  0  0  0.270346  1.053671  0  5.207286  0
P  P7  1  0.45776470  0.55162224  0.65822197  1  0  1.211233  0  4.716394  0  3.127792  0  1.082344  0  5.192496  0  0  1.123311  0  5.171068  0  0  0.270184  1.053862  0  5.206535  0
H  H8  1  0.34173194  0.98034212  0.32540817  1  0  0.099711  0  0.941159  0  0.106957  0  0.111402  0  0.997219  0  0  0.114917  0  0.99498  0  0  0.102853  0.108867  0  0.998884  0
H  H9  1  0.53632583  0.51963981  0.17446761  1  0  0.098555  0  0.941482  0  0.077754  0  0.111235  0  0.996488  0  0  0.11475  0  0.994243  0  0  0.103056  0.108684  0  0.998189  0
H  H10  1  0.65827927  0.01965436  0.67460175  1  0  0.099728  0  0.941187  0  0.107016  0  0.111438  0  0.99722  0  0  0.114954  0  0.99498  0  0  0.102857  0.108898  0  0.998888  0
H  H11  1  0.46368294  0.48036392  0.82553024  1  0  0.098568  0  0.941559  0  0.077783  0  0.111255  0  0.996555  0  0  0.114768  0  0.994311  0  0  0.103105  0.108702  0  0.998254  0
H  H12  1  0.15942777  0.83861922  0.37247070  1  0  0.086872  0  0.947892  0  0.044622  0  0.101035  0  1.001274  0  0  0.104016  0  0.999902  0  0  0.100637  0.098877  0  1.00239  0
H  H13  1  0.44848345  0.66129366  0.12737324  1  0  0.086312  0  0.948833  0  0.036998  0  0.100791  0  1.001752  0  0  0.103777  0  1.000379  0  0  0.100507  0.098626  0  1.002871  0
H  H14  1  0.84057424  0.16137887  0.62753697  1  0  0.086927  0  0.9478  0  0.044755  0  0.101017  0  1.001259  0  0  0.103995  0  0.999893  0  0  0.100645  0.098856  0  1.00237  0
H  H15  1  0.55152990  0.33871491  0.87263006  1  0  0.086139  0  0.948826  0  0.037081  0  0.100586  0  1.001795  0  0  0.103568  0  1.000432  0  0  0.100477  0.098424  0  1.00291  0
H  H16  1  0.83435340  0.72686590  0.26344946  1  0  0.08233  0  0.966736  0  0.078274  0  0.092517  0  1.02958  0  0  0.09496  0  1.029055  0  0  0.094852  0.090716  0  1.030039  0
H  H17  1  0.34392533  0.77293687  0.23638583  1  0  0.082931  0  0.967741  0  0.073538  0  0.09299  0  1.030472  0  0  0.095494  0  1.029898  0  0  0.094931  0.091191  0  1.030932  0
H  H18  1  0.16565052  0.27313300  0.73655984  1  0  0.082442  0  0.966701  0  0.078378  0  0.092528  0  1.029643  0  0  0.094964  0  1.029124  0  0  0.094853  0.090726  0  1.030107  0
H  H19  1  0.65608526  0.22707009  0.76361402  1  0  0.082967  0  0.967756  0  0.073654  0  0.093056  0  1.030448  0  0  0.095561  0  1.029872  0  0  0.094942  0.091256  0  1.030911  0
H  H20  1  0.69047682  0.75801896  0.10795979  1  0  0.088766  0  0.957202  0  0.054857  0  0.099632  0  1.016103  0  0  0.103082  0  1.013834  0  0  0.099914  0.09714  0  1.017837  0
H  H21  1  0.32445461  0.74190027  0.39199659  1  0  0.089276  0  0.956851  0  0.056567  0  0.100394  0  1.015449  0  0  0.103866  0  1.013167  0  0  0.100213  0.097873  0  1.017198  0
H  H22  1  0.30952500  0.24198398  0.89205106  1  0  0.088722  0  0.957146  0  0.054595  0  0.099607  0  1.016037  0  0  0.103059  0  1.013764  0  0  0.099847  0.097111  0  1.017778  0
H  H23  1  0.67554890  0.25810588  0.60800266  1  0  0.089207  0  0.956886  0  0.068138  0  0.100352  0  1.015455  0  0  0.103825  0  1.013171  0  0  0.10019  0.097833  0  1.0172  0
H  H24  1  0.87011430  0.89870104  0.06366099  1  0  0.099807  0  0.959086  0  0.097418  0  0.112145  0  1.019805  0  0  0.114601  0  1.018685  0  0  0.107538  0.110297  0  1.020751  0
H  H25  1  0.40779673  0.60124076  0.43628703  1  0  0.099599  0  0.9597  0  0.088088  0  0.111862  0  1.020637  0  0  0.114261  0  1.019556  0  0  0.107775  0.110063  0  1.02152  0
H  H26  1  0.12989091  0.10130189  0.93635321  1  0  0.099901  0  0.958953  0  0.097278  0  0.112231  0  1.019674  0  0  0.114674  0  1.018571  0  0  0.107585  0.110383  0  1.02062  0
H  H27  1  0.59220175  0.39876297  0.56370802  1  0  0.099638  0  0.959552  0  0.088157  0  0.111885  0  1.020525  0  0  0.11429  0  1.019448  0  0  0.107788  0.110093  0  1.021407  0
H  H28  1  0.10157078  0.94178137  0.98186064  1  0  0.135739  0  0.972693  0  0.104831  0  0.147918  0  1.035475  0  0  0.150862  0  1.034531  0  0  0.101222  0.145744  0  1.03627  0
H  H29  1  0.67829089  0.55854442  0.51810012  1  0  0.136067  0  0.972915  0  0.111567  0  0.148468  0  1.035571  0  0  0.151438  0  1.034639  0  0  0.101569  0.146288  0  1.036372  0
H  H30  1  0.89842482  0.05821430  0.01814391  1  0  0.13566  0  0.972778  0  0.104975  0  0.147875  0  1.035504  0  0  0.150816  0  1.034559  0  0  0.101214  0.145705  0  1.036301  0
H  H31  1  0.32169898  0.44145528  0.48189627  1  0  0.136126  0  0.972902  0  0.111589  0  0.148489  0  1.03558  0  0  0.151455  0  1.034645  0  0  0.1016  0.146308  0  1.036383  0
H  H32  1  0.31509407  0.04319763  0.01331162  1  0  0.12533  0  0.954857  0  0.069636  0  0.142371  0  1.011529  0  0  0.144101  0  1.011796  0  0  0.104325  0.141045  0  1.011498  0
H  H33  1  0.75860628  0.45695845  0.48664078  1  0  0.125204  0  0.956278  0  0.074953  0  0.142295  0  1.012935  0  0  0.144061  0  1.013223  0  0  0.104451  0.140961  0  1.012913  0
H  H34  1  0.68489832  0.95679885  0.98669074  1  0  0.125303  0  0.954884  0  0.069431  0  0.142357  0  1.01154  0  0  0.144087  0  1.011809  0  0  0.1043  0.141037  0  1.011506  0
H  H35  1  0.24138329  0.54304286  0.51335725  1  0  0.125198  0  0.956166  0  0.074885  0  0.142215  0  1.012908  0  0  0.143984  0  1.013182  0  0  0.104436  0.140887  0  1.01288  0
H  H36  1  0.25716376  0.83475009  0.05758759  1  0  0.08932  0  0.935473  0  0.037466  0  0.105012  0  0.996674  0  0  0.106573  0  0.997512  0  0  0.095949  0.10398  0  0.996122  0
H  H37  1  0.86599133  0.66531007  0.44228709  1  0  0.090194  0  0.934709  0  0.036702  0  0.105627  0  0.996254  0  0  0.10716  0  0.997063  0  0  0.096283  0.1046  0  0.995708  0
H  H38  1  0.74283674  0.16524557  0.94241199  1  0  0.089396  0  0.935401  0  0.037528  0  0.105042  0  0.996663  0  0  0.106603  0  0.997484  0  0  0.095945  0.104011  0  0.996115  0
H  H39  1  0.13400229  0.33468963  0.55771178  1  0  0.090129  0  0.934739  0  0.036752  0  0.105569  0  0.99631  0  0  0.107108  0  0.997114  0  0  0.096259  0.104542  0  0.995762  0
H  H40  1  0.46938571  0.93629158  0.08971261  1  0  0.104658  0  0.920971  0  0.074629  0  0.121356  0  0.977198  0  0  0.123598  0  0.97628  0  0  0.101491  0.119741  0  0.977961  0
H  H41  1  0.94413632  0.56351749  0.41041082  1  0  0.104491  0  0.92054  0  0.058826  0  0.121466  0  0.976719  0  0  0.123708  0  0.97575  0  0  0.101316  0.119841  0  0.977526  0
H  H42  1  0.53061467  0.06370651  0.91028977  1  0  0.10466  0  0.921032  0  0.072864  0  0.121365  0  0.977257  0  0  0.123595  0  0.976339  0  0  0.101488  0.119755  0  0.97802  0
H  H43  1  0.05585785  0.43648301  0.58958833  1  0  0.104486  0  0.920487  0  0.058774  0  0.121464  0  0.976686  0  0  0.123711  0  0.975714  0  0  0.101332  0.119842  0  0.977488  0
H  H44  1  0.79036862  0.06063243  0.25327104  1  0  0.096279  0  0.945713  0  0.159414  0  0.10462  0  1.009443  0  0  0.10733  0  1.006637  0  0  0.122777  0.102565  0  1.011617  0
H  H45  1  0.97719455  0.43974033  0.24704397  1  0  0.096338  0  0.946083  0  0.127631  0  0.10416  0  1.010502  0  0  0.106854  0  1.007743  0  0  0.122671  0.102106  0  1.012676  0
H  H46  1  0.20962492  0.93937210  0.74672376  1  0  0.09619  0  0.94575  0  0.159311  0  0.10454  0  1.00948  0  0  0.107247  0  1.006677  0  0  0.122721  0.102479  0  1.011659  0
H  H47  1  0.02280696  0.56025937  0.75295656  1  0  0.096329  0  0.946076  0  0.127632  0  0.10414  0  1.010502  0  0  0.106834  0  1.007743  0  0  0.122651  0.102082  0  1.012673  0
H  H48  1  0.73487682  0.95167095  0.35652322  1  0  0.105299  0  0.951686  0  0.079236  0  0.119068  0  1.005117  0  0  0.121813  0  1.004716  0  0  0.112103  0.117061  0  1.005597  0
H  H49  1  0.92678672  0.54839848  0.14361715  1  0  0.105235  0  0.95128  0  0.102519  0  0.119479  0  1.004127  0  0  0.122271  0  1.00363  0  0  0.112136  0.117473  0  1.004642  0
H  H50  1  0.26511661  0.04833036  0.64347005  1  0  0.105311  0  0.951671  0  0.079294  0  0.119079  0  1.00511  0  0  0.121832  0  1.004697  0  0  0.112121  0.117071  0  1.005588  0
H  H51  1  0.07321849  0.45160364  0.85638383  1  0  0.105247  0  0.951258  0  0.102517  0  0.119482  0  1.004106  0  0  0.122273  0  1.003609  0  0  0.112135  0.117475  0  1.004622  0
H  H52  1  0.29851504  0.13557982  0.56005588  1  0  0.098937  0  0.980998  0  0.103488  0  0.108344  0  1.043449  0  0  0.110659  0  1.04409  0  0  0.104954  0.106645  0  1.043205  0
H  H53  1  0.10303394  0.36446909  0.93991293  1  0  0.099623  0  0.981544  0  0.064705  0  0.108825  0  1.044166  0  0  0.111233  0  1.044732  0  0  0.105131  0.107115  0  1.043911  0
H  H54  1  0.70148207  0.86441262  0.43993158  1  0  0.098851  0  0.981191  0  0.103275  0  0.10828  0  1.043608  0  0  0.110587  0  1.044262  0  0  0.104943  0.106618  0  1.043322  0
H  H55  1  0.89696527  0.63553222  0.06008482  1  0  0.099611  0  0.981593  0  0.064698  0  0.108814  0  1.044202  0  0  0.111222  0  1.044767  0  0  0.10513  0.107104  0  1.043949  0
H  H56  1  0.32929047  0.23308325  0.44541617  1  0  0.092459  0  0.93859  0  0.135286  0  0.102237  0  0.999454  0  0  0.104184  0  0.998199  0  0  0.123531  0.100758  0  1.000495  0
H  H57  1  0.15113004  0.26702921  0.05461675  1  0  0.093079  0  0.939095  0  0.122476  0  0.102462  0  1.000389  0  0  0.104438  0  0.999145  0  0  0.123582  0.100963  0  1.001418  0
H  H58  1  0.67070380  0.76691725  0.55457574  1  0  0.092533  0  0.938514  0  0.13514  0  0.102283  0  0.999405  0  0  0.104232  0  0.998148  0  0  0.123528  0.100801  0  1.000446  0
H  H59  1  0.84886813  0.73297210  0.94538121  1  0  0.092999  0  0.938984  0  0.122173  0  0.102382  0  1.000303  0  0  0.104356  0  0.999057  0  0  0.123528  0.10088  0  1.00133  0
C  C60  1  0.11824305  0.94872144  0.19203797  1  0  -0.214903  0  3.753151  0  -0.568775  0  -0.171975  0  3.989023  0  0  -0.181238  0  4.014011  0  0  -0.029123  -0.165794  0  3.972253  0
C  C61  1  0.47775042  0.55130253  0.30788962  1  0  -0.213603  0  3.751863  0  -0.531876  0  -0.171248  0  3.988861  0  0  -0.180503  0  4.013827  0  0  -0.029015  -0.165071  0  3.972111  0
C  C62  1  0.88175982  0.05127585  0.80796835  1  0  -0.214913  0  3.753103  0  -0.568609  0  -0.172056  0  3.989065  0  0  -0.181321  0  4.014058  0  0  -0.029184  -0.165877  0  3.972292  0
C  C63  1  0.52224532  0.44869879  0.69210961  1  0  -0.213636  0  3.75196  0  -0.531437  0  -0.171162  0  3.988777  0  0  -0.18041  0  4.013735  0  0  -0.029019  -0.164986  0  3.972025  0
C  C64  1  0.19885987  0.93061312  0.27857236  1  0  -0.056098  0  3.76368  0  -0.057002  0  -0.077296  0  4.006775  0  0  -0.077368  0  4.028332  0  0  -0.084939  -0.077101  0  3.992131  0
C  C65  1  0.48996070  0.56937591  0.22132046  1  0  -0.055781  0  3.764362  0  -0.063463  0  -0.077624  0  4.007507  0  0  -0.077678  0  4.029046  0  0  -0.085357  -0.077439  0  3.99287  0
C  C66  1  0.80114344  0.06938174  0.72143271  1  0  -0.05613  0  3.763695  0  -0.056952  0  -0.077312  0  4.006765  0  0  -0.077384  0  4.02832  0  0  -0.084977  -0.077112  0  3.992108  0
C  C67  1  0.51003849  0.43062944  0.77867844  1  0  -0.055693  0  3.764246  0  -0.063963  0  -0.077569  0  4.007341  0  0  -0.077619  0  4.02887  0  0  -0.08537  -0.07738  0  3.992705  0
C  C68  1  0.09690815  0.85120549  0.30416881  1  0  -0.082777  0  3.786271  0  0.035314  0  -0.094496  0  4.037757  0  0  -0.09785  0  4.060303  0  0  -0.094921  -0.092192  0  4.022318  0
C  C69  1  0.44169633  0.64871141  0.19571008  1  0  -0.081423  0  3.787437  0  -0.009841  0  -0.093345  0  4.038948  0  0  -0.096705  0  4.061519  0  0  -0.094495  -0.091031  0  4.023484  0
C  C70  1  0.90309754  0.14878938  0.69583740  1  0  -0.082775  0  3.786252  0  0.035181  0  -0.094428  0  4.037694  0  0  -0.097781  0  4.060237  0  0  -0.09484  -0.092116  0  4.022239  0
C  C71  1  0.55830754  0.35129474  0.80428829  1  0  -0.081261  0  3.787075  0  -0.009033  0  -0.093158  0  4.038619  0  0  -0.096514  0  4.061181  0  0  -0.094545  -0.090847  0  4.02316  0
C  C72  1  0.91417810  0.78828427  0.24295089  1  0  -0.078863  0  3.784236  0  -0.142696  0  -0.092716  0  4.034467  0  0  -0.093403  0  4.055947  0  0  -0.095856  -0.092026  0  4.019735  0
C  C73  1  0.38295088  0.71158725  0.25692654  1  0  -0.080561  0  3.786879  0  -0.115451  0  -0.094457  0  4.037497  0  0  -0.095205  0  4.058956  0  0  -0.096446  -0.093767  0  4.022762  0
C  C74  1  0.08582946  0.21171382  0.75705490  1  0  -0.079026  0  3.784215  0  -0.142999  0  -0.092798  0  4.034403  0  0  -0.093478  0  4.055882  0  0  -0.095929  -0.092106  0  4.019672  0
C  C75  1  0.61705460  0.28841567  0.74307076  1  0  -0.080662  0  3.786851  0  -0.116155  0  -0.094581  0  4.037465  0  0  -0.09533  0  4.058925  0  0  -0.096398  -0.093888  0  4.022733  0
C  C76  1  0.83326558  0.80568124  0.15626239  1  0  -0.085703  0  3.78041  0  -0.001611  0  -0.096671  0  4.029602  0  0  -0.099991  0  4.051175  0  0  -0.094564  -0.094398  0  4.014873  0
C  C77  1  0.37130654  0.69424456  0.34365450  1  0  -0.086547  0  3.781436  0  0.008818  0  -0.09767  0  4.030585  0  0  -0.100993  0  4.052111  0  0  -0.095341  -0.095377  0  4.015879  0
C  C78  1  0.16674317  0.19432169  0.84374550  1  0  -0.085643  0  3.780209  0  -0.00094  0  -0.096612  0  4.029343  0  0  -0.099931  0  4.05091  0  0  -0.094516  -0.094342  0  4.01462  0
C  C79  1  0.62869541  0.30575675  0.65634352  1  0  -0.086405  0  3.78146  0  -0.002804  0  -0.09755  0  4.030619  0  0  -0.100875  0  4.052152  0  0  -0.095342  -0.095262  0  4.015914  0
C  C80  1  0.93467654  0.88555367  0.13109767  1  0  -0.050729  0  3.738382  0  -0.145673  0  -0.072239  0  3.980856  0  0  -0.07259  0  4.00322  0  0  -0.080498  -0.071847  0  3.965752  0
C  C81  1  0.41809858  0.61441290  0.36883253  1  0  -0.050351  0  3.738854  0  -0.117363  0  -0.071659  0  3.981235  0  0  -0.071978  0  4.00365  0  0  -0.080258  -0.071286  0  3.966048  0
C  C82  1  0.06532752  0.11444846  0.86891075  1  0  -0.050845  0  3.738223  0  -0.145809  0  -0.072332  0  3.980737  0  0  -0.072677  0  4.003109  0  0  -0.080489  -0.071942  0  3.965634  0
C  C83  1  0.58189784  0.38558841  0.63116737  1  0  -0.050484  0  3.738766  0  -0.117456  0  -0.071819  0  3.981141  0  0  -0.072151  0  4.003569  0  0  -0.080288  -0.07146  0  3.965964  0
C  C84  1  0.24326929  0.98010606  0.03591511  1  0  -0.405145  0  3.695941  0  -0.57841  0  -0.426383  0  3.941025  0  0  -0.434727  0  3.95118  0  0  -0.183424  -0.420427  0  3.934116  0
C  C85  1  0.72752809  0.52007001  0.46401827  1  0  -0.404699  0  3.696398  0  -0.627873  0  -0.426491  0  3.942608  0  0  -0.434968  0  3.952788  0  0  -0.18364  -0.420531  0  3.93572  0
C  C86  1  0.75672928  0.01989041  0.96408845  1  0  -0.405042  0  3.69601  0  -0.578051  0  -0.426332  0  3.941172  0  0  -0.434687  0  3.951315  0  0  -0.183377  -0.420393  0  3.934282  0
C  C87  1  0.27246457  0.47992727  0.53598042  1  0  -0.404803  0  3.696408  0  -0.627873  0  -0.426477  0  3.942594  0  0  -0.434979  0  3.952865  0  0  -0.183652  -0.420522  0  3.935716  0
C  C88  1  0.32820010  0.89830689  0.03490702  1  0  -0.204074  0  3.695031  0  -0.025737  0  -0.241167  0  3.943821  0  0  -0.246391  0  3.953542  0  0  -0.161893  -0.237695  0  3.937216  0
C  C89  1  0.89558289  0.60168741  0.46506859  1  0  -0.204494  0  3.69407  0  -0.000815  0  -0.241968  0  3.943781  0  0  -0.247037  0  3.953324  0  0  -0.161898  -0.238506  0  3.937189  0
C  C90  1  0.67179955  0.10168958  0.96509393  1  0  -0.204166  0  3.695056  0  -0.024492  0  -0.241274  0  3.943906  0  0  -0.246451  0  3.953552  0  0  -0.161888  -0.2378  0  3.93731  0
C  C91  1  0.10441488  0.39831390  0.53493265  1  0  -0.204232  0  3.693957  0  -0.000834  0  -0.241759  0  3.943638  0  0  -0.246842  0  3.953185  0  0  -0.161876  -0.238295  0  3.937034  0
C  C92  1  0.32692265  0.84170721  0.93264607  1  0  0.688189  0  3.853876  0  1.553637  0  0.64138  0  4.152013  0  0  0.674613  0  4.148139  0  0  0.194301  0.618809  0  4.153735  0
C  C93  1  0.05272466  0.65818386  0.56742454  1  0  0.686921  0  3.855011  0  1.574349  0  0.640423  0  4.153348  0  0  0.673613  0  4.149473  0  0  0.193583  0.617861  0  4.155057  0
C  C94  1  0.67308323  0.15829088  0.06735684  1  0  0.688269  0  3.853917  0  1.553671  0  0.641502  0  4.151995  0  0  0.674718  0  4.148119  0  0  0.194305  0.618935  0  4.15371  0
C  C95  1  0.94726634  0.34181504  0.43257445  1  0  0.686702  0  3.85519  0  1.574268  0  0.640274  0  4.15345  0  0  0.673471  0  4.149573  0  0  0.193544  0.617704  0  4.155162  0
C  C96  1  0.89863645  0.07341400  0.32179901  1  0  0.14506  0  3.684344  0  0.500415  0  0.11212  0  3.936716  0  0  0.119471  0  3.955304  0  0  0.057635  0.10735  0  3.924012  0
C  C97  1  0.00375449  0.42676138  0.17835462  1  0  0.147247  0  3.684906  0  0.524369  0  0.113987  0  3.938007  0  0  0.12133  0  3.95658  0  0  0.057883  0.10922  0  3.925331  0
C  C98  1  0.10135319  0.92658731  0.67819419  1  0  0.145201  0  3.684374  0  0.500737  0  0.11224  0  3.936717  0  0  0.119593  0  3.955312  0  0  0.057715  0.107478  0  3.924005  0
C  C99  1  0.99624590  0.57324074  0.82164650  1  0  0.147209  0  3.685051  0  0.524445  0  0.113962  0  3.938134  0  0  0.121306  0  3.956706  0  0  0.057895  0.109197  0  3.925446  0
C  C100  1  0.86959042  0.01333706  0.38076202  1  0  -0.13607  0  3.684479  0  0.02883  0  -0.153352  0  3.927002  0  0  -0.160817  0  3.948352  0  0  -0.070456  -0.148472  0  3.912616  0
C  C101  1  0.97558834  0.48672474  0.11931630  1  0  -0.13709  0  3.685204  0  3e-06  0  -0.154402  0  3.927832  0  0  -0.161887  0  3.949103  0  0  -0.070549  -0.149541  0  3.913485  0
C  C102  1  0.13039924  0.98666022  0.61923003  1  0  -0.136223  0  3.684508  0  0.028598  0  -0.153502  0  3.92708  0  0  -0.160968  0  3.948413  0  0  -0.070557  -0.148622  0  3.912704  0
C  C103  1  0.02441064  0.51327576  0.88068271  1  0  -0.137078  0  3.685283  0  -7e-05  0  -0.154358  0  3.927881  0  0  -0.161842  0  3.949152  0  0  -0.070552  -0.149498  0  3.91353  0
C  C104  1  0.01256449  0.03217491  0.46839808  1  0  0.09318  0  3.752237  0  -0.006762  0  0.10323  0  3.985446  0  0  0.107046  0  4.007235  0  0  0.015942  0.10088  0  3.970473  0
C  C105  1  0.01198335  0.46784398  0.03159210  1  0  0.093133  0  3.753254  0  -0.071612  0  0.103073  0  3.986926  0  0  0.106893  0  4.008703  0  0  0.015587  0.10071  0  3.971984  0
C  C106  1  0.98742721  0.96782478  0.53159153  1  0  0.093349  0  3.752023  0  -0.054339  0  0.103345  0  3.985272  0  0  0.107159  0  4.007063  0  0  0.016043  0.100986  0  3.970311  0
C  C107  1  0.98800904  0.53215491  0.96840581  1  0  0.093043  0  3.753371  0  -0.021187  0  0.102933  0  3.987071  0  0  0.10675  0  4.008852  0  0  0.015533  0.10057  0  3.972127  0
C  C108  1  0.18067140  0.11419345  0.49280670  1  0  -0.154451  0  3.701943  0  -0.062239  0  -0.172647  0  3.948464  0  0  -0.180565  0  3.970779  0  0  -0.078741  -0.167454  0  3.933436  0
C  C109  1  0.07382993  0.38588343  0.00720056  1  0  -0.154771  0  3.703967  0  -0.009305  0  -0.172883  0  3.950799  0  0  -0.180901  0  3.973115  0  0  -0.078444  -0.167658  0  3.935746  0
C  C110  1  0.81931915  0.88580302  0.50718158  1  0  -0.154448  0  3.702001  0  -0.06173  0  -0.172642  0  3.948553  0  0  -0.180558  0  3.970875  0  0  -0.078784  -0.167481  0  3.933489  0
C  C111  1  0.92616291  0.61411466  0.99279928  1  0  -0.154737  0  3.703982  0  -0.009004  0  -0.172836  0  3.95081  0  0  -0.180854  0  3.973125  0  0  -0.078436  -0.167619  0  3.935767  0
C  C112  1  0.20000767  0.17030871  0.42970397  1  0  0.136003  0  3.700303  0  0.499688  0  0.104969  0  3.950872  0  0  0.111742  0  3.970461  0  0  0.053876  0.100562  0  3.937515  0
C  C113  1  0.10024061  0.32980318  0.07034554  1  0  0.135199  0  3.701894  0  0.507494  0  0.104158  0  3.952241  0  0  0.110909  0  3.971889  0  0  0.053193  0.099776  0  3.938848  0
C  C114  1  0.79998760  0.82969180  0.57029015  1  0  0.13596  0  3.700227  0  0.499681  0  0.104935  0  3.950758  0  0  0.111709  0  3.970344  0  0  0.053896  0.100532  0  3.937402  0
C  C115  1  0.89975808  0.67019329  0.92965077  1  0  0.13531  0  3.701807  0  0.507397  0  0.104261  0  3.952167  0  0  0.111018  0  3.971809  0  0  0.053244  0.099876  0  3.938774  0
N  N116  1  0.06138903  0.15027383  0.34564360  1  0  -0.332959  0  3.278749  0  -1.28914  0  -0.250051  0  3.54176  0  0  -0.271153  0  3.561814  0  0  -0.331125  -0.235575  0  3.527766  0
N  N117  1  0.06584350  0.34991301  0.15450204  1  0  -0.334284  0  3.279908  0  -1.269682  0  -0.250351  0  3.542044  0  0  -0.271475  0  3.562098  0  0  -0.330695  -0.235875  0  3.528064  0
N  N118  1  0.93860359  0.84972829  0.65434861  1  0  -0.332912  0  3.27862  0  -1.289048  0  -0.249969  0  3.541597  0  0  -0.271063  0  3.561627  0  0  -0.331065  -0.235499  0  3.527605  0
N  N119  1  0.93415236  0.65008588  0.84549439  1  0  -0.334285  0  3.279984  0  -1.269728  0  -0.250364  0  3.542126  0  0  -0.271488  0  3.562179  0  0  -0.330675  -0.23588  0  3.528129  0
O  O120  1  0.16367554  0.13035328  0.14307165  1  0  -0.824369  0  1.990657  0  -1.465557  0  -0.739821  0  2.271485  0  0  -0.766627  0  2.251551  0  0  -0.384542  -0.720609  0  2.284463  0
O  O121  1  0.39062602  0.36983968  0.35700750  1  0  -0.824321  0  1.989773  0  -1.463963  0  -0.740402  0  2.271192  0  0  -0.767085  0  2.250973  0  0  -0.384815  -0.721259  0  2.284361  0
O  O122  1  0.83633149  0.86964562  0.85693704  1  0  -0.824426  0  1.990781  0  -1.465585  0  -0.739905  0  2.271624  0  0  -0.766726  0  2.251718  0  0  -0.38453  -0.720693  0  2.284597  0
O  O123  1  0.60936897  0.63016406  0.64299144  1  0  -0.824313  0  1.989874  0  -1.464005  0  -0.740342  0  2.271226  0  0  -0.767047  0  2.25106  0  0  -0.384764  -0.721201  0  2.28439  0
O  O124  1  0.44386619  0.09994542  0.23879520  1  0  -0.8145  0  1.968912  0  -1.451335  0  -0.731535  0  2.238469  0  0  -0.759622  0  2.219021  0  0  -0.388793  -0.711596  0  2.251217  0
O  O125  1  0.60552105  0.40011098  0.26117017  1  0  -0.814077  0  1.969513  0  -1.443877  0  -0.731303  0  2.238993  0  0  -0.759402  0  2.219594  0  0  -0.388023  -0.711363  0  2.25172  0
O  O126  1  0.55614154  0.90005186  0.76120856  1  0  -0.814562  0  1.968628  0  -1.452063  0  -0.731584  0  2.238156  0  0  -0.75967  0  2.218708  0  0  -0.388811  -0.711649  0  2.25091  0
O  O127  1  0.39446972  0.59988952  0.73882563  1  0  -0.813995  0  1.969464  0  -1.443856  0  -0.731232  0  2.238981  0  0  -0.759326  0  2.219578  0  0  -0.38799  -0.711293  0  2.251699  0
O  O128  1  0.23159579  0.85125769  0.85367069  1  0  -0.703806  0  2.018733  0  -1.225422  0  -0.63005  0  2.280211  0  0  -0.661004  0  2.269036  0  0  -0.338917  -0.608178  0  2.287028  0
O  O129  1  0.02641904  0.64850343  0.64630047  1  0  -0.70328  0  2.019098  0  -1.216995  0  -0.629248  0  2.279697  0  0  -0.660169  0  2.268586  0  0  -0.3389  -0.607418  0  2.286522  0
O  O130  1  0.76841364  0.14874201  0.14632910  1  0  -0.703814  0  2.018947  0  -1.225533  0  -0.630067  0  2.280396  0  0  -0.661034  0  2.269263  0  0  -0.338906  -0.608195  0  2.287211  0
O  O131  1  0.97357452  0.35149466  0.35369763  1  0  -0.703223  0  2.019116  0  -1.216848  0  -0.629226  0  2.279701  0  0  -0.660144  0  2.268587  0  0  -0.338912  -0.607396  0  2.286531  0
O  O132  1  0.42283542  0.78754448  0.92833884  1  0  -0.637792  0  1.895923  0  -1.176186  0  -0.583733  0  2.124558  0  0  -0.61114  0  2.114786  0  0  -0.337156  -0.56447  0  2.130487  0
O  O133  1  0.20724485  0.71240453  0.57191573  1  0  -0.637986  0  1.897823  0  -1.19517  0  -0.58368  0  2.126348  0  0  -0.611185  0  2.116734  0  0  -0.336792  -0.564399  0  2.132258  0
O  O134  1  0.57716697  0.21244796  0.07166363  1  0  -0.637815  0  1.89582  0  -1.176117  0  -0.583759  0  2.124437  0  0  -0.611163  0  2.114664  0  0  -0.337151  -0.564502  0  2.130372  0
O  O135  1  0.79274843  0.28759679  0.42808719  1  0  -0.637898  0  1.897883  0  -1.195348  0  -0.583637  0  2.12639  0  0  -0.611133  0  2.116759  0  0  -0.336736  -0.564352  0  2.132294  0
