# generated using pymatgen
data_ZnH14C15(NO2)2
_symmetry_space_group_name_H-M   'P 1'
_cell_length_a   9.71466968
_cell_length_b   11.02569670
_cell_length_c   13.02303408
_cell_angle_alpha   84.63708619
_cell_angle_beta   77.31300543
_cell_angle_gamma   81.80501384
_symmetry_Int_Tables_number   1
_chemical_formula_structural   ZnH14C15(NO2)2
_chemical_formula_sum   'Zn2 H28 C30 N4 O8'
_cell_volume   1344.16308007
_cell_formula_units_Z   2
loop_
 _symmetry_equiv_pos_site_id
 _symmetry_equiv_pos_as_xyz
  1  'x, y, z'
loop_
 _atom_site_type_symbol
 _atom_site_label
 _atom_site_symmetry_multiplicity
 _atom_site_fract_x
 _atom_site_fract_y
 _atom_site_fract_z
 _atom_site_occupancy
 _atom_site_pbe_bader_charge
 _atom_site_pbe_bader_spin_density
 _atom_site_pbe_cm5_charge
 _atom_site_pbe_ddec_charge
 _atom_site_pbe_ddec_spin_density
 _atom_site_pbe_ddec_sum_bond_order
 _atom_site_pbe_magmom
Zn  Zn0  1  0.64987304  0.48673726  0.48403353  1  1.292759  0  0.673241  0.838289  0  2.384078  0
Zn  Zn1  1  0.34735589  0.52632959  0.51126016  1  1.30088  0  0.674627  0.838749  0  2.391413  0
H  H2  1  0.33336102  0.53737650  0.19973738  1  0.068779  0  0.103196  0.106893  0  1.049899  0
H  H3  1  0.66025533  0.45597522  0.79758041  1  0.066308  0  0.098535  0.095803  0  1.06132  0
H  H4  1  0.78714915  0.44911955  0.13624948  1  0.084929  0  0.102788  0.117013  0  1.021147  0
H  H5  1  0.20761873  0.52953777  0.86199646  1  0.039567  0  0.098094  0.10591  0  1.054316  0
H  H6  1  0.27997033  0.13896024  0.57813912  1  0.061626  0  0.099499  0.099262  0  1.018329  0
H  H7  1  0.71721681  0.87347091  0.41660650  1  0.06709  0  0.099876  0.099412  0  1.018691  0
H  H8  1  0.27948645  0.91111897  0.57808787  1  0.094349  0  0.104191  0.105555  0  1.008452  0
H  H9  1  0.71767798  0.10119734  0.41661952  1  0.087004  0  0.105198  0.106775  0  1.006487  0
H  H10  1  0.86825744  0.62249516  0.37424624  1  0.151665  0  0.133314  0.120401  0  0.983148  0
H  H11  1  0.13029967  0.38897081  0.61943786  1  0.135336  0  0.13148  0.118304  0  0.986591  0
H  H12  1  0.09066098  0.57000106  0.02963898  1  0.403902  0  0.29185  0.229397  0  0.98532  0
H  H13  1  0.02021245  0.47189597  0.20086940  1  0.047951  0  0.096869  0.105519  0  1.003018  0
H  H14  1  0.19878161  0.40270298  0.19313055  1  0.055417  0  0.102351  0.114334  0  1.001272  0
H  H15  1  0.09701532  0.35929981  0.10729983  1  0.049976  0  0.089716  0.091922  0  0.990818  0
H  H16  1  0.80729597  0.37691979  0.87003558  1  0.392615  0  0.28644  0.222763  0  0.997666  0
H  H17  1  0.01077761  0.48553389  0.84729919  1  0.053796  0  0.098433  0.108338  0  1.008644  0
H  H18  1  0.92199752  0.56559740  0.96109525  1  0.030264  0  0.099702  0.103978  0  1.006197  0
H  H19  1  0.85368005  0.59188473  0.84415620  1  0.028802  0  0.087565  0.087292  0  0.992544  0
H  H20  1  0.98005773  0.84662601  0.43015666  1  -0.000735  0  0.084049  0.108565  0  1.019063  0
H  H21  1  0.13738809  0.81316011  0.48288443  1  0.056455  0  0.089044  0.124791  0  1.027355  0
H  H22  1  0.14514341  0.88979647  0.35622330  1  0.044671  0  0.095347  0.129223  0  0.98273  0
H  H23  1  0.24795071  0.66922911  0.34107324  1  0.075703  0  0.106819  0.125994  0  1.006871  0
H  H24  1  0.09469150  0.70122074  0.28530858  1  0.044286  0  0.101015  0.103837  0  0.972516  0
H  H25  1  0.86007561  0.20080900  0.50492885  1  0.043973  0  0.09078  0.12776  0  1.024177  0
H  H26  1  0.01872537  0.16368228  0.55585176  1  0.012448  0  0.086394  0.112044  0  1.014656  0
H  H27  1  0.85399359  0.11938345  0.62943234  1  0.036301  0  0.09484  0.127601  0  0.984143  0
H  H28  1  0.91009368  0.30298965  0.70400603  1  0.019915  0  0.098567  0.096653  0  0.974063  0
H  H29  1  0.75278694  0.33895030  0.65212327  1  0.088935  0  0.105171  0.121443  0  1.011365  0
C  C30  1  0.49959277  0.26895949  0.49887699  1  1.568822  0  0.216575  0.594362  0  4.163807  0
C  C31  1  0.49751801  0.74338067  0.49663136  1  1.568358  0  0.217152  0.59536  0  4.160708  0
C  C32  1  0.49821626  0.87915130  0.49711089  1  -0.107296  0  -0.014778  -0.023644  0  3.958127  0
C  C33  1  0.49904190  0.13321965  0.49794531  1  -0.043187  0  -0.013656  -0.021138  0  3.958396  0
C  C34  1  0.06554616  0.59435350  0.43057431  1  0.509447  0  0.142722  0.234205  0  3.897901  0
C  C35  1  0.93375784  0.41612039  0.56216920  1  0.50967  0  0.139206  0.230101  0  3.904048  0
C  C36  1  0.92865984  0.56993809  0.42850324  1  0.498367  0  0.067  0.007798  0  3.857359  0
C  C37  1  0.07000066  0.44110197  0.56492256  1  0.511402  0  0.064976  0.006893  0  3.863346  0
C  C38  1  0.44062248  0.49653516  0.70435440  1  1.562764  0  0.213836  0.598887  0  4.146441  0
C  C39  1  0.55683445  0.50923024  0.29168668  1  1.544526  0  0.214124  0.599671  0  4.152385  0
C  C40  1  0.55909269  0.49711351  0.17781809  1  -0.016811  0  -0.022637  -0.022264  0  4.01398  0
C  C41  1  0.43580405  0.49359905  0.82013673  1  -0.050619  0  -0.023733  -0.010268  0  4.021233  0
C  C42  1  0.29879544  0.51400838  0.00001512  1  0.37276  0  0.091356  0.186226  0  4.024054  0
C  C43  1  0.69149656  0.45059267  0.00211680  1  0.307266  0  0.085858  0.178473  0  4.025306  0
C  C44  1  0.30475316  0.51387934  0.89267270  1  -0.031899  0  -0.105214  -0.223542  0  3.98172  0
C  C45  1  0.68899385  0.46500041  0.10688703  1  0.043491  0  -0.095128  -0.19759  0  3.966231  0
C  C46  1  0.56147740  0.46994474  0.85597521  1  -0.022205  0  -0.098646  -0.166693  0  3.997629  0
C  C47  1  0.43169828  0.51168552  0.14379859  1  -0.060588  0  -0.090423  -0.149977  0  3.963676  0
C  C48  1  0.56144473  0.46969323  0.96434322  1  -0.003491  0  -0.010303  0.001044  0  3.990558  0
C  C49  1  0.42898665  0.49656873  0.03803231  1  0.052886  0  -0.007771  0.011706  0  3.962785  0
C  C50  1  0.37509807  0.07990517  0.54278142  1  -0.005319  0  -0.087589  -0.10089  0  3.992562  0
C  C51  1  0.62208507  0.93247599  0.45206411  1  -0.007149  0  -0.086339  -0.098355  0  3.989125  0
C  C52  1  0.37469890  0.95384941  0.54257503  1  0.02451  0  -0.085326  -0.098989  0  3.988158  0
C  C53  1  0.62247499  0.05854789  0.45231473  1  -0.039722  0  -0.085284  -0.099215  0  3.985169  0
C  C54  1  0.11846728  0.43716143  0.14660275  1  0.21677  0  -0.143942  -0.219372  0  3.963861  0
C  C55  1  0.90634013  0.52063581  0.89347988  1  0.251919  0  -0.142556  -0.214673  0  3.986192  0
C  C56  1  0.13214440  0.69447157  0.35972758  1  0.013267  0  -0.157508  -0.193887  0  3.95677  0
C  C57  1  0.09551506  0.81858489  0.41071190  1  -0.048895  0  -0.238348  -0.342838  0  3.930521  0
C  C58  1  0.86853871  0.31384322  0.63103688  1  0.001411  0  -0.156192  -0.190299  0  3.962109  0
C  C59  1  0.90343382  0.19194830  0.57660873  1  -0.032149  0  -0.23923  -0.343378  0  3.925506  0
N  N60  1  0.86392698  0.48329920  0.49271807  1  -1.224446  0  -0.292731  -0.199946  0  3.446638  0
N  N61  1  0.13458830  0.52798426  0.50081755  1  -1.211925  0  -0.29207  -0.199558  0  3.449716  0
N  N62  1  0.16724524  0.53780561  0.07114800  1  -1.099214  0  -0.466633  -0.335064  0  3.481119  0
N  N63  1  0.82335730  0.41853693  0.93230050  1  -1.109245  0  -0.477515  -0.346319  0  3.472281  0
O  O64  1  0.62089739  0.30747819  0.48209632  1  -1.16264  0  -0.312712  -0.542276  0  2.342964  0
O  O65  1  0.37609481  0.70502434  0.51464518  1  -1.164861  0  -0.313411  -0.541806  0  2.340769  0
O  O66  1  0.37949558  0.33527456  0.51642630  1  -1.178264  0  -0.317933  -0.561028  0  2.347076  0
O  O67  1  0.61760308  0.67699055  0.47838218  1  -1.168783  0  -0.317842  -0.559445  0  2.346275  0
O  O68  1  0.56405817  0.48506247  0.64400666  1  -1.190131  0  -0.321781  -0.572239  0  2.376577  0
O  O69  1  0.43412157  0.52742344  0.35229498  1  -1.193238  0  -0.320525  -0.571874  0  2.391556  0
O  O70  1  0.32314519  0.51046206  0.67360540  1  -1.160343  0  -0.321135  -0.543995  0  2.27937  0
O  O71  1  0.67492036  0.49869633  0.32131057  1  -1.160183  0  -0.322902  -0.547985  0  2.281099  0
