# generated using pymatgen
data_Zn3H12C20(N3O4)2
_symmetry_space_group_name_H-M   'P 1'
_cell_length_a   9.11624794
_cell_length_b   10.14607777
_cell_length_c   11.35729347
_cell_angle_alpha   132.45709586
_cell_angle_beta   99.01219047
_cell_angle_gamma   100.65816525
_symmetry_Int_Tables_number   1
_chemical_formula_structural   Zn3H12C20(N3O4)2
_chemical_formula_sum   'Zn3 H12 C20 N6 O8'
_cell_volume   701.91363755
_cell_formula_units_Z   1
loop_
 _symmetry_equiv_pos_site_id
 _symmetry_equiv_pos_as_xyz
  1  'x, y, z'
loop_
 _atom_site_type_symbol
 _atom_site_label
 _atom_site_symmetry_multiplicity
 _atom_site_fract_x
 _atom_site_fract_y
 _atom_site_fract_z
 _atom_site_occupancy
 _atom_site_hle17_bader_spin_density
 _atom_site_hle17_ddec_charge
 _atom_site_hle17_ddec_spin_density
 _atom_site_hle17_ddec_sum_bond_order
 _atom_site_hle17_magmom
 _atom_site_hse06_10hf_bader_spin_density
 _atom_site_hse06_10hf_ddec_charge
 _atom_site_hse06_10hf_ddec_spin_density
 _atom_site_hse06_10hf_ddec_sum_bond_order
 _atom_site_hse06_10hf_magmom
 _atom_site_hse06_bader_spin_density
 _atom_site_hse06_ddec_charge
 _atom_site_hse06_ddec_spin_density
 _atom_site_hse06_ddec_sum_bond_order
 _atom_site_hse06_magmom
 _atom_site_pbe_bader_spin_density
 _atom_site_pbe_cm5_charge
 _atom_site_pbe_ddec_charge
 _atom_site_pbe_ddec_spin_density
 _atom_site_pbe_ddec_sum_bond_order
 _atom_site_pbe_magmom
Zn  Zn0  1  0.49998918  0.49999773  0.99999685  1  0  1.072456  0  1.91323  0  0  0.905403  0  2.377208  0  0  0.94782  0  2.322755  0  0  0.716692  0.87623  0  2.41478  0
Zn  Zn1  1  0.79316250  0.33834572  0.82975030  1  0  0.982508  0  1.898182  0  0  0.78686  0  2.38275  0  0  0.834311  0  2.325409  0  0  0.7158  0.753762  0  2.422129  0
Zn  Zn2  1  0.20683818  0.66162519  0.17020562  1  0  0.982479  0  1.898774  0  0  0.786926  0  2.383337  0  0  0.834363  0  2.325988  0  0  0.715928  0.753835  0  2.422723  0
H  H3  1  0.30406414  0.07205705  0.89353756  1  0  0.10659  0  0.934255  0  0  0.116408  0  0.991129  0  0  0.120235  0  0.98886  0  0  0.105704  0.11359  0  0.992949  0
H  H4  1  0.69598389  0.92796594  0.10651211  1  0  0.106421  0  0.934547  0  0  0.116465  0  0.991193  0  0  0.120284  0  0.988936  0  0  0.105689  0.113645  0  0.993016  0
H  H5  1  0.76893619  0.04684717  0.97956538  1  0  0.105189  0  0.934967  0  0  0.115394  0  0.990589  0  0  0.119264  0  0.988357  0  0  0.106037  0.112565  0  0.99229  0
H  H6  1  0.23110370  0.95317003  0.02046499  1  0  0.1052  0  0.934817  0  0  0.115401  0  0.990462  0  0  0.119274  0  0.988224  0  0  0.106023  0.112572  0  0.992163  0
H  H7  1  0.29218938  0.63745714  0.53003897  1  0  0.099735  0  0.944902  0  0  0.10896  0  1.00457  0  0  0.112467  0  1.002654  0  0  0.102514  0.106397  0  1.006071  0
H  H8  1  0.70779604  0.36253718  0.46994756  1  0  0.099692  0  0.945013  0  0  0.108964  0  1.004649  0  0  0.11241  0  1.002802  0  0  0.102496  0.106401  0  1.00615  0
H  H9  1  0.62361181  0.41648283  0.28917742  1  0  0.094762  0  0.966552  0  0  0.100686  0  1.034666  0  0  0.103305  0  1.034589  0  0  0.100009  0.098838  0  1.034793  0
H  H10  1  0.37638499  0.58353029  0.71082779  1  0  0.094738  0  0.96654  0  0  0.100641  0  1.034675  0  0  0.103262  0  1.034593  0  0  0.099996  0.098789  0  1.034802  0
H  H11  1  0.74826297  0.78676410  0.40847233  1  0  0.125842  0  0.923636  0  0  0.139152  0  0.974732  0  0  0.141352  0  0.974096  0  0  0.135755  0.137631  0  0.975217  0
H  H12  1  0.25172265  0.21323804  0.59152192  1  0  0.125859  0  0.923714  0  0  0.139155  0  0.974815  0  0  0.141357  0  0.974165  0  0  0.135782  0.137635  0  0.975311  0
H  H13  1  0.07851703  0.84924341  0.48130498  1  0  0.122554  0  0.930039  0  0  0.137226  0  0.979192  0  0  0.139741  0  0.977963  0  0  0.134709  0.135361  0  0.980225  0
H  H14  1  0.92147908  0.15074159  0.51866484  1  0  0.122515  0  0.930004  0  0  0.137231  0  0.979115  0  0  0.139747  0  0.977884  0  0  0.134695  0.13536  0  0.980154  0
C  C15  1  0.53993995  0.06461352  0.92791913  1  0  -0.056801  0  3.737752  0  0  -0.033879  0  3.971448  0  0  -0.041209  0  3.994618  0  0  -0.01247  -0.029106  0  3.955789  0
C  C16  1  0.46006340  0.93541459  0.07211358  1  0  -0.056929  0  3.737749  0  0  -0.033956  0  3.971409  0  0  -0.041292  0  3.994587  0  0  -0.012393  -0.029167  0  3.955726  0
C  C17  1  0.38798809  0.03777150  0.93873775  1  0  -0.059749  0  3.723313  0  0  -0.083652  0  3.975534  0  0  -0.084614  0  3.995625  0  0  -0.078436  -0.082939  0  3.961974  0
C  C18  1  0.61203088  0.96221200  0.06127884  1  0  -0.05961  0  3.722399  0  0  -0.083753  0  3.974678  0  0  -0.084702  0  3.994771  0  0  -0.078436  -0.083044  0  3.96111  0
C  C19  1  0.65177267  0.02642363  0.98972806  1  0  -0.070581  0  3.723527  0  0  -0.093358  0  3.972356  0  0  -0.094455  0  3.992979  0  0  -0.080274  -0.092419  0  3.958309  0
C  C20  1  0.34826783  0.97363269  0.01030898  1  0  -0.070538  0  3.724632  0  0  -0.093319  0  3.973325  0  0  -0.094419  0  3.993956  0  0  -0.080254  -0.092384  0  3.959272  0
C  C21  1  0.58459671  0.14359615  0.85938249  1  0  0.662977  0  3.865328  0  0  0.612045  0  4.155802  0  0  0.647121  0  4.147854  0  0  0.211953  0.58836  0  4.160159  0
C  C22  1  0.41540872  0.85639324  0.14062998  1  0  0.663214  0  3.864813  0  0  0.612276  0  4.155286  0  0  0.647356  0  4.147341  0  0  0.212019  0.588581  0  4.159639  0
C  C23  1  0.45341822  0.53077301  0.39969606  1  0  -0.0596  0  3.749508  0  0  -0.036094  0  3.978661  0  0  -0.043566  0  4.00175  0  0  -0.015936  -0.031209  0  3.963327  0
C  C24  1  0.54654556  0.46921407  0.60030215  1  0  -0.059385  0  3.749544  0  0  -0.035928  0  3.978733  0  0  -0.043398  0  4.001807  0  0  -0.015857  -0.031041  0  3.9634  0
C  C25  1  0.38264031  0.57678169  0.51752658  1  0  -0.068257  0  3.739475  0  0  -0.092667  0  3.987966  0  0  -0.093994  0  4.009176  0  0  -0.084204  -0.091786  0  3.973727  0
C  C26  1  0.61740345  0.42328093  0.48250895  1  0  -0.068262  0  3.739355  0  0  -0.092744  0  3.987912  0  0  -0.094025  0  4.009144  0  0  -0.084273  -0.091864  0  3.973673  0
C  C27  1  0.57103276  0.45379894  0.38273408  1  0  -0.071793  0  3.747897  0  0  -0.095208  0  3.998833  0  0  -0.096584  0  4.021178  0  0  -0.084645  -0.094239  0  3.983869  0
C  C28  1  0.42895664  0.54618127  0.61726237  1  0  -0.071799  0  3.747927  0  0  -0.095198  0  3.998855  0  0  -0.096577  0  4.021219  0  0  -0.08468  -0.09423  0  3.983888  0
C  C29  1  0.40108409  0.55779077  0.28824288  1  0  0.667678  0  3.876653  0  0  0.617942  0  4.163172  0  0  0.65354  0  4.154008  0  0  0.218567  0.59345  0  4.169091  0
C  C30  1  0.59888039  0.44218724  0.71173998  1  0  0.667353  0  3.877352  0  0  0.617701  0  4.163742  0  0  0.653302  0  4.154587  0  0  0.218432  0.593208  0  4.169659  0
C  C31  1  0.81551707  0.73536049  0.32543577  1  0  0.00686  0  3.695315  0  0  -0.029586  0  3.962399  0  0  -0.02878  0  3.980231  0  0  0.026788  -0.030247  0  3.950421  0
C  C32  1  0.18447234  0.26463520  0.67454320  1  0  0.00671  0  3.695253  0  0  -0.029713  0  3.962347  0  0  -0.028908  0  3.980185  0  0  0.026735  -0.030382  0  3.950374  0
C  C33  1  0.97821782  0.76660985  0.36173020  1  0  -0.003646  0  3.719811  0  0  -0.040581  0  3.981046  0  0  -0.038803  0  3.999489  0  0  0.02405  -0.04174  0  3.968566  0
C  C34  1  0.02178122  0.23337794  0.63824861  1  0  -0.003453  0  3.720235  0  0  -0.040429  0  3.981406  0  0  -0.038657  0  3.999863  0  0  0.024109  -0.041588  0  3.968923  0
N  N35  1  0.74363063  0.62095767  0.15465801  1  0  -0.20723  0  3.24637  0  0  -0.148776  0  3.524755  0  0  -0.159246  0  3.540612  0  0  -0.219101  -0.141446  0  3.514029  0
N  N36  1  0.25634337  0.37903621  0.84533374  1  0  -0.20716  0  3.246127  0  0  -0.148771  0  3.52462  0  0  -0.159246  0  3.540477  0  0  -0.21911  -0.141438  0  3.513896  0
N  N37  1  0.85584676  0.58366853  0.08754423  1  0  -0.123241  0  3.228787  0  0  -0.070173  0  3.520912  0  0  -0.079669  0  3.536341  0  0  -0.131862  -0.063793  0  3.510502  0
N  N38  1  0.14412851  0.41632506  0.91243781  1  0  -0.123179  0  3.229192  0  0  -0.070129  0  3.521382  0  0  -0.079614  0  3.5368  0  0  -0.131867  -0.063756  0  3.510974  0
N  N39  1  0.99931879  0.67088092  0.21160851  1  0  -0.234477  0  3.276151  0  0  -0.167246  0  3.571971  0  0  -0.180427  0  3.586245  0  0  -0.237925  -0.158149  0  3.562198  0
N  N40  1  0.00068465  0.32910937  0.78836162  1  0  -0.23453  0  3.276807  0  0  -0.167247  0  3.572601  0  0  -0.180432  0  3.586878  0  0  -0.237895  -0.158148  0  3.562821  0
O  O41  1  0.71933174  0.14842349  0.83684344  1  0  -0.630411  0  2.001667  0  0  -0.559828  0  2.258637  0  0  -0.588151  0  2.243106  0  0  -0.331548  -0.540021  0  2.268483  0
O  O42  1  0.28066159  0.85153847  0.16315363  1  0  -0.630419  0  2.00185  0  0  -0.559835  0  2.258869  0  0  -0.588157  0  2.243333  0  0  -0.331511  -0.540032  0  2.268721  0
O  O43  1  0.49424253  0.20795087  0.83118940  1  0  -0.654742  0  2.04897  0  0  -0.596471  0  2.306296  0  0  -0.621571  0  2.291605  0  0  -0.325886  -0.578952  0  2.315689  0
O  O44  1  0.50578246  0.79204362  0.16882237  1  0  -0.654803  0  2.048638  0  0  -0.596564  0  2.30602  0  0  -0.621666  0  2.291331  0  0  -0.325941  -0.57905  0  2.315412  0
O  O45  1  0.44339135  0.47963252  0.16168127  1  0  -0.641422  0  2.126777  0  0  -0.585299  0  2.402738  0  0  -0.611793  0  2.390433  0  0  -0.309096  -0.566677  0  2.410664  0
O  O46  1  0.55661107  0.52040132  0.83833043  1  0  -0.641333  0  2.126996  0  0  -0.585223  0  2.402886  0  0  -0.611692  0  2.390523  0  0  -0.309039  -0.566611  0  2.410838  0
O  O47  1  0.31269184  0.65691767  0.32850470  1  0  -0.629026  0  2.059795  0  0  -0.554647  0  2.329084  0  0  -0.582469  0  2.310438  0  0  -0.328975  -0.535422  0  2.341385  0
O  O48  1  0.68727063  0.34304576  0.67145331  1  0  -0.628958  0  2.059854  0  0  -0.554562  0  2.329071  0  0  -0.582393  0  2.310424  0  0  -0.328867  -0.53533  0  2.341372  0
