# generated using pymatgen
data_UH16C12O7
_symmetry_space_group_name_H-M   'P 1'
_cell_length_a   6.61174788
_cell_length_b   12.14321518
_cell_length_c   18.62903363
_cell_angle_alpha   77.88560836
_cell_angle_beta   80.32788071
_cell_angle_gamma   74.29755899
_symmetry_Int_Tables_number   1
_chemical_formula_structural   UH16C12O7
_chemical_formula_sum   'U4 H64 C48 O28'
_cell_volume   1397.94056409
_cell_formula_units_Z   4
loop_
 _symmetry_equiv_pos_site_id
 _symmetry_equiv_pos_as_xyz
  1  'x, y, z'
loop_
 _atom_site_type_symbol
 _atom_site_label
 _atom_site_symmetry_multiplicity
 _atom_site_fract_x
 _atom_site_fract_y
 _atom_site_fract_z
 _atom_site_occupancy
 _atom_site_hle17_bader_spin_density
 _atom_site_hle17_ddec_charge
 _atom_site_hle17_ddec_spin_density
 _atom_site_hle17_ddec_sum_bond_order
 _atom_site_hle17_magmom
 _atom_site_hse06_10hf_bader_spin_density
 _atom_site_hse06_10hf_ddec_charge
 _atom_site_hse06_10hf_ddec_spin_density
 _atom_site_hse06_10hf_ddec_sum_bond_order
 _atom_site_hse06_10hf_magmom
 _atom_site_hse06_bader_spin_density
 _atom_site_hse06_ddec_charge
 _atom_site_hse06_ddec_spin_density
 _atom_site_hse06_ddec_sum_bond_order
 _atom_site_hse06_magmom
 _atom_site_pbe_bader_charge
 _atom_site_pbe_bader_spin_density
 _atom_site_pbe_cm5_charge
 _atom_site_pbe_ddec_charge
 _atom_site_pbe_ddec_spin_density
 _atom_site_pbe_ddec_sum_bond_order
 _atom_site_pbe_magmom
U  U0  1  0.67361602  0.26788154  0.54631694  1  0  2.456963  0  4.164667  0  0  2.517818  0  4.831291  0  0  2.625718  0  4.794004  0  2.901158  0  2.198053  2.441186  0  4.859109  0
U  U1  1  0.48613428  0.23217240  0.95300118  1  0  2.452268  0  4.165781  0  0  2.512802  0  4.832515  0  0  2.62042  0  4.795754  0  2.904977  0  2.195694  2.435948  0  4.860609  0
U  U2  1  0.32641486  0.73212646  0.45368031  1  0  2.456858  0  4.163999  0  0  2.517905  0  4.830319  0  0  2.625741  0  4.793117  0  2.901111  0  2.19805  2.441246  0  4.858209  0
U  U3  1  0.51387043  0.76780520  0.04700063  1  0  2.452115  0  4.166116  0  0  2.512632  0  4.832754  0  0  2.620234  0  4.796013  0  2.905574  0  2.195755  2.435906  0  4.860643  0
H  H4  1  0.65424326  0.05031834  0.48038186  1  0  0.451531  0  0.790841  0  0  0.439214  0  0.838405  0  0  0.448595  0  0.824815  0  0.633062  0  0.345801  0.432438  0  0.846545  0
H  H5  1  0.18491549  0.44848835  0.01973716  1  0  0.44995  0  0.793979  0  0  0.437162  0  0.842065  0  0  0.44659  0  0.828386  0  0.638669  0  0.344249  0.430346  0  0.850773  0
H  H6  1  0.34572221  0.94967577  0.51962848  1  0  0.451558  0  0.790699  0  0  0.439252  0  0.838318  0  0  0.44863  0  0.824733  0  0.632909  0  0.345864  0.43248  0  0.846367  0
H  H7  1  0.81509571  0.55150141  0.98024525  1  0  0.450043  0  0.793744  0  0  0.437261  0  0.841887  0  0  0.446688  0  0.828209  0  0.639006  0  0.344279  0.430442  0  0.850522  0
H  H8  1  0.49019905  0.16214468  0.44755862  1  0  0.441103  0  0.816841  0  0  0.419838  0  0.879185  0  0  0.42987  0  0.864421  0  0.623195  0  0.332439  0.412613  0  0.889829  0
H  H9  1  0.10059923  0.33620080  0.04999682  1  0  0.441445  0  0.818563  0  0  0.419814  0  0.880456  0  0  0.429958  0  0.865498  0  0.63588  0  0.331481  0.412532  0  0.891195  0
H  H10  1  0.50981022  0.83785898  0.55243802  1  0  0.441073  0  0.816872  0  0  0.419795  0  0.87926  0  0  0.429827  0  0.864493  0  0.623241  0  0.332422  0.41257  0  0.889903  0
H  H11  1  0.89939789  0.66380025  0.94999803  1  0  0.441348  0  0.818671  0  0  0.419812  0  0.880532  0  0  0.429968  0  0.865548  0  0.635757  0  0.331467  0.412531  0  0.891275  0
H  H12  1  0.72647466  0.98951405  0.77268391  1  0  0.081652  0  0.95525  0  0  0.09655  0  1.021327  0  0  0.097175  0  1.022177  0  0.027857  0  0.095987  0.096062  0  1.020806  0
H  H13  1  0.48951281  0.51064431  0.72676675  1  0  0.081449  0  0.956709  0  0  0.0958  0  1.023735  0  0  0.096371  0  1.024691  0  0.028491  0  0.096162  0.09534  0  1.023171  0
H  H14  1  0.27351555  0.01048006  0.22732016  1  0  0.081646  0  0.955238  0  0  0.096572  0  1.021303  0  0  0.097196  0  1.022157  0  0.027344  0  0.095964  0.096082  0  1.020781  0
H  H15  1  0.51048027  0.48936717  0.27323558  1  0  0.08145  0  0.956746  0  0  0.095807  0  1.023784  0  0  0.096375  0  1.024744  0  0.028558  0  0.096174  0.095347  0  1.023221  0
H  H16  1  0.76893236  0.11670244  0.79496782  1  0  0.100537  0  0.944004  0  0  0.112362  0  1.011463  0  0  0.114913  0  1.010098  0  0.080884  0  0.106836  0.110556  0  1.012439  0
H  H17  1  0.67955526  0.38281994  0.70565486  1  0  0.099992  0  0.944087  0  0  0.111912  0  1.011643  0  0  0.114407  0  1.010353  0  0.072391  0  0.107255  0.110145  0  1.012599  0
H  H18  1  0.23105450  0.88328906  0.20503336  1  0  0.100442  0  0.944011  0  0  0.112242  0  1.011526  0  0  0.114793  0  1.010161  0  0.080794  0  0.106805  0.110437  0  1.012503  0
H  H19  1  0.32042908  0.61718285  0.29434410  1  0  0.100063  0  0.944121  0  0  0.111981  0  1.011647  0  0  0.114471  0  1.010367  0  0.072333  0  0.107263  0.110215  0  1.012602  0
H  H20  1  0.04292854  0.09858340  0.88001890  1  0  0.101315  0  0.94098  0  0  0.115423  0  1.003911  0  0  0.117811  0  1.00245  0  0.086989  0  0.104295  0.113732  0  1.005015  0
H  H21  1  0.02025032  0.39960662  0.62224535  1  0  0.100006  0  0.94296  0  0  0.114177  0  1.005821  0  0  0.116509  0  1.004418  0  0.078135  0  0.103796  0.112533  0  1.006866  0
H  H22  1  0.95708630  0.90140550  0.11998961  1  0  0.101289  0  0.940902  0  0  0.115421  0  1.003794  0  0  0.117803  0  1.00235  0  0.086926  0  0.104298  0.113719  0  1.004912  0
H  H23  1  0.97974788  0.60040139  0.37775533  1  0  0.100057  0  0.942868  0  0  0.114191  0  1.005797  0  0  0.116526  0  1.004393  0  0.07801  0  0.103833  0.112542  0  1.006847  0
H  H24  1  0.18721373  0.95921604  0.91964130  1  0  0.084034  0  0.948412  0  0  0.097692  0  1.013581  0  0  0.098958  0  1.013331  0  0.075002  0  0.098946  0.096787  0  1.013875  0
H  H25  1  0.06649729  0.53864324  0.58363091  1  0  0.085008  0  0.942719  0  0  0.098875  0  1.007372  0  0  0.100109  0  1.007139  0  0.04038  0  0.098779  0.097987  0  1.007658  0
H  H26  1  0.81279800  0.04077285  0.08035955  1  0  0.083843  0  0.948508  0  0  0.097596  0  1.013563  0  0  0.098862  0  1.013312  0  0.075126  0  0.0989  0.096685  0  1.013852  0
H  H27  1  0.93350394  0.46135956  0.41636810  1  0  0.084974  0  0.94266  0  0  0.098809  0  1.007375  0  0  0.100042  0  1.007144  0  0.040447  0  0.098749  0.097922  0  1.007666  0
H  H28  1  0.40426133  0.05291186  0.81544782  1  0  0.053407  0  0.939882  0  0  0.069006  0  0.996414  0  0  0.069104  0  0.997461  0  0.035874  0  0.099198  0.068998  0  0.995692  0
H  H29  1  0.27145029  0.44304074  0.68942193  1  0  0.053619  0  0.938668  0  0  0.069451  0  0.993896  0  0  0.069545  0  0.994969  0  0.044471  0  0.099341  0.069454  0  0.99316  0
H  H30  1  0.59573703  0.94708572  0.18455540  1  0  0.053397  0  0.939881  0  0  0.069034  0  0.996338  0  0  0.069135  0  0.997384  0  0.035573  0  0.099196  0.069027  0  0.995615  0
H  H31  1  0.72855598  0.55696726  0.31057530  1  0  0.053561  0  0.938648  0  0  0.069332  0  0.993895  0  0  0.069426  0  0.994967  0  0.044247  0  0.09928  0.069332  0  0.993164  0
H  H32  1  0.31055286  0.09100086  0.68673458  1  0  0.081989  0  0.92912  0  0  0.097325  0  0.990726  0  0  0.098437  0  0.99037  0  0.031017  0  0.095586  0.096566  0  0.991041  0
H  H33  1  0.08668093  0.40649517  0.81698998  1  0  0.082691  0  0.93354  0  0  0.097954  0  0.995187  0  0  0.09908  0  0.994787  0  0.031537  0  0.096196  0.097204  0  0.995483  0
H  H34  1  0.68943482  0.90900541  0.31326835  1  0  0.082018  0  0.929071  0  0  0.097299  0  0.990712  0  0  0.098412  0  0.990345  0  0.030771  0  0.095568  0.096537  0  0.991031  0
H  H35  1  0.91331691  0.59351283  0.18300952  1  0  0.082712  0  0.93358  0  0  0.097948  0  0.995247  0  0  0.099074  0  0.994847  0  0.031546  0  0.096203  0.097191  0  0.995551  0
H  H36  1  0.11673374  0.17511837  0.74370496  1  0  0.091769  0  0.960558  0  0  0.108986  0  1.017745  0  0  0.110994  0  1.016936  0  0.034248  0  0.098064  0.107518  0  1.018443  0
H  H37  1  0.03187885  0.32275027  0.75946752  1  0  0.092302  0  0.960595  0  0  0.110065  0  1.017066  0  0  0.112026  0  1.016282  0  0.063507  0  0.098721  0.108638  0  1.017723  0
H  H38  1  0.88324485  0.82487486  0.25630351  1  0  0.091707  0  0.960594  0  0  0.108912  0  1.017763  0  0  0.110871  0  1.017018  0  0.033819  0  0.098023  0.107449  0  1.018457  0
H  H39  1  0.96812516  0.67725513  0.24053033  1  0  0.092221  0  0.960637  0  0  0.109959  0  1.017135  0  0  0.111925  0  1.016346  0  0.063496  0  0.098675  0.108533  0  1.017789  0
H  H40  1  0.00350448  0.87099458  0.68865506  1  0  0.082596  0  0.944004  0  0  0.098416  0  1.007293  0  0  0.099952  0  1.006804  0  0.029079  0  0.093302  0.097264  0  1.007802  0
H  H41  1  0.56608537  0.62913512  0.81199837  1  0  0.082344  0  0.944735  0  0  0.0977  0  1.008419  0  0  0.099141  0  1.008054  0  0.016323  0  0.092945  0.096626  0  1.008818  0
H  H42  1  0.99648804  0.12900213  0.31135092  1  0  0.082594  0  0.94388  0  0  0.09845  0  1.007164  0  0  0.099986  0  1.006674  0  0.029337  0  0.093293  0.097295  0  1.007676  0
H  H43  1  0.43392100  0.37086681  0.18801138  1  0  0.082258  0  0.944819  0  0  0.0977  0  1.008403  0  0  0.099143  0  1.008043  0  0.016101  0  0.092952  0.096629  0  1.008806  0
H  H44  1  0.24425103  0.91160848  0.65496301  1  0  0.053102  0  0.94941  0  0  0.06776  0  1.018737  0  0  0.068608  0  1.018107  0  -0.015779  0  0.084432  0.067184  0  1.019163  0
H  H45  1  0.81343084  0.58702555  0.84729133  1  0  0.052742  0  0.94849  0  0  0.066938  0  1.018113  0  0  0.067689  0  1.017566  0  -0.009757  0  0.084775  0.066398  0  1.018525  0
H  H46  1  0.75573385  0.08838302  0.34503860  1  0  0.053002  0  0.949407  0  0  0.067731  0  1.018698  0  0  0.068582  0  1.018069  0  -0.015856  0  0.084436  0.067158  0  1.019112  0
H  H47  1  0.18659861  0.41297116  0.15270900  1  0  0.052784  0  0.948468  0  0  0.066967  0  1.018126  0  0  0.067722  0  1.017573  0  -0.009739  0  0.084806  0.066431  0  1.018546  0
H  H48  1  0.29479732  0.74691632  0.76115541  1  0  0.035665  0  0.960048  0  0  0.049038  0  1.024682  0  0  0.049394  0  1.025359  0  0.002049  0  0.08795  0.048733  0  1.024343  0
H  H49  1  0.80754766  0.75133816  0.74101373  1  0  0.034553  0  0.961277  0  0  0.047925  0  1.025928  0  0  0.048267  0  1.026567  0  0.012927  0  0.087316  0.047612  0  1.025646  0
H  H50  1  0.70519907  0.25307519  0.23884701  1  0  0.035625  0  0.960072  0  0  0.049081  0  1.024706  0  0  0.049433  0  1.02539  0  0.002208  0  0.087977  0.048771  0  1.024371  0
H  H51  1  0.19243806  0.24866724  0.25898856  1  0  0.034602  0  0.961148  0  0  0.048006  0  1.025786  0  0  0.048344  0  1.026431  0  0.013071  0  0.087333  0.047693  0  1.025505  0
H  H52  1  0.93209644  0.79062577  0.82833669  1  0  0.066644  0  0.961277  0  0  0.081185  0  1.031542  0  0  0.082097  0  1.031657  0  0.012362  0  0.08772  0.080408  0  1.031677  0
H  H53  1  0.55443381  0.70850074  0.67236868  1  0  0.06636  0  0.958429  0  0  0.080869  0  1.02883  0  0  0.08183  0  1.028775  0  0.016828  0  0.087723  0.080106  0  1.029023  0
H  H54  1  0.06791711  0.20935791  0.17166985  1  0  0.066582  0  0.9614  0  0  0.08112  0  1.031704  0  0  0.082062  0  1.031776  0  0.012451  0  0.087706  0.080342  0  1.03184  0
H  H55  1  0.44555286  0.29149771  0.32763652  1  0  0.066359  0  0.958445  0  0  0.080952  0  1.028712  0  0  0.081914  0  1.028655  0  0.017012  0  0.087749  0.080185  0  1.028904  0
H  H56  1  0.12786716  0.77748097  0.88732964  1  0  0.08853  0  0.945177  0  0  0.108761  0  1.000216  0  0  0.110017  0  0.999204  0  0.041252  0  0.094657  0.107907  0  1.001033  0
H  H57  1  0.79499100  0.72097240  0.61443342  1  0  0.088169  0  0.943985  0  0  0.108283  0  0.999107  0  0  0.10947  0  0.998204  0  0.053374  0  0.095261  0.1075  0  0.999793  0
H  H58  1  0.87214753  0.22251661  0.11266958  1  0  0.088596  0  0.945112  0  0  0.10882  0  1.000189  0  0  0.110077  0  0.999177  0  0.041259  0  0.094679  0.107961  0  1.001013  0
H  H59  1  0.20498147  0.27903821  0.38557153  1  0  0.08828  0  0.94406  0  0  0.108328  0  0.999265  0  0  0.109505  0  0.998365  0  0.05338  0  0.095282  0.107543  0  0.999952  0
H  H60  1  0.46825256  0.83484594  0.83611259  1  0  0.078544  0  0.940913  0  0  0.095193  0  1.004759  0  0  0.096051  0  1.005181  0  0.038077  0  0.092338  0.094566  0  1.004574  0
H  H61  1  0.14188814  0.66136220  0.66796335  1  0  0.076726  0  0.939329  0  0  0.094001  0  1.002978  0  0  0.094773  0  1.003536  0  0.041911  0  0.092688  0.09343  0  1.002707  0
H  H62  1  0.53176037  0.16514903  0.16388213  1  0  0.078527  0  0.940941  0  0  0.095205  0  1.004753  0  0  0.096061  0  1.005174  0  0.038057  0  0.092316  0.094575  0  1.004573  0
H  H63  1  0.85809035  0.33864841  0.33202943  1  0  0.07675  0  0.939311  0  0  0.093995  0  1.002938  0  0  0.094765  0  1.003502  0  0.041694  0  0.09265  0.093421  0  1.002675  0
H  H64  1  0.51474306  0.89201115  0.74038158  1  0  0.061647  0  0.948615  0  0  0.077723  0  1.01597  0  0  0.078784  0  1.015622  0  -0.011745  0  0.084664  0.076852  0  1.016396  0
H  H65  1  0.14915178  0.60461043  0.76398858  1  0  0.062312  0  0.949268  0  0  0.079181  0  1.016013  0  0  0.080196  0  1.015755  0  -0.022143  0  0.084938  0.078292  0  1.01646  0
H  H66  1  0.48524554  0.10799252  0.25961417  1  0  0.0616  0  0.948649  0  0  0.077673  0  1.016022  0  0  0.078743  0  1.015664  0  -0.011532  0  0.084652  0.076801  0  1.016451  0
H  H67  1  0.85084663  0.39540713  0.23600505  1  0  0.062256  0  0.949387  0  0  0.079096  0  1.016109  0  0  0.080155  0  1.015797  0  -0.022167  0  0.084901  0.078217  0  1.016546  0
C  C68  1  0.90595701  0.11006838  0.65398436  1  0  0.638209  0  3.776578  0  0  0.600109  0  4.084459  0  0  0.636144  0  4.078537  0  1.496999  0  0.216168  0.575515  0  4.087132  0
C  C69  1  0.66847611  0.38984399  0.84694613  1  0  0.638095  0  3.773689  0  0  0.60027  0  4.081918  0  0  0.636313  0  4.076021  0  1.496855  0  0.215179  0.57567  0  4.084544  0
C  C70  1  0.09404279  0.88992921  0.34601897  1  0  0.637942  0  3.776761  0  0  0.599739  0  4.084704  0  0  0.635771  0  4.078786  0  1.496992  0  0.216035  0.575149  0  4.087366  0
C  C71  1  0.33152270  0.61016227  0.15305644  1  0  0.637582  0  3.774265  0  0  0.59982  0  4.082421  0  0  0.635857  0  4.076532  0  1.497023  0  0.21496  0.575221  0  4.085052  0
C  C72  1  0.77518426  0.95421574  0.91971603  1  0  0.731584  0  3.695527  0  0  0.706524  0  3.974917  0  0  0.747693  0  3.960183  0  1.55128  0  0.272668  0.677795  0  3.98425  0
C  C73  1  0.64976412  0.54506016  0.58083049  1  0  0.73443  0  3.696905  0  0  0.710207  0  3.974576  0  0  0.751191  0  3.960206  0  1.549521  0  0.275885  0.681638  0  3.983636  0
C  C74  1  0.22480507  0.04577576  0.08027959  1  0  0.731717  0  3.695991  0  0  0.706519  0  3.975551  0  0  0.747708  0  3.96078  0  1.551177  0  0.272705  0.677832  0  3.984813  0
C  C75  1  0.35023820  0.45494784  0.41916761  1  0  0.734589  0  3.696718  0  0  0.7102  0  3.974527  0  0  0.751193  0  3.960141  0  1.549628  0  0.275895  0.681625  0  3.983598  0
C  C76  1  0.01913769  0.03297752  0.71754877  1  0  0.018398  0  3.576451  0  0  0.04894  0  3.795832  0  0  0.044228  0  3.812355  0  0.02553  0  -0.010589  0.052051  0  3.784615  0
C  C77  1  0.76920431  0.46626693  0.78408827  1  0  0.017816  0  3.577125  0  0  0.047111  0  3.798185  0  0  0.042386  0  3.814755  0  0.034585  0  -0.011954  0.050229  0  3.786937  0
C  C78  1  0.98085916  0.96702180  0.28245192  1  0  0.018411  0  3.576497  0  0  0.049265  0  3.795417  0  0  0.04456  0  3.811921  0  0.025478  0  -0.010523  0.052369  0  3.784205  0
C  C79  1  0.23079257  0.53373760  0.21591259  1  0  0.01792  0  3.577138  0  0  0.047114  0  3.798327  0  0  0.0424  0  3.814873  0  0.034551  0  -0.012064  0.050238  0  3.787079  0
C  C80  1  0.84619782  0.02819088  0.78502781  1  0  -0.181119  0  3.556537  0  0  -0.229667  0  3.796676  0  0  -0.230877  0  3.809272  0  -0.041866  0  -0.146263  -0.228647  0  3.787985  0
C  C81  1  0.65949561  0.47131413  0.71562762  1  0  -0.179977  0  3.556452  0  0  -0.228643  0  3.79708  0  0  -0.229863  0  3.809697  0  -0.045979  0  -0.145802  -0.227645  0  3.7884  0
C  C82  1  0.15380097  0.97179888  0.21497778  1  0  -0.180923  0  3.556443  0  0  -0.229573  0  3.796559  0  0  -0.230787  0  3.809158  0  -0.041246  0  -0.146244  -0.228548  0  3.78786  0
C  C83  1  0.34050044  0.52868866  0.28437503  1  0  -0.180149  0  3.556592  0  0  -0.228873  0  3.797229  0  0  -0.230097  0  3.80985  0  -0.045973  0  -0.145829  -0.227874  0  3.788547  0
C  C84  1  0.94754247  0.95410717  0.85430359  1  0  0.010377  0  3.563849  0  0  0.033966  0  3.787105  0  0  0.02736  0  3.804988  0  0.026435  0  -0.005875  0.038592  0  3.774811  0
C  C85  1  0.75716887  0.54463023  0.64700602  1  0  0.009306  0  3.566192  0  0  0.033457  0  3.788242  0  0  0.027006  0  3.805943  0  0.02882  0  -0.008357  0.037972  0  3.776085  0
C  C86  1  0.05245917  0.04588260  0.14569762  1  0  0.010258  0  3.563942  0  0  0.033907  0  3.78718  0  0  0.027291  0  3.805074  0  0.026453  0  -0.005866  0.038516  0  3.774872  0
C  C87  1  0.24282074  0.45537170  0.35299739  1  0  0.009332  0  3.566371  0  0  0.03373  0  3.788047  0  0  0.02728  0  3.805742  0  0.028522  0  -0.008283  0.038248  0  3.775894  0
C  C88  1  0.11653805  0.00989986  0.86987866  1  0  -0.180865  0  3.594092  0  0  -0.225421  0  3.835774  0  0  -0.226622  0  3.848547  0  -0.1013  0  -0.156635  -0.224477  0  3.826886  0
C  C89  1  0.99626798  0.48800266  0.63281833  1  0  -0.17861  0  3.595436  0  0  -0.223821  0  3.837009  0  0  -0.224908  0  3.849814  0  -0.035711  0  -0.154376  -0.222907  0  3.828032  0
C  C90  1  0.88346388  0.99009338  0.13012802  1  0  -0.180827  0  3.594273  0  0  -0.225392  0  3.835734  0  0  -0.226596  0  3.848526  0  -0.100854  0  -0.156623  -0.224422  0  3.826809  0
C  C91  1  0.00373375  0.51200187  0.36718229  1  0  -0.178586  0  3.595458  0  0  -0.223851  0  3.836951  0  0  -0.224945  0  3.849762  0  -0.035517  0  -0.154387  -0.222931  0  3.827959  0
C  C92  1  0.28735934  0.01233964  0.80319684  1  0  0.045809  0  3.618158  0  0  0.04476  0  3.857099  0  0  0.044286  0  3.874807  0  0.04206  0  -0.088655  0.045275  0  3.844559  0
C  C93  1  0.10259999  0.48458922  0.70053239  1  0  0.044378  0  3.619909  0  0  0.044811  0  3.857514  0  0  0.044309  0  3.87535  0  0.005993  0  -0.089918  0.045274  0  3.845022  0
C  C94  1  0.71264634  0.98765359  0.19680610  1  0  0.045788  0  3.618313  0  0  0.044718  0  3.857171  0  0  0.044242  0  3.874873  0  0.041936  0  -0.088736  0.045226  0  3.844626  0
C  C95  1  0.89739791  0.51541618  0.29946389  1  0  0.044337  0  3.619962  0  0  0.044943  0  3.857226  0  0  0.044441  0  3.87507  0  0.006224  0  -0.089909  0.045408  0  3.844739  0
C  C96  1  0.18861105  0.08600837  0.73463312  1  0  -0.173446  0  3.608667  0  0  -0.219153  0  3.84954  0  0  -0.220292  0  3.862417  0  -0.013197  0  -0.159342  -0.218235  0  3.840573  0
C  C97  1  0.00753470  0.41182727  0.76848438  1  0  -0.176299  0  3.610958  0  0  -0.222161  0  3.850396  0  0  -0.223267  0  3.863308  0  -0.030846  0  -0.161361  -0.221212  0  3.841342  0
C  C98  1  0.81138283  0.91398921  0.26537150  1  0  -0.173382  0  3.608683  0  0  -0.219061  0  3.849342  0  0  -0.220153  0  3.862188  0  -0.012715  0  -0.15925  -0.218153  0  3.840394  0
C  C99  1  0.99246627  0.58817900  0.23151399  1  0  -0.176179  0  3.610899  0  0  -0.221989  0  3.850217  0  0  -0.2231  0  3.863139  0  -0.031033  0  -0.161251  -0.221032  0  3.841158  0
C  C100  1  0.12142669  0.90901757  0.70292198  1  0  -0.169411  0  3.63765  0  0  -0.218285  0  3.888724  0  0  -0.219364  0  3.902938  0  -0.021668  0  -0.16069  -0.21731  0  3.878698  0
C  C101  1  0.73537877  0.59016019  0.79875907  1  0  -0.168052  0  3.635111  0  0  -0.214911  0  3.884023  0  0  -0.215946  0  3.898292  0  -0.004472  0  -0.159346  -0.21397  0  3.873982  0
C  C102  1  0.87856686  0.09097828  0.29707932  1  0  -0.169267  0  3.63757  0  0  -0.218281  0  3.888752  0  0  -0.219378  0  3.90299  0  -0.021836  0  -0.160614  -0.217303  0  3.87873  0
C  C103  1  0.26462174  0.40984348  0.20124326  1  0  -0.167961  0  3.63525  0  0  -0.21488  0  3.884249  0  0  -0.215928  0  3.898542  0  -0.004195  0  -0.159341  -0.213963  0  3.874231  0
C  C104  1  0.22241201  0.83570756  0.77160032  1  0  0.039063  0  3.616866  0  0  0.038419  0  3.857477  0  0  0.037191  0  3.876338  0  0.037252  0  -0.091341  0.039396  0  3.844413  0
C  C105  1  0.83275715  0.66254084  0.73063606  1  0  0.038143  0  3.618598  0  0  0.037531  0  3.859411  0  0  0.036343  0  3.878194  0  -0.00955  0  -0.091111  0.038529  0  3.846358  0
C  C106  1  0.77759579  0.16428655  0.22840156  1  0  0.039231  0  3.616634  0  0  0.038305  0  3.857767  0  0  0.037075  0  3.876638  0  0.037183  0  -0.091364  0.039293  0  3.84467  0
C  C107  1  0.16723457  0.33746717  0.26936186  1  0  0.038254  0  3.618517  0  0  0.03746  0  3.85957  0  0  0.036272  0  3.878365  0  -0.00961  0  -0.091113  0.038463  0  3.846525  0
C  C108  1  0.05279186  0.83058826  0.83883943  1  0  -0.185515  0  3.631639  0  0  -0.23319  0  3.877775  0  0  -0.233862  0  3.891586  0  -0.035579  0  -0.16587  -0.23258  0  3.868158  0
C  C109  1  0.72492808  0.66808139  0.66261273  1  0  -0.184295  0  3.635332  0  0  -0.232154  0  3.881576  0  0  -0.232735  0  3.895312  0  -0.040074  0  -0.164972  -0.231565  0  3.871872  0
C  C110  1  0.94721609  0.16940672  0.16116182  1  0  -0.185566  0  3.63147  0  0  -0.233284  0  3.877859  0  0  -0.233966  0  3.891641  0  -0.035603  0  -0.165915  -0.232674  0  3.868237  0
C  C111  1  0.27505765  0.33192401  0.33738956  1  0  -0.184423  0  3.635456  0  0  -0.232311  0  3.881681  0  0  -0.232862  0  3.895364  0  -0.040086  0  -0.164986  -0.231704  0  3.871946  0
C  C112  1  0.39163628  0.88900071  0.78819393  1  0  -0.179478  0  3.643516  0  0  -0.226626  0  3.900714  0  0  -0.228365  0  3.915361  0  -0.03763  0  -0.167967  -0.225263  0  3.890507  0
C  C113  1  0.07080718  0.60786841  0.71554336  1  0  -0.174919  0  3.643615  0  0  -0.224738  0  3.903021  0  0  -0.226456  0  3.917805  0  -0.013867  0  -0.166466  -0.223383  0  3.892756  0
C  C114  1  0.60836234  0.11099861  0.21180345  1  0  -0.179426  0  3.643323  0  0  -0.226554  0  3.90061  0  0  -0.228297  0  3.915253  0  -0.037747  0  -0.167924  -0.225192  0  3.890403  0
C  C115  1  0.92918561  0.39213960  0.28445349  1  0  -0.175073  0  3.644009  0  0  -0.224731  0  3.903138  0  0  -0.226478  0  3.917915  0  -0.013525  0  -0.166442  -0.223385  0  3.892877  0
O  O116  1  0.88421691  0.22051718  0.64475524  1  0  -0.614128  0  1.990863  0  0  -0.604561  0  2.255771  0  0  -0.639398  0  2.25282  0  -1.128253  0  -0.354852  -0.579616  0  2.256615  0
O  O117  1  0.74629685  0.27924145  0.85603573  1  0  -0.612509  0  1.990693  0  0  -0.603857  0  2.25613  0  0  -0.638726  0  2.253205  0  -1.135335  0  -0.354297  -0.578825  0  2.256964  0
O  O118  1  0.11577138  0.77948214  0.35525402  1  0  -0.614004  0  1.990876  0  0  -0.604488  0  2.25585  0  0  -0.639311  0  2.252898  0  -1.128323  0  -0.354828  -0.579544  0  2.256697  0
O  O119  1  0.25370158  0.72075613  0.14395204  1  0  -0.612279  0  1.991081  0  0  -0.603575  0  2.256422  0  0  -0.638437  0  2.253498  0  -1.13551  0  -0.354185  -0.578562  0  2.257253  0
O  O120  1  0.82276646  0.06999124  0.61079358  1  0  -0.632013  0  1.891811  0  0  -0.619061  0  2.131028  0  0  -0.651478  0  2.125982  0  -1.156434  0  -0.356236  -0.595645  0  2.133315  0
O  O121  1  0.50320795  0.43019646  0.88953640  1  0  -0.63034  0  1.887776  0  0  -0.617242  0  2.126738  0  0  -0.649606  0  2.121747  0  -1.151309  0  -0.355205  -0.593819  0  2.12901  0
O  O122  1  0.17725014  0.93001329  0.38920294  1  0  -0.631848  0  1.891829  0  0  -0.618895  0  2.131073  0  0  -0.651304  0  2.126038  0  -1.156573  0  -0.356155  -0.595478  0  2.133356  0
O  O123  1  0.49679857  0.56979504  0.11047590  1  0  -0.62999  0  1.887955  0  0  -0.616927  0  2.126892  0  0  -0.649289  0  2.121912  0  -1.15133  0  -0.355062  -0.593516  0  2.129154  0
O  O124  1  0.72303741  0.85993606  0.94937188  1  0  -0.670062  0  2.05512  0  0  -0.655247  0  2.322628  0  0  -0.691392  0  2.314239  0  -1.177516  0  -0.360545  -0.628521  0  2.327074  0
O  O125  1  0.52907899  0.63909925  0.55217018  1  0  -0.670932  0  2.059125  0  0  -0.657104  0  2.326822  0  0  -0.693388  0  2.318617  0  -1.180294  0  -0.362723  -0.630376  0  2.331211  0
O  O126  1  0.27694258  0.14006065  0.05062095  1  0  -0.67013  0  2.055489  0  0  -0.655276  0  2.323025  0  0  -0.691436  0  2.314636  0  -1.177354  0  -0.360517  -0.628542  0  2.327449  0
O  O127  1  0.47095838  0.36090702  0.44782309  1  0  -0.67099  0  2.05904  0  0  -0.657114  0  2.326868  0  0  -0.693404  0  2.31863  0  -1.180086  0  -0.36274  -0.630384  0  2.331251  0
O  O128  1  0.68720722  0.04954184  0.94320020  1  0  -0.671637  0  2.094688  0  0  -0.665631  0  2.381462  0  0  -0.702676  0  2.372284  0  -1.168869  0  -0.374749  -0.638602  0  2.386621  0
O  O129  1  0.68365636  0.45063891  0.55588506  1  0  -0.672161  0  2.095076  0  0  -0.666473  0  2.38057  0  0  -0.70348  0  2.371455  0  -1.16614  0  -0.376796  -0.639546  0  2.385649  0
O  O130  1  0.31279910  0.95045574  0.05678583  1  0  -0.671798  0  2.094672  0  0  -0.66572  0  2.381454  0  0  -0.702764  0  2.372262  0  -1.169052  0  -0.374823  -0.638729  0  2.386586  0
O  O131  1  0.31635604  0.54936388  0.44411818  1  0  -0.672193  0  2.095018  0  0  -0.666512  0  2.380603  0  0  -0.703512  0  2.371487  0  -1.16647  0  -0.376747  -0.639583  0  2.385688  0
O  O132  1  0.54906968  0.11921867  0.49300858  1  0  -0.836373  0  1.830904  0  0  -0.807607  0  2.002589  0  0  -0.826325  0  1.971155  0  -1.204934  0  -0.569065  -0.794075  0  2.02312  0
O  O133  1  0.16093409  0.38068502  0.00542740  1  0  -0.835307  0  1.831902  0  0  -0.806134  0  2.002271  0  0  -0.824848  0  1.970852  0  -1.223837  0  -0.568218  -0.792572  0  2.023327  0
O  O134  1  0.45095831  0.88079629  0.50699079  1  0  -0.83637  0  1.830775  0  0  -0.807596  0  2.002517  0  0  -0.826306  0  1.97109  0  -1.204736  0  -0.569077  -0.794063  0  2.022967  0
O  O135  1  0.83908466  0.61931777  0.99456024  1  0  -0.835289  0  1.831824  0  0  -0.806313  0  2.001965  0  0  -0.825028  0  1.970555  0  -1.224069  0  -0.568237  -0.792766  0  2.022922  0
O  O136  1  0.90823124  0.25120952  0.47965727  1  0  -0.719468  0  1.52968  0  0  -0.731541  0  1.804814  0  0  -0.75221  0  1.790459  0  -0.873918  0  -0.766953  -0.719004  0  1.815637  0
O  O137  1  0.63793477  0.24831460  0.02077914  1  0  -0.717806  0  1.542476  0  0  -0.729287  0  1.819329  0  0  -0.749981  0  1.805143  0  -0.874663  0  -0.76518  -0.716637  0  1.830138  0
O  O138  1  0.09179701  0.74879762  0.52034616  1  0  -0.719477  0  1.529389  0  0  -0.731608  0  1.804478  0  0  -0.752261  0  1.790139  0  -0.873893  0  -0.766895  -0.719068  0  1.815309  0
O  O139  1  0.36205342  0.75166300  0.97922380  1  0  -0.717865  0  1.542386  0  0  -0.729318  0  1.819154  0  0  -0.750014  0  1.804977  0  -0.874786  0  -0.765159  -0.716695  0  1.829935  0
O  O140  1  0.43740811  0.27933786  0.61151339  1  0  -0.683062  0  1.538028  0  0  -0.690551  0  1.813329  0  0  -0.711746  0  1.801707  0  -0.847391  0  -0.753717  -0.677714  0  1.822202  0
O  O141  1  0.32565626  0.22168974  0.88670210  1  0  -0.680723  0  1.549044  0  0  -0.688143  0  1.827429  0  0  -0.709407  0  1.816001  0  -0.84712  0  -0.75213  -0.67517  0  1.836267  0
O  O142  1  0.56260368  0.72067622  0.38847803  1  0  -0.682986  0  1.537693  0  0  -0.690533  0  1.813012  0  0  -0.711714  0  1.801401  0  -0.847449  0  -0.753781  -0.677677  0  1.821858  0
O  O143  1  0.67434484  0.77830958  0.11328972  1  0  -0.680633  0  1.549343  0  0  -0.688045  0  1.827741  0  0  -0.709307  0  1.816318  0  -0.847516  0  -0.752167  -0.675097  0  1.83655  0
