# generated using pymatgen
data_AgH6C10(NO)3
_symmetry_space_group_name_H-M   'P 1'
_cell_length_a   7.48760506
_cell_length_b   9.73808690
_cell_length_c   13.80671948
_cell_angle_alpha   90.00125887
_cell_angle_beta   98.97490347
_cell_angle_gamma   89.99935041
_symmetry_Int_Tables_number   1
_chemical_formula_structural   AgH6C10(NO)3
_chemical_formula_sum   'Ag4 H24 C40 N12 O12'
_cell_volume   994.39078101
_cell_formula_units_Z   4
loop_
 _symmetry_equiv_pos_site_id
 _symmetry_equiv_pos_as_xyz
  1  'x, y, z'
loop_
 _atom_site_type_symbol
 _atom_site_label
 _atom_site_symmetry_multiplicity
 _atom_site_fract_x
 _atom_site_fract_y
 _atom_site_fract_z
 _atom_site_occupancy
 _atom_site_hle17_bader_spin_density
 _atom_site_hle17_ddec_charge
 _atom_site_hle17_ddec_spin_density
 _atom_site_hle17_ddec_sum_bond_order
 _atom_site_hle17_magmom
 _atom_site_hse06_10hf_bader_spin_density
 _atom_site_hse06_10hf_ddec_charge
 _atom_site_hse06_10hf_ddec_spin_density
 _atom_site_hse06_10hf_ddec_sum_bond_order
 _atom_site_hse06_10hf_magmom
 _atom_site_hse06_bader_spin_density
 _atom_site_hse06_ddec_charge
 _atom_site_hse06_ddec_spin_density
 _atom_site_hse06_ddec_sum_bond_order
 _atom_site_hse06_magmom
 _atom_site_pbe_bader_spin_density
 _atom_site_pbe_cm5_charge
 _atom_site_pbe_ddec_charge
 _atom_site_pbe_ddec_spin_density
 _atom_site_pbe_ddec_sum_bond_order
 _atom_site_pbe_magmom
Ag  Ag0  1  0.64584240  0.44523263  0.07839350  1  0  0.545256  0  1.386884  0  0  0.410025  0  1.828143  0  0  0.442115  0  1.778266  0  0  0.451023  0.387948  0  1.862762  0
Ag  Ag1  1  0.85415536  0.94523122  0.92161063  1  0  0.545234  0  1.386914  0  0  0.409988  0  1.828195  0  0  0.442082  0  1.778305  0  0  0.45103  0.387928  0  1.8628  0
Ag  Ag2  1  0.35415507  0.55476969  0.92160895  1  0  0.545241  0  1.386932  0  0  0.409986  0  1.828179  0  0  0.442081  0  1.778298  0  0  0.451016  0.388074  0  1.862774  0
Ag  Ag3  1  0.14584478  0.05476801  0.07839058  1  0  0.545212  0  1.386955  0  0  0.410013  0  1.82817  0  0  0.442073  0  1.77834  0  0  0.451038  0.388045  0  1.862721  0
H  H4  1  0.49262655  0.62010163  0.22847798  1  0  0.102035  0  0.961462  0  0  0.109304  0  1.027318  0  0  0.111858  0  1.02408  0  0  0.123775  0.107508  0  1.029433  0
H  H5  1  0.00737672  0.12009315  0.77152500  1  0  0.102296  0  0.961604  0  0  0.109532  0  1.027431  0  0  0.11209  0  1.024189  0  0  0.123858  0.107715  0  1.029583  0
H  H6  1  0.50737758  0.37990274  0.77151993  1  0  0.102019  0  0.961534  0  0  0.109316  0  1.027366  0  0  0.111869  0  1.024127  0  0  0.123771  0.107504  0  1.029513  0
H  H7  1  0.99262754  0.87990506  0.22848016  1  0  0.102289  0  0.961524  0  0  0.109542  0  1.027365  0  0  0.1121  0  1.024122  0  0  0.123856  0.107761  0  1.02946  0
H  H8  1  0.32367499  0.35980323  0.45244388  1  0  0.116594  0  0.955399  0  0  0.122826  0  1.024652  0  0  0.126249  0  1.021329  0  0  0.112045  0.120328  0  1.027141  0
H  H9  1  0.17632168  0.85980399  0.54755790  1  0  0.116596  0  0.955446  0  0  0.122801  0  1.024723  0  0  0.126228  0  1.021396  0  0  0.112053  0.120301  0  1.027214  0
H  H10  1  0.67632241  0.64018882  0.54755494  1  0  0.116546  0  0.955431  0  0  0.122778  0  1.024695  0  0  0.126204  0  1.021368  0  0  0.112036  0.120279  0  1.027185  0
H  H11  1  0.82367440  0.14019216  0.45244299  1  0  0.116546  0  0.955442  0  0  0.122764  0  1.024708  0  0  0.126191  0  1.021382  0  0  0.112044  0.120266  0  1.027197  0
H  H12  1  0.35380202  0.10876171  0.43413792  1  0  0.101309  0  0.949546  0  0  0.111723  0  1.010543  0  0  0.113998  0  1.010468  0  0  0.103802  0.110205  0  1.01064  0
H  H13  1  0.14619063  0.60876024  0.56586838  1  0  0.101234  0  0.949852  0  0  0.111675  0  1.010791  0  0  0.11395  0  1.010715  0  0  0.103783  0.110162  0  1.01088  0
H  H14  1  0.64619534  0.89123650  0.56585872  1  0  0.101267  0  0.949653  0  0  0.111696  0  1.010623  0  0  0.11397  0  1.01055  0  0  0.103803  0.110175  0  1.010723  0
H  H15  1  0.85380682  0.39123386  0.43413334  1  0  0.10123  0  0.949842  0  0  0.11168  0  1.010763  0  0  0.113954  0  1.010689  0  0  0.103776  0.11016  0  1.010863  0
H  H16  1  0.41428011  0.90885744  0.33141493  1  0  0.101613  0  0.962362  0  0  0.109847  0  1.024953  0  0  0.112299  0  1.02512  0  0  0.101486  0.108432  0  1.024643  0
H  H17  1  0.08571199  0.40886248  0.66858652  1  0  0.101822  0  0.962873  0  0  0.10996  0  1.025509  0  0  0.112413  0  1.025671  0  0  0.101507  0.10854  0  1.025208  0
H  H18  1  0.58572258  0.09114385  0.66857779  1  0  0.101604  0  0.962487  0  0  0.10984  0  1.025089  0  0  0.112293  0  1.025253  0  0  0.101486  0.10842  0  1.024788  0
H  H19  1  0.91428417  0.59113572  0.33141872  1  0  0.101816  0  0.962948  0  0  0.109998  0  1.025512  0  0  0.112452  0  1.025672  0  0  0.101533  0.108578  0  1.025217  0
H  H20  1  0.52341809  0.94737844  0.17174850  1  0  0.108448  0  0.970489  0  0  0.111014  0  1.040189  0  0  0.114548  0  1.037517  0  0  0.101838  0.108197  0  1.042537  0
H  H21  1  0.97657963  0.44736757  0.82825494  1  0  0.108446  0  0.970177  0  0  0.111022  0  1.039907  0  0  0.114564  0  1.037221  0  0  0.101796  0.108195  0  1.042275  0
H  H22  1  0.47658465  0.05262285  0.82824713  1  0  0.108463  0  0.970495  0  0  0.111046  0  1.04015  0  0  0.114582  0  1.037475  0  0  0.101851  0.108221  0  1.042518  0
H  H23  1  0.02341923  0.55263167  0.17175052  1  0  0.108385  0  0.97026  0  0  0.110993  0  1.039929  0  0  0.114535  0  1.037242  0  0  0.101796  0.108164  0  1.042269  0
H  H24  1  0.56753555  0.18323441  0.11239754  1  0  0.117459  0  0.96541  0  0  0.124408  0  1.035437  0  0  0.128447  0  1.031922  0  0  0.101478  0.121327  0  1.03842  0
H  H25  1  0.93246493  0.68322919  0.88760496  1  0  0.117556  0  0.965424  0  0  0.124465  0  1.035463  0  0  0.128504  0  1.031945  0  0  0.101484  0.121399  0  1.038415  0
H  H26  1  0.43246725  0.81676790  0.88760171  1  0  0.117448  0  0.965464  0  0  0.124419  0  1.035446  0  0  0.128456  0  1.031935  0  0  0.101486  0.121356  0  1.038391  0
H  H27  1  0.06753385  0.31677415  0.11239614  1  0  0.117528  0  0.965457  0  0  0.124442  0  1.035504  0  0  0.128479  0  1.031989  0  0  0.101483  0.121377  0  1.038452  0
C  C28  1  0.46834071  0.51879789  0.25681841  1  0  0.135091  0  3.646891  0  0  0.088361  0  3.898732  0  0  0.099538  0  3.913851  0  0  0.072891  0.081915  0  3.887398  0
C  C29  1  0.03166486  0.01881397  0.74317812  1  0  0.1344  0  3.646351  0  0  0.087757  0  3.898152  0  0  0.098931  0  3.913267  0  0  0.072528  0.081309  0  3.886852  0
C  C30  1  0.53166345  0.48120134  0.74318094  1  0  0.135088  0  3.646557  0  0  0.08833  0  3.898481  0  0  0.09951  0  3.913598  0  0  0.072864  0.081868  0  3.887186  0
C  C31  1  0.96833391  0.98118629  0.25682225  1  0  0.134643  0  3.646003  0  0  0.087909  0  3.897924  0  0  0.099084  0  3.913035  0  0  0.072589  0.08147  0  3.886597  0
C  C32  1  0.39772705  0.50488106  0.34605920  1  0  -0.030772  0  3.867876  0  0  -0.005393  0  4.101864  0  0  -0.013275  0  4.122984  0  0  0.001953  -0.000729  0  4.087444  0
C  C33  1  0.10227201  0.00487112  0.65394240  1  0  -0.030654  0  3.86843  0  0  -0.005315  0  4.102429  0  0  -0.013194  0  4.123549  0  0  0.001999  -0.000657  0  4.088  0
C  C34  1  0.60227166  0.49512125  0.65393755  1  0  -0.030775  0  3.867795  0  0  -0.005442  0  4.101893  0  0  -0.013328  0  4.123015  0  0  0.001949  -0.00078  0  4.087471  0
C  C35  1  0.89773082  0.99512914  0.34605830  1  0  -0.030835  0  3.868293  0  0  -0.00549  0  4.102344  0  0  -0.013369  0  4.123463  0  0  0.001959  -0.000832  0  4.087924  0
C  C36  1  0.37642822  0.37487880  0.38391912  1  0  -0.050892  0  3.640719  0  0  -0.088347  0  3.886347  0  0  -0.082437  0  3.902308  0  0  -0.044769  -0.092463  0  3.876233  0
C  C37  1  0.12356954  0.87489040  0.61607719  1  0  -0.050593  0  3.640146  0  0  -0.088036  0  3.88572  0  0  -0.082129  0  3.901681  0  0  -0.044599  -0.092149  0  3.875603  0
C  C38  1  0.62356374  0.62511941  0.61607782  1  0  -0.050803  0  3.640671  0  0  -0.088256  0  3.886315  0  0  -0.082345  0  3.902278  0  0  -0.044742  -0.092375  0  3.876203  0
C  C39  1  0.87642923  0.12510884  0.38392319  1  0  -0.05053  0  3.640088  0  0  -0.087968  0  3.885661  0  0  -0.082064  0  3.901627  0  0  -0.044607  -0.092079  0  3.87554  0
C  C40  1  0.39905761  0.12323963  0.36352616  1  0  -0.086101  0  3.702062  0  0  -0.108934  0  3.950864  0  0  -0.110213  0  3.973468  0  0  -0.081873  -0.108397  0  3.936472  0
C  C41  1  0.10095075  0.62326542  0.63646061  1  0  -0.086031  0  3.70107  0  0  -0.108891  0  3.949808  0  0  -0.110188  0  3.972428  0  0  -0.081845  -0.108351  0  3.935416  0
C  C42  1  0.60094919  0.87676268  0.63646978  1  0  -0.086039  0  3.701916  0  0  -0.10887  0  3.950701  0  0  -0.110161  0  3.97333  0  0  -0.081861  -0.10833  0  3.936308  0
C  C43  1  0.89904667  0.37673279  0.36353894  1  0  -0.085961  0  3.701093  0  0  -0.108809  0  3.949791  0  0  -0.110106  0  3.972413  0  0  -0.081794  -0.108261  0  3.935397  0
C  C44  1  0.43313604  0.01326935  0.30654991  1  0  -0.067865  0  3.751223  0  0  -0.083049  0  4.004954  0  0  -0.087865  0  4.028481  0  0  -0.088066  -0.08092  0  3.989575  0
C  C45  1  0.06685501  0.51323356  0.69346205  1  0  -0.068061  0  3.750507  0  0  -0.083163  0  4.004246  0  0  -0.08797  0  4.027765  0  0  -0.088068  -0.081048  0  3.988886  0
C  C46  1  0.56686804  0.98673605  0.69344510  1  0  -0.067758  0  3.751118  0  0  -0.082977  0  4.004888  0  0  -0.087793  0  4.028416  0  0  -0.08803  -0.080854  0  3.989519  0
C  C47  1  0.93314519  0.48676465  0.30654279  1  0  -0.068124  0  3.750593  0  0  -0.083263  0  4.004321  0  0  -0.088069  0  4.027835  0  0  -0.088122  -0.081145  0  3.988956  0
C  C48  1  0.49135400  0.03510562  0.21485579  1  0  -0.044603  0  3.740632  0  0  -0.056667  0  3.993884  0  0  -0.055901  0  4.012369  0  0  -0.086055  -0.05612  0  3.981041  0
C  C49  1  0.00864194  0.53512765  0.78514023  1  0  -0.044666  0  3.742379  0  0  -0.05677  0  3.995595  0  0  -0.056023  0  4.014114  0  0  -0.086154  -0.056213  0  3.982748  0
C  C50  1  0.50864333  0.96489670  0.78513940  1  0  -0.04463  0  3.740463  0  0  -0.056666  0  3.993704  0  0  -0.055903  0  4.012192  0  0  -0.086038  -0.056125  0  3.980877  0
C  C51  1  0.99135688  0.46487672  0.21486305  1  0  -0.044578  0  3.742238  0  0  -0.056674  0  3.995418  0  0  -0.055929  0  4.013942  0  0  -0.086153  -0.056077  0  3.982563  0
C  C52  1  0.51683692  0.16664211  0.18151668  1  0  -0.156684  0  3.708755  0  0  -0.174447  0  3.96103  0  0  -0.180557  0  3.980523  0  0  -0.092345  -0.17033  0  3.947673  0
C  C53  1  0.98315703  0.66661579  0.81848794  1  0  -0.156823  0  3.709132  0  0  -0.174507  0  3.961308  0  0  -0.180631  0  3.980825  0  0  -0.092349  -0.170369  0  3.94788  0
C  C54  1  0.48315779  0.83336123  0.81848265  1  0  -0.156748  0  3.708675  0  0  -0.174545  0  3.960957  0  0  -0.180667  0  3.980439  0  0  -0.092413  -0.170422  0  3.94758  0
C  C55  1  0.01684178  0.33338242  0.18151461  1  0  -0.156869  0  3.709129  0  0  -0.174619  0  3.961364  0  0  -0.180739  0  3.980876  0  0  -0.092368  -0.170477  0  3.94793  0
C  C56  1  0.48162493  0.28136076  0.23829634  1  0  0.198871  0  3.751899  0  0  0.19429  0  3.98226  0  0  0.201794  0  4.006587  0  0  0.110784  0.190074  0  3.96529  0
C  C57  1  0.01838327  0.78137478  0.76169937  1  0  0.198833  0  3.752062  0  0  0.194288  0  3.982317  0  0  0.201819  0  4.006603  0  0  0.110898  0.190089  0  3.965336  0
C  C58  1  0.51837921  0.71864053  0.76170157  1  0  0.198845  0  3.751902  0  0  0.194297  0  3.982208  0  0  0.20184  0  4.006485  0  0  0.110759  0.190084  0  3.965238  0
C  C59  1  0.98161549  0.21862343  0.23829956  1  0  0.198941  0  3.752022  0  0  0.194435  0  3.982239  0  0  0.201957  0  4.006538  0  0  0.110935  0.190231  0  3.965271  0
C  C60  1  0.41935354  0.25965904  0.33027938  1  0  0.016975  0  3.776489  0  0  0.038834  0  4.003874  0  0  0.03314  0  4.02952  0  0  -0.001295  0.04169  0  3.987518  0
C  C61  1  0.08063893  0.75964087  0.66973068  1  0  0.016744  0  3.776668  0  0  0.038639  0  4.003964  0  0  0.032942  0  4.029607  0  0  -0.001445  0.04149  0  3.987596  0
C  C62  1  0.58064388  0.74034533  0.66972089  1  0  0.016882  0  3.776305  0  0  0.038768  0  4.003657  0  0  0.033061  0  4.029294  0  0  -0.001321  0.041626  0  3.987294  0
C  C63  1  0.91935850  0.24035631  0.33027032  1  0  0.016698  0  3.776519  0  0  0.038584  0  4.003792  0  0  0.032888  0  4.029439  0  0  -0.001433  0.041436  0  3.987426  0
C  C64  1  0.34496653  0.62527733  0.39253113  1  0  0.289897  0  3.740755  0  0  0.274596  0  4.009854  0  0  0.285971  0  4.028676  0  0  0.201171  0.267143  0  3.99709  0
C  C65  1  0.15503796  0.12527779  0.60746768  1  0  0.289962  0  3.740613  0  0  0.274656  0  4.009708  0  0  0.286029  0  4.028523  0  0  0.201264  0.267196  0  3.996956  0
C  C66  1  0.65503622  0.37472395  0.60746522  1  0  0.289925  0  3.740966  0  0  0.274636  0  4.010079  0  0  0.28601  0  4.028903  0  0  0.201175  0.267178  0  3.997324  0
C  C67  1  0.84495673  0.87471939  0.39253093  1  0  0.289964  0  3.740708  0  0  0.274673  0  4.009811  0  0  0.286045  0  4.028626  0  0  0.201206  0.267215  0  3.997065  0
N  N68  1  0.50892387  0.41190322  0.20542181  1  0  -0.319283  0  3.306026  0  0  -0.23355  0  3.578678  0  0  -0.256701  0  3.597989  0  0  -0.32991  -0.217787  0  3.565008  0
N  N69  1  0.99107705  0.91188224  0.79458858  1  0  -0.318919  0  3.305509  0  0  -0.233217  0  3.578091  0  0  -0.25638  0  3.597414  0  0  -0.329744  -0.217478  0  3.564431  0
N  N70  1  0.49108577  0.58810012  0.79458233  1  0  -0.319224  0  3.305665  0  0  -0.233479  0  3.57832  0  0  -0.256646  0  3.597624  0  0  -0.329855  -0.217728  0  3.564669  0
N  N71  1  0.00891900  0.08811700  0.20541013  1  0  -0.319074  0  3.305412  0  0  -0.233347  0  3.578023  0  0  -0.256505  0  3.597342  0  0  -0.329824  -0.217611  0  3.56437  0
N  N72  1  0.29885405  0.72481409  0.42895881  1  0  -0.399013  0  2.588476  0  0  -0.370813  0  2.809727  0  0  -0.382474  0  2.822326  0  0  -0.292798  -0.363102  0  2.801328  0
N  N73  1  0.20113591  0.22481608  0.57104109  1  0  -0.399027  0  2.588647  0  0  -0.370792  0  2.809853  0  0  -0.382448  0  2.822447  0  0  -0.292821  -0.363086  0  2.801459  0
N  N74  1  0.70113533  0.27518207  0.57104516  1  0  -0.399034  0  2.588753  0  0  -0.370819  0  2.809985  0  0  -0.382479  0  2.822583  0  0  -0.292804  -0.363111  0  2.801591  0
N  N75  1  0.79886011  0.77518726  0.42895617  1  0  -0.398931  0  2.58885  0  0  -0.370727  0  2.810094  0  0  -0.382381  0  2.822687  0  0  -0.292729  -0.36302  0  2.801705  0
N  N76  1  0.77545695  0.26860073  0.92185830  1  0  0.685521  0  4.132791  0  0  0.710429  0  4.425758  0  0  0.739563  0  4.434081  0  0  0.09454  0.690769  0  4.419454  0
N  N77  1  0.72455071  0.76859867  0.07814246  1  0  0.685685  0  4.132859  0  0  0.710841  0  4.425582  0  0  0.73997  0  4.433909  0  0  0.09468  0.691192  0  4.419259  0
N  N78  1  0.22454992  0.73139851  0.07814127  1  0  0.685444  0  4.13259  0  0  0.710322  0  4.425612  0  0  0.73945  0  4.433937  0  0  0.094449  0.692512  0  4.419015  0
N  N79  1  0.27545212  0.23140160  0.92185824  1  0  0.685613  0  4.132866  0  0  0.710527  0  4.425846  0  0  0.739652  0  4.434172  0  0  0.094643  0.690868  0  4.419542  0
O  O80  1  0.75472928  0.39647531  0.94087615  1  0  -0.45401  0  1.886984  0  0  -0.411438  0  2.138076  0  0  -0.434085  0  2.130229  0  0  -0.197209  -0.395775  0  2.14336  0
O  O81  1  0.74527576  0.89647349  0.05912925  1  0  -0.454096  0  1.886978  0  0  -0.411563  0  2.137971  0  0  -0.434207  0  2.130127  0  0  -0.197282  -0.395894  0  2.143236  0
O  O82  1  0.24527354  0.60352598  0.05912382  1  0  -0.454056  0  1.887107  0  0  -0.411417  0  2.138169  0  0  -0.434061  0  2.130324  0  0  -0.197183  -0.396545  0  2.143489  0
O  O83  1  0.25472711  0.10352471  0.94087362  1  0  -0.45405  0  1.886961  0  0  -0.411452  0  2.138029  0  0  -0.434092  0  2.130188  0  0  -0.197247  -0.395775  0  2.143276  0
O  O84  1  0.82253803  0.23703967  0.84127991  1  0  -0.446538  0  1.767946  0  0  -0.432674  0  1.98483  0  0  -0.44851  0  1.979927  0  0  -0.178215  -0.421639  0  1.987911  0
O  O85  1  0.67745920  0.73703439  0.15872315  1  0  -0.446715  0  1.767772  0  0  -0.432899  0  1.98448  0  0  -0.448765  0  1.979646  0  0  -0.178362  -0.421852  0  1.987531  0
O  O86  1  0.17746612  0.76296059  0.15871872  1  0  -0.446482  0  1.767908  0  0  -0.432602  0  1.98476  0  0  -0.448448  0  1.979889  0  0  -0.17817  -0.422393  0  1.987857  0
O  O87  1  0.32254226  0.26296279  0.84127672  1  0  -0.446668  0  1.767769  0  0  -0.432779  0  1.984543  0  0  -0.44866  0  1.979749  0  0  -0.178358  -0.421741  0  1.987621  0
O  O88  1  0.74876325  0.17810766  0.98387783  1  0  -0.463301  0  1.824516  0  0  -0.440426  0  2.069107  0  0  -0.457548  0  2.059264  0  0  -0.184266  -0.428294  0  2.075689  0
O  O89  1  0.75123731  0.67811060  0.01612604  1  0  -0.463231  0  1.824814  0  0  -0.440458  0  2.069326  0  0  -0.457575  0  2.059486  0  0  -0.184203  -0.428317  0  2.075883  0
O  O90  1  0.25124224  0.82189158  0.01612091  1  0  -0.463216  0  1.82425  0  0  -0.440373  0  2.068882  0  0  -0.457492  0  2.059041  0  0  -0.184242  -0.429059  0  2.075485  0
O  O91  1  0.24876687  0.32189069  0.98387477  1  0  -0.463252  0  1.824813  0  0  -0.440354  0  2.069344  0  0  -0.457467  0  2.059507  0  0  -0.184208  -0.428215  0  2.075902  0
