# generated using pymatgen
data_CoNiH8(C7N3)2
_symmetry_space_group_name_H-M   'P 1'
_cell_length_a   6.53879585
_cell_length_b   8.97554166
_cell_length_c   11.48225391
_cell_angle_alpha   90.77770687
_cell_angle_beta   92.10962025
_cell_angle_gamma   68.60421482
_symmetry_Int_Tables_number   1
_chemical_formula_structural   CoNiH8(C7N3)2
_chemical_formula_sum   'Co2 Ni2 H16 C28 N12'
_cell_volume   627.01707723
_cell_formula_units_Z   2
loop_
 _symmetry_equiv_pos_site_id
 _symmetry_equiv_pos_as_xyz
  1  'x, y, z'
loop_
 _atom_site_type_symbol
 _atom_site_label
 _atom_site_symmetry_multiplicity
 _atom_site_fract_x
 _atom_site_fract_y
 _atom_site_fract_z
 _atom_site_occupancy
 _atom_site_hle17_ddec_charge
 _atom_site_hle17_ddec_spin_density
 _atom_site_hle17_ddec_sum_bond_order
 _atom_site_hle17_magmom
 _atom_site_hse06_10hf_ddec_charge
 _atom_site_hse06_10hf_ddec_spin_density
 _atom_site_hse06_10hf_ddec_sum_bond_order
 _atom_site_hse06_10hf_magmom
 _atom_site_hse06_ddec_charge
 _atom_site_hse06_ddec_spin_density
 _atom_site_hse06_ddec_sum_bond_order
 _atom_site_hse06_magmom
 _atom_site_pbe_cm5_charge
 _atom_site_pbe_ddec_charge
 _atom_site_pbe_ddec_spin_density
 _atom_site_pbe_ddec_sum_bond_order
 _atom_site_pbe_magmom
Co  Co0  1  0.36457739  0.27049509  0.75006079  1  0.704721  1.117928  2.722816  1.013  0.688662  1.013203  3.162162  0.938  0.738002  1.01887  3.100419  0.951  0.753523  0.663832  0.993406  3.196798  0.91
Co  Co1  1  0.63515129  0.72985423  0.24992632  1  0.703863  1.117093  2.716213  1.012  0.688047  1.012308  3.155119  0.937  0.737895  1.018167  3.093126  0.95  0.7507  0.662937  0.99219  3.189951  0.909
Ni  Ni2  1  0.99946728  0.00007266  0.00000739  1  0.134308  0.010264  3.314213  0.013  0.134303  0.009243  3.789288  0.011  0.147926  0.004955  3.733593  0.007  0.39486  0.134978  0.016538  3.821167  0.017
Ni  Ni3  1  0.00019740  0.00021782  0.49998643  1  0.136202  0.010705  3.309304  0.013  0.137437  0.009245  3.782573  0.011  0.150654  0.004862  3.727544  0.007  0.394707  0.135168  0.016604  3.820006  0.017
H  H4  1  0.93124468  0.85289091  0.70731270  1  0.10786  -0.000535  0.972158  0.0  0.113732  -0.000123  1.042882  0.0  0.116287  -0.000108  1.041211  0.0  0.107805  0.111527  -0.000117  1.045303  0.0
H  H5  1  0.21614807  0.85268077  0.79286940  1  0.107394  -0.000539  0.972966  -0.001  0.112286  -0.000113  1.045377  0.0  0.114939  -9.2e-05  1.04353  0.0  0.107582  0.110495  -0.000117  1.046521  0.0
H  H6  1  0.07009299  0.14706669  0.29188461  1  0.107904  -0.000532  0.971844  0.0  0.113779  -0.000119  1.042511  0.0  0.116337  -0.000105  1.040858  0.0  0.1079  0.111587  -0.000114  1.044916  0.0
H  H7  1  0.78302068  0.14722131  0.20799081  1  0.107689  -0.000541  0.972673  -0.001  0.112643  -0.000112  1.044815  0.0  0.11527  -9.1e-05  1.043005  0.0  0.107662  0.110889  -0.000116  1.045898  0.0
H  H8  1  0.61222555  0.82884980  0.59334767  1  0.109186  -7e-06  0.941326  0.001  0.119647  -0.00016  0.99764  0.0  0.12079  -0.000118  0.998389  0.0  0.11308  0.118657  -0.000198  0.997446  0.0
H  H9  1  0.55950064  0.82825213  0.90671301  1  0.10965  -2e-05  0.940237  0.001  0.120085  -0.000181  0.996313  0.0  0.121156  -0.000132  0.997116  0.0  0.112897  0.118314  -0.000199  0.997506  0.0
H  H10  1  0.38836277  0.17125877  0.40620599  1  0.109258  -8e-06  0.941422  0.001  0.119718  -0.000156  0.997701  0.0  0.12087  -0.000115  0.998473  0.0  0.112988  0.11871  -0.000195  0.997519  0.0
H  H11  1  0.44044250  0.17155757  0.09363874  1  0.109462  -2e-05  0.94062  0.001  0.119998  -0.000178  0.996496  0.0  0.121064  -0.000129  0.997318  0.0  0.112953  0.118237  -0.000195  0.997664  0.0
H  H12  1  0.61524885  0.55240812  0.54918151  1  0.111909  -0.000403  0.951414  0.0  0.118987  -1.9e-05  1.014647  0.0  0.12165  -5.9e-05  1.01422  0.0  0.109113  0.117088  5.3e-05  1.015242  0.0
H  H13  1  0.83278549  0.55161677  0.95092879  1  0.112094  -0.000359  0.952327  0.0  0.11939  1.4e-05  1.015474  0.0  0.122029  -3.3e-05  1.015011  0.0  0.109443  0.117443  5.2e-05  1.015927  0.0
H  H14  1  0.38366569  0.44751800  0.45214497  1  0.111906  -0.000403  0.952302  0.0  0.1189  -2e-05  1.015609  0.0  0.121521  -5.9e-05  1.015194  0.0  0.109103  0.116987  5.3e-05  1.016243  0.0
H  H15  1  0.16865969  0.44791360  0.04773987  1  0.112307  -0.00036  0.952394  0.0  0.119568  1.4e-05  1.015587  0.0  0.122219  -3.3e-05  1.015103  0.0  0.109204  0.1176  5.2e-05  1.016064  0.0
H  H16  1  0.93391589  0.31778972  0.61497806  1  0.079902  -0.000449  1.017546  0.0  0.088749  -0.000391  1.07859  0.0  0.088469  -0.000318  1.079359  0.0  0.117464  0.088912  -0.000389  1.078181  0.0
H  H17  1  0.74834919  0.31728669  0.88515598  1  0.079631  -0.00045  1.017694  0.0  0.089117  -0.000378  1.078067  0.0  0.088852  -0.000309  1.078829  0.0  0.117372  0.088831  -0.00039  1.078593  0.0
H  H18  1  0.06444427  0.68225982  0.38672074  1  0.079019  -0.000451  1.018211  0.0  0.088261  -0.00039  1.079465  0.0  0.087962  -0.000315  1.080238  0.0  0.116798  0.088405  -0.000387  1.07911  0.0
H  H19  1  0.25317527  0.68249846  0.11314377  1  0.080359  -0.000449  1.017562  0.0  0.089571  -0.000374  1.078384  0.0  0.089293  -0.000305  1.079151  0.0  0.117131  0.089278  -0.000385  1.078936  0.0
C  C20  1  0.10490893  0.59758970  0.71685464  1  0.165747  -0.014863  3.758393  -0.01  0.165082  -0.005693  3.997273  -0.003  0.174224  -0.004338  4.015588  -0.003  0.118663  0.158052  -0.006772  3.986042  -0.004
C  C21  1  0.29755378  0.59744350  0.78334642  1  0.164937  -0.014787  3.758744  -0.01  0.163671  -0.005746  3.997561  -0.003  0.172706  -0.004395  4.015887  -0.003  0.118013  0.157489  -0.006758  3.985922  -0.004
C  C22  1  0.89509480  0.40242216  0.28324988  1  0.167126  -0.01469  3.756734  -0.009  0.166144  -0.005621  3.995759  -0.003  0.17533  -0.004279  4.014095  -0.003  0.118885  0.159089  -0.006705  3.984515  -0.004
C  C23  1  0.70259501  0.40251326  0.21658113  1  0.16457  -0.014692  3.757449  -0.009  0.163982  -0.005702  3.995736  -0.003  0.173052  -0.004344  4.014091  -0.003  0.11809  0.15779  -0.006703  3.984065  -0.004
C  C24  1  0.92906637  0.73578293  0.68324210  1  -0.139385  0.002782  3.70366  0.005  -0.161811  0.000178  3.960852  0.001  -0.169607  0.000493  3.979706  0.001  -0.075074  -0.156954  -5e-06  3.949582  0.001
C  C25  1  0.33544532  0.73551849  0.81688591  1  -0.138334  0.002716  3.703413  0.005  -0.159887  0.000132  3.960764  0.001  -0.167686  0.000475  3.979413  0.001  -0.074426  -0.155263  -3e-06  3.948564  0.001
C  C26  1  0.07142447  0.26422159  0.31649005  1  -0.139672  0.00273  3.70304  0.005  -0.161905  0.000176  3.960086  0.001  -0.16973  0.000492  3.978989  0.001  -0.075114  -0.157045  -1e-06  3.948789  0.001
C  C27  1  0.66440046  0.26437857  0.18339494  1  -0.139008  0.002683  3.703578  0.005  -0.160794  0.000129  3.960816  0.001  -0.168598  0.00047  3.979492  0.001  -0.074718  -0.156182  1e-06  3.94862  0.001
C  C28  1  0.75001557  0.72259550  0.62111967  1  0.011289  -0.017767  3.699508  -0.011  -0.008926  -0.006363  3.952172  -0.004  -0.002853  -0.004658  3.969158  -0.003  -0.060581  -0.012793  -0.007901  3.941147  -0.004
C  C29  1  0.52783263  0.72208502  0.87895563  1  0.011358  -0.017557  3.699042  -0.011  -0.008489  -0.006267  3.951253  -0.003  -0.002397  -0.00466  3.968251  -0.003  -0.060589  -0.012802  -0.007881  3.941159  -0.004
C  C30  1  0.25013935  0.27745818  0.37886661  1  0.010592  -0.017487  3.701268  -0.011  -0.009587  -0.006261  3.953601  -0.004  -0.003625  -0.004593  3.970731  -0.003  -0.060843  -0.01336  -0.007792  3.942434  -0.004
C  C31  1  0.47239497  0.27772816  0.12102510  1  0.011716  -0.017318  3.700298  -0.011  -0.007883  -0.006169  3.952039  -0.003  -0.001814  -0.004586  3.969029  -0.003  -0.060519  -0.012172  -0.007785  3.941928  -0.004
C  C32  1  0.75169390  0.56989766  0.59656440  1  -0.099223  0.002834  3.699909  0.005  -0.115632  0.000179  3.957024  0.001  -0.122655  0.000551  3.976697  0.001  -0.077427  -0.111547  -9.4e-05  3.944556  0.001
C  C33  1  0.67879358  0.56932658  0.90355430  1  -0.09936  0.002728  3.6997  0.005  -0.116067  0.000148  3.957259  0.001  -0.123045  0.000542  3.976958  0.001  -0.077696  -0.11168  -9.7e-05  3.944848  0.001
C  C34  1  0.24765535  0.43011924  0.40428167  1  -0.099056  0.002759  3.700244  0.005  -0.115055  0.000169  3.957511  0.001  -0.122016  0.000544  3.977242  0.001  -0.077759  -0.110944  -9.6e-05  3.944951  0.001
C  C35  1  0.32213581  0.43042651  0.09557959  1  -0.099947  0.002676  3.700331  0.004  -0.116631  0.000149  3.957696  0.001  -0.123632  0.000531  3.977478  0.001  -0.077962  -0.112204  -9.6e-05  3.945264  0.001
C  C36  1  0.93128233  0.43692480  0.63256267  1  0.130231  -0.015922  3.663494  -0.01  0.101008  -0.005594  3.915318  -0.003  0.111312  -0.004628  3.933261  -0.003  0.050229  0.093612  -0.006452  3.904178  -0.004
C  C37  1  0.63191458  0.43650705  0.86759317  1  0.13031  -0.015972  3.663136  -0.01  0.100249  -0.005722  3.914788  -0.003  0.110512  -0.00472  3.932755  -0.003  0.049848  0.093002  -0.006445  3.904181  -0.004
C  C38  1  0.06779409  0.56307185  0.36852201  1  0.131396  -0.01571  3.662957  -0.01  0.100931  -0.005515  3.915829  -0.003  0.111239  -0.004553  3.933884  -0.003  0.050852  0.093556  -0.006372  3.90459  -0.004
C  C39  1  0.36909856  0.56329505  0.13132886  1  0.129502  -0.015776  3.663759  -0.01  0.099353  -0.005647  3.916118  -0.003  0.10958  -0.004628  3.934253  -0.003  0.050085  0.092111  -0.006368  3.905411  -0.004
C  C40  1  0.10362027  0.14647220  0.93807665  1  0.042397  0.004415  3.457916  0.011  0.024073  0.007587  3.800238  0.014  0.028858  0.005452  3.802147  0.011  0.014833  0.019108  0.010013  3.797629  0.017
C  C41  1  0.74945706  0.14661001  0.56197953  1  0.042729  0.004576  3.457494  0.011  0.02465  0.007703  3.798963  0.014  0.029399  0.005529  3.801236  0.011  0.014779  0.019347  0.010034  3.798129  0.017
C  C42  1  0.89598923  0.85331005  0.06216833  1  0.042976  0.004611  3.458247  0.011  0.025007  0.007768  3.800035  0.014  0.029842  0.005631  3.801936  0.011  0.015857  0.020022  0.01021  3.797408  0.017
C  C43  1  0.25067508  0.85335513  0.43784078  1  0.042285  0.004748  3.454819  0.011  0.024081  0.007846  3.796539  0.014  0.028861  0.005667  3.798817  0.011  0.014704  0.018775  0.010187  3.795688  0.017
C  C44  1  0.17329829  0.06202479  0.60698212  1  0.052141  -0.026562  3.415591  -0.017  0.033782  -0.011058  3.751193  -0.006  0.044322  -0.010727  3.750327  -0.006  0.028647  0.024572  -0.010133  3.752616  -0.006
C  C45  1  0.76441488  0.06175208  0.89307673  1  0.052563  -0.026219  3.415433  -0.016  0.034389  -0.010997  3.750811  -0.006  0.044748  -0.010615  3.750166  -0.006  0.028403  0.02452  -0.010146  3.753309  -0.006
C  C46  1  0.82681300  0.93852305  0.39300898  1  0.052658  -0.026227  3.41609  -0.016  0.034515  -0.010894  3.751505  -0.006  0.045033  -0.010543  3.750655  -0.006  0.029396  0.025487  -0.00997  3.752629  -0.006
C  C47  1  0.23472656  0.93843584  0.10685032  1  0.05306  -0.025922  3.415143  -0.016  0.034999  -0.010855  3.750515  -0.006  0.045369  -0.010454  3.749858  -0.006  0.028805  0.025196  -0.01  3.752894  -0.006
N  N48  1  0.10810761  0.44808579  0.69008066  1  -0.265398  -0.019946  3.318904  -0.013  -0.228196  -0.008859  3.602671  -0.006  -0.254789  -0.00785  3.620746  -0.005  -0.315059  -0.211266  -0.007735  3.59056  -0.005
N  N49  1  0.44377576  0.44788339  0.81012568  1  -0.265566  -0.020048  3.319591  -0.013  -0.227278  -0.00891  3.602723  -0.006  -0.253641  -0.007927  3.620723  -0.006  -0.314968  -0.210873  -0.007716  3.590432  -0.005
N  N50  1  0.89142359  0.55192025  0.31043810  1  -0.265576  -0.02011  3.315734  -0.013  -0.228315  -0.008821  3.60008  -0.006  -0.255141  -0.007797  3.618361  -0.005  -0.314233  -0.21127  -0.007693  3.587877  -0.005
N  N51  1  0.55670101  0.55203137  0.18938219  1  -0.26394  -0.020191  3.316069  -0.013  -0.226139  -0.008856  3.599317  -0.006  -0.252715  -0.007869  3.617536  -0.005  -0.313747  -0.209584  -0.007653  3.586869  -0.005
N  N52  1  0.16982426  0.23816676  0.89618907  1  -0.384135  0.021077  2.969968  0.035  -0.354683  0.0206  3.259954  0.031  -0.370552  0.016062  3.272164  0.026  -0.339937  -0.34269  0.025497  3.250182  0.038
N  N53  1  0.59153849  0.23831084  0.60398175  1  -0.384037  0.021371  2.970791  0.036  -0.354651  0.020829  3.260656  0.032  -0.370663  0.016209  3.27306  0.026  -0.339717  -0.342648  0.025535  3.251416  0.038
N  N54  1  0.83072708  0.76128269  0.10432660  1  -0.384673  0.020978  2.973136  0.035  -0.35542  0.02051  3.263322  0.031  -0.371344  0.015957  3.275481  0.025  -0.341  -0.343413  0.025399  3.253574  0.037
N  N55  1  0.40805255  0.76135886  0.39558407  1  -0.383798  0.021208  2.970545  0.035  -0.354466  0.020717  3.260772  0.032  -0.37052  0.0161  3.27314  0.026  -0.340035  -0.342465  0.025398  3.251539  0.037
N  N56  1  0.26936394  0.12050696  0.66927862  1  -0.343322  0.000973  3.22101  0.008  -0.309247  -0.001441  3.528599  0.002  -0.330015  -0.001606  3.538407  0.001  -0.365637  -0.295868  -0.000742  3.520643  0.002
N  N57  1  0.60976780  0.12031472  0.83079333  1  -0.34302  0.000295  3.220078  0.007  -0.309095  -0.001832  3.527177  0.001  -0.33003  -0.001921  3.537431  0.001  -0.3656  -0.296188  -0.000752  3.521919  0.002
N  N58  1  0.73003394  0.88031866  0.33093182  1  -0.343569  0.000922  3.216642  0.008  -0.309553  -0.001448  3.523844  0.002  -0.330392  -0.001604  3.533602  0.001  -0.365043  -0.29621  -0.000763  3.515973  0.002
N  N59  1  0.38977833  0.88032057  0.16896181  1  -0.343185  0.000219  3.215227  0.007  -0.309088  -0.00186  3.521584  0.001  -0.330113  -0.001938  3.531764  0.001  -0.364693  -0.296183  -0.000793  3.516441  0.002
