# generated using pymatgen
data_KCu6H12C18Br(N3O2)6
_symmetry_space_group_name_H-M   'P 1'
_cell_length_a   10.12063487
_cell_length_b   13.07649936
_cell_length_c   13.13260000
_cell_angle_alpha   89.89963101
_cell_angle_beta   80.97038863
_cell_angle_gamma   68.85398734
_symmetry_Int_Tables_number   1
_chemical_formula_structural   KCu6H12C18Br(N3O2)6
_chemical_formula_sum   'K2 Cu12 H24 C36 Br2 N36 O24'
_cell_volume   1598.04043140
_cell_formula_units_Z   2
loop_
 _symmetry_equiv_pos_site_id
 _symmetry_equiv_pos_as_xyz
  1  'x, y, z'
loop_
 _atom_site_type_symbol
 _atom_site_label
 _atom_site_symmetry_multiplicity
 _atom_site_fract_x
 _atom_site_fract_y
 _atom_site_fract_z
 _atom_site_occupancy
 _atom_site_hle17_bader_spin_density
 _atom_site_hle17_ddec_charge
 _atom_site_hle17_ddec_spin_density
 _atom_site_hle17_ddec_sum_bond_order
 _atom_site_hle17_magmom
 _atom_site_hse06_10hf_bader_spin_density
 _atom_site_hse06_10hf_ddec_charge
 _atom_site_hse06_10hf_ddec_spin_density
 _atom_site_hse06_10hf_ddec_sum_bond_order
 _atom_site_hse06_10hf_magmom
 _atom_site_hse06_bader_spin_density
 _atom_site_hse06_ddec_charge
 _atom_site_hse06_ddec_spin_density
 _atom_site_hse06_ddec_sum_bond_order
 _atom_site_hse06_magmom
 _atom_site_pbe_bader_charge
 _atom_site_pbe_bader_spin_density
 _atom_site_pbe_cm5_charge
 _atom_site_pbe_ddec_charge
 _atom_site_pbe_ddec_spin_density
 _atom_site_pbe_ddec_sum_bond_order
 _atom_site_pbe_magmom
K  K0  1  0.20561622  0.44397443  0.97415994  1  0  0.957341  0  0.431338  0  0  0.923462  0  0.612242  0  0  0.936493  0  0.5875  0  0.92  0  0.795054  0.913724  0  0.630226  0
K  K1  1  0.79438699  0.55602087  0.02583900  1  0  0.957338  0  0.43135  0  0  0.923472  0  0.612241  0  0  0.936503  0  0.587501  0  0.919989  0  0.795046  0.913735  0  0.630224  0
Cu  Cu2  1  0.35594877  0.96783664  0.63262394  1  0  0.410956  0  1.823711  0  0  0.284957  0  2.291205  0  0  0.294351  0  2.241463  0  0.595511  0  0.475607  0.281875  0  2.322701  0
Cu  Cu3  1  0.64405070  0.03216441  0.36737696  1  0  0.41098  0  1.823685  0  0  0.284987  0  2.291174  0  0  0.294383  0  2.241435  0  0.595515  0  0.475604  0.28191  0  2.32267  0
Cu  Cu4  1  0.36015358  0.08141641  0.38813133  1  0  0.412361  0  1.81466  0  0  0.286341  0  2.280107  0  0  0.295709  0  2.230936  0  0.594717  0  0.47646  0.28278  0  2.311444  0
Cu  Cu5  1  0.63984667  0.91858300  0.61186872  1  0  0.412356  0  1.814619  0  0  0.286334  0  2.280055  0  0  0.2957  0  2.230894  0  0.594725  0  0.476458  0.282773  0  2.311398  0
Cu  Cu6  1  0.33289379  0.84489104  0.28063016  1  0  0.441737  0  1.732845  0  0  0.308707  0  2.186482  0  0  0.313462  0  2.144808  0  0.611684  0  0.491204  0.309491  0  2.212709  0
Cu  Cu7  1  0.66710607  0.15510919  0.71937070  1  0  0.441725  0  1.732806  0  0  0.308683  0  2.186445  0  0  0.313459  0  2.14476  0  0.611679  0  0.491192  0.309471  0  2.212666  0
Cu  Cu8  1  0.32730324  0.73343108  0.52268528  1  0  0.437763  0  1.743908  0  0  0.305349  0  2.199538  0  0  0.310464  0  2.157551  0  0.608818  0  0.486226  0.306359  0  2.226108  0
Cu  Cu9  1  0.67269740  0.26656750  0.47731548  1  0  0.437775  0  1.743924  0  0  0.305363  0  2.199531  0  0  0.31051  0  2.157595  0  0.608788  0  0.48624  0.306377  0  2.226093  0
Cu  Cu10  1  0.01312561  0.17597605  0.55784692  1  0  0.453568  0  1.70458  0  0  0.324315  0  2.145903  0  0  0.332096  0  2.101925  0  0.614156  0  0.491751  0.322042  0  2.173743  0
Cu  Cu11  1  0.98687325  0.82402418  0.44215406  1  0  0.453545  0  1.704638  0  0  0.324287  0  2.145972  0  0  0.332075  0  2.102008  0  0.614152  0  0.491746  0.322014  0  2.173814  0
Cu  Cu12  1  0.00601740  0.05655425  0.32211341  1  0  0.451188  0  1.716609  0  0  0.323243  0  2.158021  0  0  0.330903  0  2.113395  0  0.611854  0  0.492071  0.319783  0  2.187971  0
Cu  Cu13  1  0.99398106  0.94344679  0.67788685  1  0  0.451212  0  1.716532  0  0  0.323262  0  2.157936  0  0  0.330926  0  2.113305  0  0.611862  0  0.492067  0.319803  0  2.187887  0
H  H14  1  0.34811801  0.16753862  0.76061312  1  0  0.126956  0  0.957497  0  0  0.124809  0  1.035686  0  0  0.129438  0  1.028934  0  0.171101  0  0.124975  0.12146  0  1.040616  0
H  H15  1  0.65187985  0.83246161  0.23938646  1  0  0.126986  0  0.957546  0  0  0.124845  0  1.03572  0  0  0.129471  0  1.028965  0  0.17108  0  0.124992  0.121495  0  1.04065  0
H  H16  1  0.34973267  0.30812791  0.45842656  1  0  0.127399  0  0.961984  0  0  0.130448  0  1.032637  0  0  0.133913  0  1.027781  0  0.206089  0  0.124451  0.127773  0  1.036606  0
H  H17  1  0.65027058  0.69187150  0.54157160  1  0  0.127409  0  0.961961  0  0  0.130449  0  1.032627  0  0  0.133913  0  1.02777  0  0.206044  0  0.12444  0.127772  0  1.036598  0
H  H18  1  0.35064316  0.21084204  0.19016836  1  0  0.12249  0  0.961353  0  0  0.121282  0  1.038784  0  0  0.125495  0  1.033456  0  0.20054  0  0.125276  0.118206  0  1.042771  0
H  H19  1  0.64935709  0.78915736  0.80983093  1  0  0.12247  0  0.961323  0  0  0.121249  0  1.038765  0  0  0.125462  0  1.033438  0  0.200547  0  0.125254  0.118173  0  1.042751  0
H  H20  1  0.32718078  0.91331618  0.05705653  1  0  0.124846  0  0.955585  0  0  0.130241  0  1.024547  0  0  0.133284  0  1.020546  0  0.168496  0  0.126151  0.127992  0  1.027579  0
H  H21  1  0.67281747  0.08668323  0.94294452  1  0  0.12484  0  0.955596  0  0  0.130228  0  1.024574  0  0  0.13327  0  1.020574  0  0.168017  0  0.126129  0.127978  0  1.027607  0
H  H22  1  0.34701575  0.64213322  0.15067063  1  0  0.125717  0  0.955921  0  0  0.125386  0  1.031189  0  0  0.129815  0  1.025195  0  0.204374  0  0.129982  0.122306  0  1.035352  0
H  H23  1  0.65298233  0.35786865  0.84932968  1  0  0.125737  0  0.955917  0  0  0.125407  0  1.031181  0  0  0.129834  0  1.025193  0  0.204275  0  0.129987  0.122329  0  1.03534  0
H  H24  1  0.32324482  0.50896858  0.45538392  1  0  0.121061  0  0.962033  0  0  0.128216  0  1.029773  0  0  0.131532  0  1.025039  0  0.152357  0  0.124645  0.12571  0  1.033415  0
H  H25  1  0.67675683  0.49103001  0.54461444  1  0  0.121046  0  0.962046  0  0  0.128201  0  1.029786  0  0  0.131516  0  1.025053  0  0.152344  0  0.124641  0.125695  0  1.033429  0
H  H26  1  0.33512186  0.60119790  0.71878279  1  0  0.120745  0  0.966452  0  0  0.119532  0  1.046004  0  0  0.123439  0  1.041154  0  0.20627  0  0.123015  0.116636  0  1.049823  0
H  H27  1  0.66488040  0.39880150  0.28121778  1  0  0.120792  0  0.966386  0  0  0.119584  0  1.045936  0  0  0.123489  0  1.041086  0  0.206232  0  0.123026  0.116688  0  1.049756  0
H  H28  1  0.34636248  0.90044647  0.85739363  1  0  0.120664  0  0.961816  0  0  0.12752  0  1.028653  0  0  0.130337  0  1.025281  0  0.173739  0  0.124661  0.125485  0  1.03117  0
H  H29  1  0.65363359  0.09955540  0.14260768  1  0  0.120674  0  0.961785  0  0  0.127535  0  1.028615  0  0  0.130346  0  1.025251  0  0.173762  0  0.124659  0.125499  0  1.031131  0
H  H30  1  0.99122865  0.01686582  0.90077623  1  0  0.122898  0  0.935132  0  0  0.13064  0  0.999819  0  0  0.133289  0  0.996362  0  0.144657  0  0.128647  0.12864  0  1.002501  0
H  H31  1  0.00877160  0.98313359  0.09922382  1  0  0.122898  0  0.935134  0  0  0.130638  0  0.999821  0  0  0.133286  0  0.996365  0  0.144665  0  0.128649  0.128637  0  1.002504  0
H  H32  1  0.00887719  0.31154165  0.75214376  1  0  0.125903  0  0.97463  0  0  0.125929  0  1.048259  0  0  0.129875  0  1.043573  0  0.214267  0  0.125381  0.123078  0  1.05172  0
H  H33  1  0.99112328  0.68845940  0.24785702  1  0  0.125887  0  0.974641  0  0  0.125905  0  1.048274  0  0  0.129851  0  1.043585  0  0.214277  0  0.125383  0.123052  0  1.051739  0
H  H34  1  0.00741977  0.40027427  0.48204738  1  0  0.121449  0  0.93295  0  0  0.130449  0  0.995905  0  0  0.132946  0  0.992727  0  0.157638  0  0.128997  0.1286  0  0.998277  0
H  H35  1  0.99258148  0.59972513  0.51795178  1  0  0.121504  0  0.932901  0  0  0.130503  0  0.995855  0  0  0.133001  0  0.992675  0  0.157666  0  0.129033  0.128656  0  0.998224  0
H  H36  1  0.00110831  0.25009021  0.18719681  1  0  0.124757  0  0.972367  0  0  0.124659  0  1.046658  0  0  0.128662  0  1.041773  0  0.180137  0  0.125211  0.121788  0  1.05019  0
H  H37  1  0.99889334  0.74990838  0.81280231  1  0  0.124754  0  0.972344  0  0  0.124664  0  1.046632  0  0  0.128659  0  1.041759  0  0.180361  0  0.125242  0.121793  0  1.050165  0
C  C38  1  0.35275085  0.18389024  0.67924893  1  0  0.019779  0  3.670146  0  0  -0.026497  0  3.944446  0  0  -0.014271  0  3.95209  0  0.479875  0  0.025573  -0.034498  0  3.93943  0
C  C39  1  0.64724762  0.81611080  0.32074980  1  0  0.019735  0  3.670233  0  0  -0.026533  0  3.944568  0  0  -0.014301  0  3.952206  0  0.479868  0  0.025546  -0.034537  0  3.939554  0
C  C40  1  0.34555607  0.28056910  0.62921569  1  0  -0.038156  0  3.781139  0  0  -0.046367  0  4.050218  0  0  -0.058413  0  4.071337  0  0.330631  0  0.059366  -0.039014  0  4.03668  0
C  C41  1  0.65444140  0.71943195  0.37078545  1  0  -0.038202  0  3.781238  0  0  -0.046481  0  4.050397  0  0  -0.058527  0  4.071511  0  0.330645  0  0.059324  -0.039123  0  4.03685  0
C  C42  1  0.35306580  0.25663759  0.52362654  1  0  0.00963  0  3.682402  0  0  -0.038724  0  3.958571  0  0  -0.026211  0  3.96625  0  0.463302  0  0.022077  -0.047039  0  3.953885  0
C  C43  1  0.64693305  0.74336264  0.47637292  1  0  0.009631  0  3.682479  0  0  -0.038699  0  3.958653  0  0  -0.02618  0  3.966326  0  0.463357  0  0.022099  -0.047012  0  3.953965  0
C  C44  1  0.34727095  0.13035464  0.17448373  1  0  0.031003  0  3.656317  0  0  -0.01587  0  3.926401  0  0  -0.006721  0  3.940662  0  0.485619  0  0.031347  -0.021345  0  3.916497  0
C  C45  1  0.65272891  0.86964559  0.82551560  1  0  0.030985  0  3.656401  0  0  -0.015881  0  3.92649  0  0  -0.006733  0  3.940753  0  0.485603  0  0.031346  -0.021353  0  3.916578  0
C  C46  1  0.33534822  0.08210885  0.08233237  1  0  -0.029048  0  3.77146  0  0  -0.046844  0  4.034886  0  0  -0.060088  0  4.061041  0  0.295095  0  0.059104  -0.038115  0  4.017134  0
C  C47  1  0.66465103  0.91789056  0.91766704  1  0  -0.02903  0  3.771468  0  0  -0.046798  0  4.034895  0  0  -0.060041  0  4.06105  0  0.295214  0  0.05913  -0.03807  0  4.017144  0
C  C48  1  0.33328609  0.97772138  0.10598722  1  0  0.022228  0  3.669207  0  0  -0.031187  0  3.946269  0  0  -0.021535  0  3.960368  0  0.511102  0  0.024745  -0.037251  0  3.936883  0
C  C49  1  0.66671216  0.02227803  0.89401307  1  0  0.022248  0  3.669228  0  0  -0.031159  0  3.946263  0  0  -0.021509  0  3.960368  0  0.51145  0  0.024771  -0.037222  0  3.936877  0
C  C50  1  0.34055388  0.62710816  0.23236565  1  0  0.042033  0  3.639289  0  0  -0.005159  0  3.907721  0  0  0.004787  0  3.920584  0  0.468423  0  0.038033  -0.011022  0  3.898536  0
C  C51  1  0.65944558  0.37289288  0.76763449  1  0  0.041921  0  3.639393  0  0  -0.005267  0  3.907822  0  0  0.004682  0  3.920681  0  0.468403  0  0.037978  -0.011129  0  3.898642  0
C  C52  1  0.33251460  0.53468417  0.28422184  1  0  -0.021598  0  3.764559  0  0  -0.040031  0  4.025547  0  0  -0.053357  0  4.051505  0  0.380128  0  0.064257  -0.031166  0  4.00797  0
C  C53  1  0.66748487  0.46531688  0.71577829  1  0  -0.021606  0  3.764546  0  0  -0.040033  0  4.025553  0  0  -0.053361  0  4.051514  0  0.380206  0  0.064287  -0.031169  0  4.007978  0
C  C54  1  0.32755477  0.55852203  0.38944183  1  0  0.023866  0  3.668825  0  0  -0.022765  0  3.934307  0  0  -0.01267  0  3.947303  0  0.467943  0  0.028002  -0.029156  0  3.925852  0
C  C55  1  0.67244609  0.44147819  0.61055738  1  0  0.023914  0  3.668796  0  0  -0.022717  0  3.934276  0  0  -0.01262  0  3.947276  0  0.467935  0  0.027997  -0.029108  0  3.925823  0
C  C56  1  0.33873948  0.68140603  0.73553320  1  0  0.022942  0  3.665397  0  0  -0.025535  0  3.940059  0  0  -0.016851  0  3.954967  0  0.443938  0  0.02555  -0.030636  0  3.929414  0
C  C57  1  0.66125921  0.31859666  0.26446855  1  0  0.022922  0  3.665401  0  0  -0.025566  0  3.940075  0  0  -0.016879  0  3.954985  0  0.443914  0  0.025573  -0.030668  0  3.929433  0
C  C58  1  0.33951924  0.73185728  0.82984398  1  0  -0.019376  0  3.761103  0  0  -0.042673  0  4.025568  0  0  -0.049579  0  4.055497  0  0.28992  0  0.060253  -0.034256  0  4.008064  0
C  C59  1  0.66047844  0.26814541  0.17015865  1  0  -0.01943  0  3.761083  0  0  -0.042746  0  4.025569  0  0  -0.049653  0  4.055495  0  0.29008  0  0.060253  -0.034327  0  4.008061  0
C  C60  1  0.34460923  0.83548190  0.80702378  1  0  0.024885  0  3.665217  0  0  -0.023672  0  3.935017  0  0  -0.013926  0  3.94839  0  0.537386  0  0.027791  -0.029305  0  3.924972  0
C  C61  1  0.65538823  0.16451915  0.19297812  1  0  0.024954  0  3.665204  0  0  -0.023603  0  3.934994  0  0  -0.013848  0  3.948366  0  0.537434  0  0.027845  -0.029246  0  3.924979  0
C  C62  1  0.99583782  0.07990585  0.84808101  1  0  0.029677  0  3.663217  0  0  -0.018807  0  3.931519  0  0  -0.00864  0  3.944204  0  0.53038  0  0.031179  -0.025378  0  3.923346  0
C  C63  1  0.00416204  0.92009437  0.15191908  1  0  0.029678  0  3.663218  0  0  -0.018791  0  3.931513  0  0  -0.008623  0  3.944196  0  0.530367  0  0.031187  -0.025363  0  3.923339  0
C  C64  1  0.99828970  0.18486689  0.86727760  1  0  -0.024634  0  3.759265  0  0  -0.034679  0  4.026514  0  0  -0.047614  0  4.051991  0  0.327535  0  0.065337  -0.026367  0  4.009611  0
C  C65  1  0.00171316  0.81513334  0.13272289  1  0  -0.024645  0  3.759253  0  0  -0.034703  0  4.026528  0  0  -0.047637  0  4.052003  0  0.327577  0  0.065341  -0.026389  0  4.009621  0
C  C66  1  0.00554486  0.23145263  0.77100199  1  0  0.030704  0  3.64975  0  0  -0.013447  0  3.913018  0  0  -0.005078  0  3.928148  0  0.471237  0  0.031996  -0.018481  0  3.902488  0
C  C67  1  0.99445600  0.76854760  0.22900026  1  0  0.030758  0  3.64966  0  0  -0.013362  0  3.912925  0  0  -0.004996  0  3.92807  0  0.471239  0  0.032017  -0.018401  0  3.902396  0
C  C68  1  0.00648593  0.34711815  0.41907287  1  0  0.030531  0  3.663411  0  0  -0.017569  0  3.930778  0  0  -0.007557  0  3.943812  0  0.482888  0  0.031766  -0.024005  0  3.921998  0
C  C69  1  0.99351532  0.65288125  0.58092629  1  0  0.030464  0  3.663427  0  0  -0.017671  0  3.930809  0  0  -0.00766  0  3.943841  0  0.482831  0  0.031724  -0.024107  0  3.922028  0
C  C70  1  0.00343916  0.36591262  0.31388722  1  0  -0.021315  0  3.757931  0  0  -0.031938  0  4.025819  0  0  -0.044753  0  4.050842  0  0.35842  0  0.065706  -0.023792  0  4.009591  0
C  C71  1  0.99656209  0.63408678  0.68611194  1  0  -0.021325  0  3.75782  0  0  -0.031926  0  4.025692  0  0  -0.04474  0  4.050712  0  0.358389  0  0.065729  -0.023779  0  4.009466  0
C  C72  1  0.00382464  0.26922966  0.26714723  1  0  0.031841  0  3.651379  0  0  -0.012745  0  3.915893  0  0  -0.003874  0  3.930102  0  0.509729  0  0.03263  -0.018158  0  3.90624  0
C  C73  1  0.99617601  0.73076892  0.73285277  1  0  0.031904  0  3.651353  0  0  -0.012701  0  3.915873  0  0  -0.003822  0  3.93009  0  0.509684  0  0.032646  -0.018117  0  3.906228  0
Br  Br74  1  0.21081058  0.94728438  0.47352336  1  0  -0.573483  0  1.484145  0  0  -0.484584  0  1.962942  0  0  -0.484522  0  1.888431  0  -0.597697  0  -0.228195  -0.486493  0  2.014304  0
Br  Br75  1  0.78919028  0.05271585  0.52647662  1  0  -0.573497  0  1.484155  0  0  -0.484603  0  1.962954  0  0  -0.48455  0  1.888455  0  -0.59778  0  -0.228198  -0.486508  0  2.014311  0
N  N76  1  0.36169932  0.10775708  0.60776274  1  0  -0.216716  0  3.394441  0  0  -0.140965  0  3.694569  0  0  -0.151685  0  3.699977  0  -0.776903  0  -0.317291  -0.134889  0  3.690736  0
N  N77  1  0.63830054  0.89224314  0.39223659  1  0  -0.216757  0  3.39446  0  0  -0.141014  0  3.694596  0  0  -0.151733  0  3.7  0  -0.776916  0  -0.317294  -0.134935  0  3.690763  0
N  N78  1  0.36178786  0.15262445  0.51180166  1  0  -0.218825  0  3.401727  0  0  -0.144565  0  3.705648  0  0  -0.154799  0  3.710152  0  -0.778077  0  -0.318127  -0.138661  0  3.702408  0
N  N79  1  0.63821139  0.84737495  0.48819774  1  0  -0.21872  0  3.401681  0  0  -0.144449  0  3.705571  0  0  -0.154687  0  3.710082  0  -0.778073  0  -0.318083  -0.138552  0  3.702338  0
N  N80  1  0.32994805  0.38145763  0.67596275  1  0  0.532235  0  3.957786  0  0  0.558624  0  4.251101  0  0  0.582417  0  4.261238  0  0.247481  0  0.037752  0.542597  0  4.244653  0
N  N81  1  0.67005281  0.61854260  0.32403646  1  0  0.532465  0  3.95752  0  0  0.558887  0  4.250817  0  0  0.582681  0  4.260952  0  0.247528  0  0.037925  0.542857  0  4.244371  0
N  N82  1  0.35207941  0.05904885  0.24809868  1  0  -0.209728  0  3.372388  0  0  -0.135338  0  3.67275  0  0  -0.147102  0  3.682051  0  -0.762614  0  -0.31087  -0.128561  0  3.667083  0
N  N83  1  0.64792145  0.94095138  0.75190129  1  0  -0.20974  0  3.372479  0  0  -0.13535  0  3.672837  0  0  -0.147113  0  3.682142  0  -0.762639  0  -0.310878  -0.128574  0  3.667176  0
N  N84  1  0.34341511  0.96479582  0.20584843  1  0  -0.219483  0  3.387092  0  0  -0.146078  0  3.697737  0  0  -0.155998  0  3.705387  0  -0.778005  0  -0.314976  -0.140432  0  3.693035  0
N  N85  1  0.65658414  0.03520359  0.79415098  1  0  -0.219465  0  3.38713  0  0  -0.146053  0  3.69776  0  0  -0.155978  0  3.705418  0  -0.77801  0  -0.314972  -0.140409  0  3.693059  0
N  N86  1  0.32912696  0.12860998  0.98586301  1  0  0.493401  0  4.014501  0  0  0.551652  0  4.259935  0  0  0.574549  0  4.270919  0  0.265109  0  0.039474  0.536179  0  4.252696  0
N  N87  1  0.67087129  0.87138942  0.01413728  1  0  0.493506  0  4.014412  0  0  0.551691  0  4.259931  0  0  0.574588  0  4.270917  0  0.26512  0  0.039528  0.536219  0  4.252693  0
N  N88  1  0.33906404  0.70153363  0.30255979  1  0  -0.217959  0  3.371654  0  0  -0.146434  0  3.680466  0  0  -0.157902  0  3.690709  0  -0.771515  0  -0.314981  -0.139839  0  3.673971  0
N  N89  1  0.66093482  0.29846660  0.69744042  1  0  -0.21791  0  3.371661  0  0  -0.146386  0  3.68046  0  0  -0.15786  0  3.690712  0  -0.771522  0  -0.314969  -0.139795  0  3.673966  0
N  N90  1  0.33130601  0.65897686  0.39971021  1  0  -0.226282  0  3.400721  0  0  -0.154231  0  3.711989  0  0  -0.164601  0  3.720263  0  -0.772876  0  -0.31836  -0.148411  0  3.707129  0
N  N91  1  0.66869323  0.34102254  0.60029072  1  0  -0.226327  0  3.400793  0  0  -0.154263  0  3.712061  0  0  -0.164646  0  3.720366  0  -0.772851  0  -0.318347  -0.148445  0  3.707201  0
N  N92  1  0.32866038  0.43840698  0.24019914  1  0  0.491751  0  4.013951  0  0  0.549928  0  4.262087  0  0  0.572784  0  4.273575  0  0.267271  0  0.038553  0.534467  0  4.254406  0
N  N93  1  0.67134009  0.56159407  0.75979936  1  0  0.492108  0  4.013663  0  0  0.550233  0  4.26185  0  0  0.573089  0  4.273335  0  0.267312  0  0.038675  0.534771  0  4.254174  0
N  N94  1  0.34328726  0.75093349  0.66135777  1  0  -0.2193  0  3.382217  0  0  -0.145352  0  3.688995  0  0  -0.156293  0  3.698853  0  -0.761146  0  -0.316058  -0.139085  0  3.682931  0
N  N95  1  0.65671181  0.24906838  0.33864241  1  0  -0.219297  0  3.382244  0  0  -0.145326  0  3.689003  0  0  -0.156283  0  3.698894  0  -0.761183  0  -0.316111  -0.13906  0  3.682937  0
N  N96  1  0.34709668  0.84599500  0.70555858  1  0  -0.216519  0  3.389844  0  0  -0.142018  0  3.694481  0  0  -0.153019  0  3.702447  0  -0.786309  0  -0.314271  -0.135693  0  3.689875  0
N  N97  1  0.65290239  0.15400687  0.29444236  1  0  -0.216542  0  3.389978  0  0  -0.142045  0  3.694613  0  0  -0.153049  0  3.702587  0  -0.786334  0  -0.314258  -0.135725  0  3.690008  0
N  N98  1  0.33792319  0.68676321  0.92713531  1  0  0.496443  0  4.013231  0  0  0.562247  0  4.255361  0  0  0.565689  0  4.296383  0  0.276538  0  0.044524  0.546563  0  4.24872  0
N  N99  1  0.66207567  0.31323702  0.07286566  1  0  0.496517  0  4.0132  0  0  0.562325  0  4.255339  0  0  0.565763  0  4.296357  0  0.276326  0  0.044529  0.546639  0  4.248701  0
N  N100  1  0.00087425  0.06525699  0.74665234  1  0  -0.230904  0  3.427283  0  0  -0.15777  0  3.741046  0  0  -0.166587  0  3.744876  0  -0.793609  0  -0.321351  -0.152749  0  3.739206  0
N  N101  1  0.99912482  0.93474488  0.25334861  1  0  -0.230858  0  3.427246  0  0  -0.157714  0  3.74101  0  0  -0.166528  0  3.744841  0  -0.793629  0  -0.321333  -0.152691  0  3.739167  0
N  N102  1  0.00728286  0.15864039  0.69909143  1  0  -0.216552  0  3.397859  0  0  -0.142509  0  3.705146  0  0  -0.153069  0  3.712384  0  -0.77292  0  -0.31923  -0.136224  0  3.700086  0
N  N103  1  0.99271661  0.84136066  0.30090947  1  0  -0.216565  0  3.397849  0  0  -0.142569  0  3.705192  0  0  -0.153132  0  3.712435  0  -0.772927  0  -0.31925  -0.136279  0  3.700128  0
N  N104  1  0.99595126  0.23349052  0.96282080  1  0  0.531778  0  3.949655  0  0  0.558414  0  4.245784  0  0  0.581911  0  4.255619  0  0.249533  0  0.042502  0.542551  0  4.239326  0
N  N105  1  0.00404899  0.76650888  0.03718077  1  0  0.531791  0  3.949566  0  0  0.558423  0  4.245703  0  0  0.581919  0  4.255538  0  0.249491  0  0.042488  0.542561  0  4.239242  0
N  N106  1  0.00891944  0.24538358  0.43381749  1  0  -0.229707  0  3.422211  0  0  -0.155537  0  3.735165  0  0  -0.164573  0  3.739473  0  -0.787487  0  -0.320569  -0.150515  0  3.732825  0
N  N107  1  0.99108020  0.75461500  0.56618187  1  0  -0.229735  0  3.422281  0  0  -0.155517  0  3.735203  0  0  -0.164553  0  3.739519  0  -0.787662  0  -0.320566  -0.150496  0  3.732866  0
N  N108  1  0.00686158  0.19746225  0.34008406  1  0  -0.217309  0  3.398468  0  0  -0.144321  0  3.705664  0  0  -0.154642  0  3.712366  0  -0.771327  0  -0.319994  -0.138233  0  3.701706  0
N  N109  1  0.99313806  0.80253634  0.65991682  1  0  -0.21729  0  3.39839  0  0  -0.144305  0  3.705576  0  0  -0.154634  0  3.712282  0  -0.771282  0  -0.320006  -0.138218  0  3.70162  0
N  N110  1  0.00127443  0.46148176  0.26484204  1  0  0.532564  0  3.948107  0  0  0.559095  0  4.243793  0  0  0.582663  0  4.253502  0  0.267395  0  0.041877  0.54313  0  4.237658  0
N  N111  1  0.99872782  0.53851764  0.73515701  1  0  0.532581  0  3.947965  0  0  0.559131  0  4.243627  0  0  0.582698  0  4.253334  0  0.267404  0  0.041867  0.543166  0  4.237494  0
O  O112  1  0.32223841  0.38870895  0.77192088  1  0  -0.437568  0  1.764892  0  0  -0.427639  0  1.997169  0  0  -0.439199  0  1.990895  0  -0.510531  0  -0.216561  -0.420237  0  2.001929  0
O  O113  1  0.67776145  0.61129127  0.22807769  1  0  -0.437607  0  1.764881  0  0  -0.427683  0  1.997155  0  0  -0.439244  0  1.990881  0  -0.510575  0  -0.216591  -0.420284  0  2.001918  0
O  O114  1  0.32485354  0.46030798  0.61999103  1  0  -0.409589  0  1.754348  0  0  -0.378424  0  1.970966  0  0  -0.391418  0  1.966711  0  -0.519122  0  -0.14679  -0.370504  0  1.974616  0
O  O115  1  0.67515010  0.53969060  0.38000937  1  0  -0.409778  0  1.754175  0  0  -0.378622  0  1.970789  0  0  -0.391618  0  1.966531  0  -0.519129  0  -0.146914  -0.3707  0  1.974441  0
O  O116  1  0.33635502  0.22202048  0.97816304  1  0  -0.429547  0  1.764827  0  0  -0.424413  0  1.973691  0  0  -0.436332  0  1.96757  0  -0.522705  0  -0.215  -0.416615  0  1.978259  0
O  O117  1  0.66364323  0.77797892  0.02183725  1  0  -0.429523  0  1.764737  0  0  -0.424374  0  1.973638  0  0  -0.436294  0  1.967519  0  -0.522702  0  -0.214976  -0.416579  0  1.978205  0
O  O118  1  0.31781443  0.07465710  0.91084318  1  0  -0.398126  0  1.768235  0  0  -0.374833  0  1.967131  0  0  -0.389104  0  1.96546  0  -0.51762  0  -0.145543  -0.365872  0  1.968797  0
O  O119  1  0.68218682  0.92534230  0.08915675  1  0  -0.398245  0  1.768257  0  0  -0.374935  0  1.967183  0  0  -0.389205  0  1.965513  0  -0.517598  0  -0.145624  -0.365972  0  1.968849  0
O  O120  1  0.33491117  0.42996380  0.14434872  1  0  -0.431458  0  1.7762  0  0  -0.429957  0  1.989699  0  0  -0.442908  0  1.984986  0  -0.535163  0  -0.215151  -0.421197  0  1.992997  0
O  O121  1  0.66508969  0.57003643  0.85565049  1  0  -0.431641  0  1.776083  0  0  -0.430147  0  1.989636  0  0  -0.443095  0  1.984921  0  -0.535121  0  -0.215257  -0.421385  0  1.992938  0
O  O122  1  0.31969106  0.36382051  0.29814237  1  0  -0.403163  0  1.774183  0  0  -0.376158  0  1.974127  0  0  -0.390781  0  1.972554  0  -0.511635  0  -0.145487  -0.366823  0  1.975802  0
O  O123  1  0.68030980  0.63617971  0.70185684  1  0  -0.403285  0  1.774145  0  0  -0.376243  0  1.974087  0  0  -0.390868  0  1.972514  0  -0.511676  0  -0.145495  -0.366909  0  1.975763  0
O  O124  1  0.33526406  0.59194318  0.93301349  1  0  -0.425741  0  1.765543  0  0  -0.426202  0  1.971669  0  0  -0.43174  0  1.975033  0  -0.511313  0  -0.215951  -0.4179  0  1.976096  0
O  O125  1  0.66473619  0.40805622  0.06698580  1  0  -0.425803  0  1.765555  0  0  -0.426261  0  1.971682  0  0  -0.431797  0  1.975042  0  -0.511211  0  -0.216001  -0.417959  0  1.976109  0
O  O126  1  0.33933813  0.74291990  0.00402307  1  0  -0.393019  0  1.74898  0  0  -0.37586  0  1.940581  0  0  -0.382546  0  1.945498  0  -0.515491  0  -0.141469  -0.367377  0  1.944151  0
O  O127  1  0.66066151  0.25707868  0.99597781  1  0  -0.39307  0  1.748978  0  0  -0.375911  0  1.940576  0  0  -0.382596  0  1.945494  0  -0.515474  0  -0.141469  -0.367424  0  1.944146  0
O  O128  1  0.99194820  0.17961732  0.04179011  1  0  -0.409007  0  1.739549  0  0  -0.377818  0  1.951116  0  0  -0.391382  0  1.947978  0  -0.502958  0  -0.146165  -0.369243  0  1.953483  0
O  O129  1  0.00805305  0.82038209  0.95821134  1  0  -0.409004  0  1.739453  0  0  -0.377813  0  1.951021  0  0  -0.391373  0  1.947877  0  -0.502896  0  -0.146161  -0.369244  0  1.953391  0
O  O130  1  0.99825912  0.32885760  0.96558336  1  0  -0.466467  0  1.765616  0  0  -0.456274  0  1.997235  0  0  -0.468854  0  1.991363  0  -0.529633  0  -0.209203  -0.447855  0  2.001438  0
O  O131  1  0.00174074  0.67114263  0.03441826  1  0  -0.466501  0  1.765628  0  0  -0.456308  0  1.997251  0  0  -0.468892  0  1.99138  0  -0.529635  0  -0.209195  -0.447885  0  2.001439  0
O  O132  1  0.99683394  0.54211291  0.31902812  1  0  -0.409475  0  1.742676  0  0  -0.376732  0  1.953761  0  0  -0.390685  0  1.950968  0  -0.52241  0  -0.146344  -0.368026  0  1.956285  0
O  O133  1  0.00316909  0.45788485  0.68097083  1  0  -0.409482  0  1.742571  0  0  -0.37679  0  1.953693  0  0  -0.390744  0  1.950898  0  -0.522455  0  -0.146382  -0.368084  0  1.956217  0
O  O134  1  0.00394685  0.46263172  0.16891807  1  0  -0.467062  0  1.769257  0  0  -0.456935  0  2.002299  0  0  -0.469436  0  1.996178  0  -0.534175  0  -0.211244  -0.448802  0  2.006959  0
O  O135  1  0.99605479  0.53736686  0.83108105  1  0  -0.467103  0  1.769288  0  0  -0.456958  0  2.002293  0  0  -0.469459  0  1.996172  0  -0.534131  0  -0.211243  -0.448824  0  2.006954  0
