# generated using pymatgen
data_Dy2CoH28C40(N3O5)4
_symmetry_space_group_name_H-M   'P 1'
_cell_length_a   9.18761347
_cell_length_b   10.36684168
_cell_length_c   12.42102105
_cell_angle_alpha   90.69699952
_cell_angle_beta   95.98107274
_cell_angle_gamma   114.22897972
_symmetry_Int_Tables_number   1
_chemical_formula_structural   Dy2CoH28C40(N3O5)4
_chemical_formula_sum   'Dy2 Co1 H28 C40 N12 O20'
_cell_volume   1071.00431836
_cell_formula_units_Z   1
loop_
 _symmetry_equiv_pos_site_id
 _symmetry_equiv_pos_as_xyz
  1  'x, y, z'
loop_
 _atom_site_type_symbol
 _atom_site_label
 _atom_site_symmetry_multiplicity
 _atom_site_fract_x
 _atom_site_fract_y
 _atom_site_fract_z
 _atom_site_occupancy
 _atom_site_hle17_ddec_charge
 _atom_site_hle17_ddec_spin_density
 _atom_site_hle17_ddec_sum_bond_order
 _atom_site_hle17_magmom
 _atom_site_hse06_10hf_ddec_charge
 _atom_site_hse06_10hf_ddec_spin_density
 _atom_site_hse06_10hf_ddec_sum_bond_order
 _atom_site_hse06_10hf_magmom
 _atom_site_hse06_ddec_charge
 _atom_site_hse06_ddec_spin_density
 _atom_site_hse06_ddec_sum_bond_order
 _atom_site_hse06_magmom
 _atom_site_pbe_cm5_charge
 _atom_site_pbe_ddec_charge
 _atom_site_pbe_ddec_spin_density
 _atom_site_pbe_ddec_sum_bond_order
 _atom_site_pbe_magmom
Dy  Dy0  1  0.27772750  0.04940123  0.02259525  1  2.27794  -1.1e-05  1.624292  0.0  2.135367  0.0  2.094721  0.0  2.260672  -0.0  1.907924  0.0  1.516022  2.098055  6e-06  2.128101  0.0
Dy  Dy1  1  0.72227429  0.95059910  0.97740668  1  2.27791  -9e-06  1.624264  0.0  2.135328  -1e-06  2.0947  0.0  2.260633  -2e-06  1.907894  0.0  1.516018  2.097983  6e-06  2.128141  0.0
Co  Co2  1  0.50000078  0.50000230  0.49999858  1  0.615535  1.102404  2.550726  1.002  0.586366  1.023035  2.979379  0.95  0.640843  1.025565  2.917707  0.963  0.719182  0.555903  1.009244  3.016702  0.924
H  H3  1  0.19225958  0.92159954  0.36376604  1  0.126473  -6.9e-05  0.924934  0.0  0.138622  -4e-06  0.980573  0.0  0.142603  -9e-06  0.977541  0.0  0.118793  0.135854  2e-06  0.982524  0.0
H  H4  1  0.80773563  0.07841244  0.63623483  1  0.126413  -4.5e-05  0.924967  0.0  0.138578  -5e-06  0.980593  0.0  0.142561  -9e-06  0.97756  0.0  0.118768  0.135812  2e-06  0.982545  0.0
H  H5  1  0.03721505  0.72220106  0.83678012  1  0.141752  -2e-06  0.943463  0.0  0.147776  0.0  1.009254  0.0  0.152168  1e-06  1.005559  0.0  0.122039  0.144612  3e-06  1.011707  0.0
H  H6  1  0.96278343  0.27779930  0.16321756  1  0.141775  8e-06  0.943469  0.0  0.147798  -0.0  1.009249  0.0  0.15219  0.0  1.005553  0.0  0.122042  0.144634  3e-06  1.011702  0.0
H  H7  1  0.73063390  0.41110977  0.37172317  1  0.1435  -2.1e-05  0.933231  0.0  0.147988  -9.7e-05  0.99415  0.0  0.152146  -9.1e-05  0.990977  0.0  0.134156  0.144974  -0.000101  0.996455  0.0
H  H8  1  0.26936609  0.58889373  0.62827789  1  0.143643  -2.4e-05  0.933245  0.0  0.148115  -9.7e-05  0.994142  0.0  0.152276  -9.1e-05  0.990975  0.0  0.134224  0.145104  -0.000101  0.996446  0.0
H  H9  1  0.45254128  0.17985587  0.65276754  1  0.107976  -8.9e-05  0.95581  0.0  0.114628  -8.3e-05  1.023088  0.0  0.118452  -7.6e-05  1.020231  0.0  0.106646  0.111909  -7.5e-05  1.025  0.0
H  H10  1  0.54746272  0.82014443  0.34723777  1  0.107971  -8.6e-05  0.955853  0.0  0.114617  -8.3e-05  1.023137  0.0  0.11844  -7.7e-05  1.020281  0.0  0.106653  0.111898  -7.5e-05  1.025048  0.0
H  H11  1  0.38434435  0.41897411  0.73604894  1  0.123872  3.6e-05  0.949299  0.0  0.133806  -5.3e-05  1.005011  0.0  0.135884  -3.3e-05  1.005069  0.0  0.132747  0.131889  -6.1e-05  1.005782  0.0
H  H12  1  0.61565792  0.58101565  0.26394962  1  0.123851  3.4e-05  0.949258  0.0  0.133766  -5.3e-05  1.005007  0.0  0.135842  -3.3e-05  1.005068  0.0  0.132752  0.131847  -6.1e-05  1.005776  0.0
H  H13  1  0.00722474  0.81707863  0.67205790  1  0.124386  -9e-05  0.952275  0.0  0.125617  -3e-05  1.02882  0.0  0.130174  -2.1e-05  1.024023  0.0  0.115396  0.122551  -3.4e-05  1.0318  0.0
H  H14  1  0.99278463  0.18291214  0.32794682  1  0.124419  -9.1e-05  0.952307  0.0  0.125671  -3.1e-05  1.028791  0.0  0.130226  -2.1e-05  1.024004  0.0  0.115441  0.122606  -3.4e-05  1.031774  0.0
H  H15  1  0.81281756  0.26285381  0.83472884  1  0.136022  8e-06  0.957451  0.0  0.142112  -8e-06  1.02361  0.0  0.146754  -5e-06  1.019515  0.0  0.118139  0.138621  -1e-05  1.02672  0.0
H  H16  1  0.18718140  0.73714764  0.16526647  1  0.136064  2e-06  0.957381  0.0  0.142152  -7e-06  1.023554  0.0  0.146796  -4e-06  1.019455  0.0  0.118165  0.138662  -1e-05  1.026664  0.0
H  H17  1  0.05600127  0.60947967  0.38597724  1  0.134321  -0.000263  0.945569  0.0  0.138646  -6.6e-05  1.01358  0.0  0.141613  -5.3e-05  1.01201  0.0  0.132482  0.136369  -6.6e-05  1.015084  0.0
H  H18  1  0.94399810  0.39052493  0.61402057  1  0.134316  -0.000263  0.945523  0.0  0.138631  -6.6e-05  1.013554  0.0  0.141598  -5.4e-05  1.011982  0.0  0.132464  0.136354  -6.6e-05  1.015058  0.0
H  H19  1  0.31735887  0.48898445  0.94017647  1  0.111197  4e-06  0.951646  0.0  0.118637  -5e-06  1.017956  0.0  0.123218  -0.0  1.013326  0.0  0.110281  0.115437  -7e-06  1.021221  0.0
H  H20  1  0.68263912  0.51101484  0.05982195  1  0.111239  2e-06  0.951703  0.0  0.118665  -5e-06  1.018014  0.0  0.123246  -0.0  1.013384  0.0  0.110288  0.115436  -7e-06  1.021308  0.0
H  H21  1  0.60163131  0.39518804  0.89731024  1  0.149154  -0.000204  0.938086  0.0  0.158399  1e-06  0.996935  0.0  0.161378  -6e-06  0.994835  0.0  0.142867  0.156163  1.1e-05  0.998582  0.0
H  H22  1  0.39837293  0.60480598  0.10268613  1  0.149153  -0.000188  0.938126  0.0  0.158386  1e-06  0.996986  0.0  0.161366  -7e-06  0.994884  0.0  0.142871  0.156148  1.1e-05  0.998636  0.0
H  H23  1  0.32584043  0.18450348  0.24343127  1  0.433285  7.5e-05  0.871455  0.0  0.401392  0.000115  0.936611  0.0  0.411806  7.4e-05  0.921888  0.0  0.296106  0.393986  0.000174  0.94722  0.0
H  H24  1  0.67415478  0.81549685  0.75656940  1  0.433243  7.5e-05  0.871496  0.0  0.401338  0.000115  0.936671  0.0  0.41175  7.4e-05  0.92195  0.0  0.296089  0.393934  0.000174  0.947275  0.0
H  H25  1  0.29752138  0.27773842  0.15148429  1  0.412822  -1e-06  0.855668  0.0  0.386775  -5e-06  0.929518  0.0  0.394471  -3e-06  0.922552  0.0  0.308418  0.381108  -5e-06  0.935828  0.0
H  H26  1  0.70247383  0.72226192  0.84851557  1  0.412759  -1e-06  0.855708  0.0  0.386713  -5e-06  0.929581  0.0  0.394407  -3e-06  0.922608  0.0  0.308392  0.381045  -5e-06  0.935891  0.0
H  H27  1  0.46703122  0.93215234  0.17046858  1  0.434944  3e-06  0.871811  0.0  0.40387  4e-06  0.936196  0.0  0.414903  3e-06  0.920472  0.0  0.294969  0.395947  3e-06  0.947716  0.0
H  H28  1  0.53296728  0.06784799  0.82953312  1  0.434975  2e-06  0.87177  0.0  0.403901  4e-06  0.936153  0.0  0.414934  3e-06  0.920429  0.0  0.294982  0.395978  3e-06  0.947673  0.0
H  H29  1  0.40921149  0.02462038  0.24712215  1  0.434061  -1.7e-05  0.872677  0.0  0.402388  2.6e-05  0.938041  0.0  0.413625  1.7e-05  0.921928  0.0  0.292411  0.394509  1.9e-05  0.949421  0.0
H  H30  1  0.59079029  0.97537995  0.75287899  1  0.434038  -1.8e-05  0.872703  0.0  0.402379  2.6e-05  0.938045  0.0  0.413614  1.7e-05  0.921935  0.0  0.292385  0.394499  1.9e-05  0.949426  0.0
C  C31  1  0.44537354  0.17692289  0.43837325  1  0.66229  0.005848  3.90534  0.008  0.608386  0.007677  4.212471  0.011  0.642806  0.005963  4.204372  0.009  0.212804  0.584752  0.009474  4.216832  0.013
C  C32  1  0.55462915  0.82308167  0.56162883  1  0.66248  0.005838  3.905354  0.008  0.60859  0.007678  4.212466  0.011  0.643012  0.005966  4.20436  0.009  0.2129  0.584958  0.009475  4.21683  0.013
C  C33  1  0.20647764  0.94184584  0.45148254  1  -0.111743  0.000875  3.655067  0.001  -0.148908  0.00104  3.909527  0.001  -0.147289  0.000847  3.926398  0.001  -0.069232  -0.149491  0.001278  3.89721  0.002
C  C34  1  0.79352166  0.05816084  0.54851933  1  -0.111687  0.000848  3.655078  0.001  -0.148842  0.00104  3.909521  0.001  -0.147226  0.000843  3.926392  0.001  -0.069191  -0.149431  0.001278  3.89721  0.002
C  C35  1  0.34101447  0.75301857  0.92886149  1  0.711432  -5e-06  3.875259  0.0  0.664754  -0.0  4.163945  0.0  0.700507  0.0  4.157677  0.0  0.230602  0.640848  -2e-06  4.170761  0.0
C  C36  1  0.65898859  0.24697755  0.07113724  1  0.711427  -1.5e-05  3.875251  0.0  0.664669  -1e-06  4.164073  0.0  0.70042  -2e-06  4.157813  0.0  0.230549  0.640765  -2e-06  4.170887  0.0
C  C37  1  0.04695160  0.62161958  0.84836108  1  -0.111596  -0.000563  3.628922  0.0  -0.14986  -0.00011  3.885301  0.0  -0.147834  -7.6e-05  3.901721  0.0  -0.065349  -0.150128  -8.2e-05  3.873368  0.0
C  C38  1  0.95305126  0.37838077  0.15163852  1  -0.111628  -0.000628  3.628847  0.0  -0.149872  -0.000114  3.885221  0.0  -0.147848  -7.4e-05  3.901639  0.0  -0.065342  -0.150141  -8.2e-05  3.873287  0.0
C  C39  1  0.79188833  0.51929170  0.40565845  1  -0.016585  -0.006753  3.66822  -0.005  -0.054208  -0.002764  3.94891  -0.002  -0.052702  -0.002344  3.964641  -0.002  0.021536  -0.055646  -0.003101  3.939221  -0.002
C  C40  1  0.20810947  0.48071180  0.59434245  1  -0.016811  -0.006727  3.668282  -0.005  -0.054423  -0.002764  3.948965  -0.002  -0.052926  -0.002346  3.964703  -0.002  0.021476  -0.055858  -0.003101  3.939278  -0.002
C  C41  1  0.35102000  0.08683747  0.61469389  1  -0.050433  0.000388  3.67651  0.001  -0.092695  0.00079  3.929691  0.001  -0.088923  0.000704  3.946317  0.001  -0.070568  -0.094452  0.000738  3.917793  0.001
C  C42  1  0.64898179  0.91316286  0.38530724  1  -0.05035  0.000394  3.676585  0.001  -0.092615  0.000787  3.929761  0.001  -0.088841  0.000704  3.946383  0.001  -0.07056  -0.094377  0.000739  3.917854  0.001
C  C43  1  0.09218843  0.85451515  0.51484305  1  0.14757  -0.000992  3.776541  -0.001  0.132063  -0.000761  4.031263  0.0  0.132542  -0.000812  4.054536  -0.001  0.095596  0.131622  -0.000557  4.015455  0.0
C  C44  1  0.90781375  0.14548836  0.48515817  1  0.147741  -0.001018  3.776525  -0.001  0.132205  -0.000759  4.031295  0.0  0.132685  -0.000809  4.054567  -0.001  0.095686  0.131762  -0.000558  4.015487  0.0
C  C45  1  0.33504798  0.06191112  0.50223606  1  -0.055748  -0.000102  3.757523  0.0  -0.031854  -0.000677  4.000666  0.0  -0.040849  -0.000957  4.024195  -0.001  -0.012748  -0.026468  -8e-06  3.984659  0.0
C  C46  1  0.66495052  0.93808921  0.49776404  1  -0.055897  -0.000103  3.757562  0.0  -0.03201  -0.000674  4.000712  0.0  -0.041007  -0.000957  4.024238  -0.001  -0.012795  -0.02663  -9e-06  3.984712  0.0
C  C47  1  0.51161249  0.44795790  0.73662163  1  -0.002209  -0.007998  3.662558  -0.006  -0.038806  -0.002977  3.94171  -0.002  -0.036776  -0.002475  3.955993  -0.002  0.028422  -0.040055  -0.003111  3.932152  -0.002
C  C48  1  0.48838671  0.55203923  0.26338087  1  -0.002066  -0.007953  3.662547  -0.006  -0.038678  -0.002977  3.941711  -0.002  -0.03665  -0.002473  3.955996  -0.002  0.028502  -0.039924  -0.003112  3.932149  -0.002
C  C49  1  0.10187671  0.88360579  0.62574105  1  -0.112422  0.000976  3.669975  0.001  -0.151013  0.001281  3.927075  0.002  -0.149349  0.001006  3.943889  0.001  -0.069273  -0.151221  0.001205  3.914378  0.001
C  C50  1  0.89812697  0.11638923  0.37426253  1  -0.112594  0.000995  3.67012  0.001  -0.151203  0.001279  3.927267  0.002  -0.149541  0.001005  3.944084  0.001  -0.069396  -0.151418  0.001205  3.914561  0.001
C  C51  1  0.24768066  0.02801626  0.79578634  1  0.639188  -3.1e-05  3.921762  0.0  0.594542  -3.4e-05  4.202915  0.0  0.627277  -3.4e-05  4.202785  0.0  0.19476  0.57191  -3.2e-05  4.207018  0.0
C  C52  1  0.75232303  0.97197876  0.20421645  1  0.639221  -2e-05  3.921716  0.0  0.594576  -3.4e-05  4.202866  0.0  0.627312  -3.4e-05  4.202732  0.0  0.194731  0.571938  -3.2e-05  4.206966  0.0
C  C53  1  0.06603734  0.36322279  0.89319833  1  -0.059814  0.000229  3.75402  0.0  -0.032211  1.4e-05  3.985326  0.0  -0.040791  9e-06  4.006808  0.0  -0.013131  -0.026535  7e-06  3.970181  0.0
C  C54  1  0.93396232  0.63677546  0.10679778  1  -0.059803  0.000221  3.754106  0.0  -0.032223  1.6e-05  3.985448  0.0  -0.040802  1.1e-05  4.00693  0.0  -0.013133  -0.026548  7e-06  3.970299  0.0
C  C55  1  0.07640104  0.22978210  0.93122006  1  0.721429  -3.4e-05  3.86718  0.0  0.674523  -7e-06  4.153309  0.0  0.710434  -7e-06  4.147291  0.0  0.236553  0.650425  1e-06  4.159669  0.0
C  C56  1  0.92359266  0.77021511  0.06877480  1  0.721407  -3.6e-05  3.867071  0.0  0.674529  -8e-06  4.153167  0.0  0.71044  -9e-06  4.14715  0.0  0.236527  0.650432  1e-06  4.159525  0.0
C  C57  1  0.91955525  0.36302212  0.84902951  1  -0.125346  -0.001026  3.672949  -0.001  -0.162791  -0.000229  3.929691  0.0  -0.161309  -0.000141  3.946592  0.0  -0.071234  -0.162968  -0.000371  3.917355  0.0
C  C58  1  0.08044382  0.63697720  0.15096658  1  -0.125357  -0.000975  3.672919  -0.001  -0.162818  -0.000233  3.92972  0.0  -0.161342  -0.000136  3.946627  0.0  -0.07122  -0.162996  -0.000371  3.917387  0.0
C  C59  1  0.91356366  0.49203258  0.82468007  1  0.134819  0.000116  3.771976  0.001  0.119054  -5.6e-05  4.032552  0.0  0.119108  -2e-05  4.055923  0.0  0.092056  0.119097  -7.5e-05  4.016537  0.0
C  C60  1  0.08643701  0.50796778  0.17531857  1  0.134947  0.000125  3.771987  0.001  0.11914  -5.5e-05  4.032573  0.0  0.119198  -2.2e-05  4.055937  0.0  0.092074  0.119183  -7.5e-05  4.016557  0.0
C  C61  1  0.94996157  0.61571964  0.41197929  1  -0.038656  0.00227  3.636814  0.003  -0.095986  0.00036  3.895601  0.001  -0.094684  0.000405  3.912629  0.001  0.031906  -0.096679  0.000281  3.885023  0.001
C  C62  1  0.05003840  0.38428389  0.58801936  1  -0.038616  0.002264  3.636825  0.003  -0.09594  0.00036  3.895612  0.001  -0.094638  0.000406  3.912644  0.001  0.031901  -0.096631  0.000281  3.885032  0.001
C  C63  1  0.20303754  0.49066583  0.90885538  1  -0.078941  -0.000832  3.71642  -0.001  -0.119451  -0.000136  3.967544  0.0  -0.116414  -4.6e-05  3.985041  0.0  -0.076205  -0.120994  -0.000181  3.955645  0.0
C  C64  1  0.79695925  0.50933558  0.09114300  1  -0.079016  -0.00081  3.716457  0.0  -0.119506  -0.000143  3.967583  0.0  -0.116465  -5.8e-05  3.985069  0.0  -0.076216  -0.121027  -0.000181  3.955698  0.0
C  C65  1  0.23483983  0.99949801  0.67645851  1  -0.041665  -0.000982  3.752788  -0.001  -0.013897  -0.000778  3.98257  -0.001  -0.021778  -0.000823  4.003489  -0.001  -0.01342  -0.008892  -0.000497  3.967804  0.0
C  C66  1  0.76516196  0.00050232  0.32354343  1  -0.041669  -0.001003  3.752874  -0.001  -0.013872  -0.000772  3.982605  -0.001  -0.021752  -0.000822  4.003522  -0.001  -0.013399  -0.008846  -0.000497  3.967808  0.0
C  C67  1  0.19377175  0.62001230  0.89093619  1  -0.05019  0.00016  3.723516  0.0  -0.020771  -1.6e-05  3.95343  0.0  -0.029068  2e-06  3.974402  0.0  -0.009261  -0.015566  -1.5e-05  3.938009  0.0
C  C68  1  0.80622783  0.37998805  0.10906237  1  -0.050224  0.000159  3.723371  0.0  -0.020785  -1.2e-05  3.953296  0.0  -0.029081  5e-06  3.974269  0.0  -0.009307  -0.015578  -1.5e-05  3.937865  0.0
C  C69  1  0.61892968  0.43727045  0.81795988  1  -0.015809  0.003163  3.593543  0.004  -0.072461  0.000426  3.847883  0.001  -0.068249  0.000462  3.859495  0.001  0.043234  -0.074865  0.000345  3.840078  0.001
C  C70  1  0.38107826  0.56272672  0.18204083  1  -0.015815  0.003121  3.593531  0.004  -0.072497  0.000427  3.847851  0.001  -0.068282  0.000463  3.859459  0.001  0.043202  -0.074903  0.000345  3.840053  0.001
N  N71  1  0.76228529  0.48799291  0.77650625  1  0.025892  -0.00631  3.591205  -0.005  0.140175  -0.002536  3.772881  -0.002  0.133016  -0.001852  3.794204  -0.001  -0.107334  0.143857  -0.003112  3.7601  -0.002
N  N72  1  0.23771807  0.51200852  0.22349099  1  0.02572  -0.006288  3.591276  -0.005  0.140125  -0.002538  3.772828  -0.002  0.132974  -0.001857  3.79413  -0.001  -0.107336  0.143807  -0.003113  3.760048  -0.002
N  N73  1  0.59346603  0.50162005  0.64995241  1  -0.124004  -0.008499  3.297544  -0.003  -0.095871  -0.005198  3.617027  -0.003  -0.110705  -0.005182  3.628991  -0.003  -0.208814  -0.087307  -0.004139  3.609402  -0.002
N  N74  1  0.40653457  0.49838239  0.35005029  1  -0.12399  -0.008492  3.297487  -0.003  -0.0958  -0.005197  3.61692  -0.003  -0.110632  -0.005184  3.628881  -0.003  -0.208834  -0.087236  -0.004138  3.609295  -0.002
N  N75  1  0.95585627  0.73180421  0.46855374  1  0.033995  -0.004606  3.595969  -0.004  0.146294  -0.002152  3.776503  -0.002  0.139736  -0.001622  3.797068  -0.001  -0.104703  0.150186  -0.002485  3.763649  -0.002
N  N76  1  0.04414331  0.26819613  0.53144643  1  0.033999  -0.004603  3.595956  -0.004  0.146291  -0.002149  3.776526  -0.002  0.139736  -0.001612  3.797081  -0.001  -0.104717  0.150186  -0.002485  3.76367  -0.002
N  N77  1  0.81082347  0.71134862  0.49639804  1  -0.062518  -0.013703  2.83436  -0.011  -0.082346  -0.005922  3.114405  -0.005  -0.077782  -0.004578  3.126398  -0.004  -0.067139  -0.085765  -0.006649  3.107098  -0.005
N  N78  1  0.18917870  0.28865489  0.50360318  1  -0.062617  -0.013703  2.834562  -0.011  -0.082444  -0.005925  3.114593  -0.005  -0.077879  -0.004586  3.126585  -0.004  -0.067174  -0.08586  -0.006649  3.107286  -0.005
N  N79  1  0.74690469  0.52646803  0.67401185  1  -0.079466  -0.017566  2.792971  -0.014  -0.097262  -0.005953  3.068231  -0.004  -0.092278  -0.00421  3.078694  -0.003  -0.077807  -0.101405  -0.007354  3.062915  -0.005
N  N80  1  0.25309568  0.47353869  0.32598608  1  -0.079535  -0.017586  2.793043  -0.014  -0.097401  -0.005955  3.068299  -0.004  -0.09242  -0.00421  3.078761  -0.003  -0.077876  -0.101544  -0.007356  3.062984  -0.005
N  N81  1  0.71254181  0.58246492  0.45880154  1  -0.137023  -0.013768  3.395409  -0.008  -0.106359  -0.008869  3.71599  -0.006  -0.123957  -0.008536  3.731178  -0.006  -0.226673  -0.095787  -0.008267  3.705886  -0.006
N  N82  1  0.28745818  0.41753859  0.54119952  1  -0.136909  -0.013771  3.395435  -0.008  -0.106219  -0.008869  3.715958  -0.006  -0.123817  -0.008539  3.731149  -0.006  -0.226608  -0.095652  -0.008268  3.705861  -0.006
O  O83  1  0.47649524  0.74651899  0.93194314  1  -0.723471  -2.7e-05  2.023937  0.0  -0.675176  -1.8e-05  2.275321  0.0  -0.708638  -1.3e-05  2.260375  0.0  -0.384611  -0.658814  -1.4e-05  2.284096  0.0
O  O84  1  0.52350105  0.25348136  0.06805518  1  -0.723537  -2.5e-05  2.023731  0.0  -0.675225  -1.8e-05  2.275162  0.0  -0.708689  -1.3e-05  2.260214  0.0  -0.384656  -0.658866  -1.4e-05  2.28393  0.0
O  O85  1  0.32315582  0.86141069  0.96073634  1  -0.758729  -8e-06  2.129241  0.0  -0.706413  -2e-05  2.394642  0.0  -0.745722  -1e-05  2.384005  0.0  -0.399385  -0.687847  -1.6e-05  2.401907  0.0
O  O86  1  0.67684868  0.13859065  0.03927145  1  -0.758641  -0.0  2.129401  0.0  -0.706283  -1.9e-05  2.394804  0.0  -0.745586  -7e-06  2.384168  0.0  -0.399292  -0.687715  -1.6e-05  2.40207  0.0
O  O87  1  0.53004855  0.29435775  0.48993079  1  -0.620616  0.01433  2.067765  0.024  -0.586434  0.011588  2.332031  0.018  -0.614718  0.008496  2.322495  0.013  -0.31499  -0.565671  0.01538  2.33746  0.023
O  O88  1  0.46995423  0.70564469  0.51007126  1  -0.620718  0.014338  2.067813  0.024  -0.58654  0.011588  2.332075  0.018  -0.614825  0.008495  2.322537  0.013  -0.315062  -0.565776  0.015381  2.337506  0.023
O  O89  1  0.21510297  0.23877215  0.96729370  1  -0.714421  1.8e-05  2.030029  0.0  -0.661387  9e-06  2.27632  0.0  -0.695897  5e-06  2.263251  0.0  -0.385982  -0.643276  1.1e-05  2.283437  0.0
O  O90  1  0.78489891  0.76122607  0.03270659  1  -0.714401  1.2e-05  2.03019  0.0  -0.661355  8e-06  2.27645  0.0  -0.695864  5e-06  2.26338  0.0  -0.385951  -0.643239  1.1e-05  2.283558  0.0
O  O91  1  0.12563928  0.96713338  0.84497225  1  -0.655917  -6.8e-05  2.028655  0.0  -0.611786  -9.2e-05  2.269199  0.0  -0.643534  -9.2e-05  2.261683  0.0  -0.355345  -0.595154  -9.1e-05  2.274157  0.0
O  O92  1  0.87435733  0.03286059  0.15502839  1  -0.655929  -8e-05  2.028648  0.0  -0.611826  -9.2e-05  2.269228  0.0  -0.643575  -9.5e-05  2.26171  0.0  -0.355355  -0.595194  -9.1e-05  2.27419  0.0
O  O93  1  0.44455440  0.15299004  0.33706413  1  -0.666475  0.004808  2.022243  0.009  -0.604024  0.004627  2.246147  0.008  -0.629263  0.003246  2.234096  0.006  -0.326095  -0.585127  0.006637  2.25307  0.011
O  O94  1  0.55544488  0.84701666  0.66293613  1  -0.666535  0.004812  2.022349  0.009  -0.6041  0.004628  2.246258  0.008  -0.629339  0.003246  2.234205  0.006  -0.326132  -0.585204  0.006638  2.253182  0.011
O  O95  1  0.38404783  0.11225307  0.84756927  1  -0.722824  -1.7e-05  2.052189  0.0  -0.665663  -3.7e-05  2.286013  0.0  -0.699869  -3.1e-05  2.278328  0.0  -0.371027  -0.646681  1e-06  2.290763  0.0
O  O96  1  0.61595148  0.88774194  0.15243401  1  -0.722803  -1.9e-05  2.052097  0.0  -0.665637  -3.7e-05  2.285908  0.0  -0.699845  -2.8e-05  2.27822  0.0  -0.370983  -0.646653  1e-06  2.290661  0.0
O  O97  1  0.25186040  0.18260848  0.17751645  1  -0.858594  0.000162  1.839397  0.0  -0.811369  0.000214  2.030892  0.0  -0.838762  0.000145  2.002554  0.0  -0.625764  -0.798132  0.000319  2.048398  0.001
O  O98  1  0.74813659  0.81738869  0.82248267  1  -0.858489  0.000161  1.839474  0.0  -0.811269  0.000214  2.030997  0.0  -0.838657  0.000145  2.002675  0.0  -0.625718  -0.798031  0.000318  2.048508  0.001
O  O99  1  0.37937629  0.96412263  0.17795328  1  -0.938881  -4.1e-05  1.868994  0.0  -0.888202  5e-06  2.066144  0.0  -0.917703  -5e-06  2.028258  0.0  -0.653007  -0.874121  -5e-06  2.089635  0.0
O  O100  1  0.62062380  0.03587875  0.82204855  1  -0.938884  -3.5e-05  1.869033  0.0  -0.888202  5e-06  2.066155  0.0  -0.917701  -5e-06  2.02827  0.0  -0.652971  -0.874115  -5e-06  2.089648  0.0
O  O101  1  0.94786687  0.11851569  0.92774965  1  -0.741979  1.1e-05  2.100012  0.0  -0.691775  3e-06  2.366733  0.0  -0.730867  1e-06  2.351836  0.0  -0.409441  -0.673552  9e-06  2.375219  0.0
O  O102  1  0.05213379  0.88148467  0.07224738  1  -0.741965  1.6e-05  2.099732  0.0  -0.69178  4e-06  2.366459  0.0  -0.730861  3e-06  2.351536  0.0  -0.409441  -0.673559  9e-06  2.374933  0.0
