# generated using pymatgen
data_NdAgH10C20(N3O4)2
_symmetry_space_group_name_H-M   'P 1'
_cell_length_a   9.22131532
_cell_length_b   11.18529914
_cell_length_c   11.18527291
_cell_angle_alpha   100.64919643
_cell_angle_beta   106.42861775
_cell_angle_gamma   106.42875538
_symmetry_Int_Tables_number   1
_chemical_formula_structural   NdAgH10C20(N3O4)2
_chemical_formula_sum   'Nd2 Ag2 H20 C40 N12 O16'
_cell_volume   1016.49465081
_cell_formula_units_Z   2
loop_
 _symmetry_equiv_pos_site_id
 _symmetry_equiv_pos_as_xyz
  1  'x, y, z'
loop_
 _atom_site_type_symbol
 _atom_site_label
 _atom_site_symmetry_multiplicity
 _atom_site_fract_x
 _atom_site_fract_y
 _atom_site_fract_z
 _atom_site_occupancy
 _atom_site_hle17_bader_spin_density
 _atom_site_hle17_ddec_charge
 _atom_site_hle17_ddec_spin_density
 _atom_site_hle17_ddec_sum_bond_order
 _atom_site_hle17_magmom
 _atom_site_hse06_10hf_bader_spin_density
 _atom_site_hse06_10hf_ddec_charge
 _atom_site_hse06_10hf_ddec_spin_density
 _atom_site_hse06_10hf_ddec_sum_bond_order
 _atom_site_hse06_10hf_magmom
 _atom_site_hse06_bader_spin_density
 _atom_site_hse06_ddec_charge
 _atom_site_hse06_ddec_spin_density
 _atom_site_hse06_ddec_sum_bond_order
 _atom_site_hse06_magmom
 _atom_site_pbe_bader_spin_density
 _atom_site_pbe_cm5_charge
 _atom_site_pbe_ddec_charge
 _atom_site_pbe_ddec_spin_density
 _atom_site_pbe_ddec_sum_bond_order
 _atom_site_pbe_magmom
Nd  Nd0  1  0.24999945  0.59375758  0.40624137  1  0  2.311203  0  1.680985  0  0  2.165763  0  2.147855  0  0  2.252228  0  2.016972  0  0  1.509903  2.127913  0  2.188061  0
Nd  Nd1  1  0.75000151  0.40624348  0.59375983  1  0  2.311195  0  1.681052  0  0  2.165725  0  2.147993  0  0  2.252219  0  2.017054  0  0  1.509844  2.127869  0  2.188197  0
Ag  Ag2  1  0.25000123  0.86498445  0.13501717  1  0  0.525975  0  1.416186  0  0  0.374173  0  1.839214  0  0  0.39866  0  1.804951  0  0  0.530602  0.362222  0  1.858117  0
Ag  Ag3  1  0.75000059  0.13501857  0.86498546  1  0  0.525934  0  1.416212  0  0  0.374168  0  1.839207  0  0  0.398643  0  1.804963  0  0  0.530604  0.362213  0  1.858107  0
H  H4  1  0.12583460  0.56326099  0.93139270  1  0  0.134024  0  0.940361  0  0  0.138651  0  1.008596  0  0  0.143498  0  1.004014  0  0  0.115511  0.135304  0  1.011421  0
H  H5  1  0.37416289  0.06860546  0.43673562  1  0  0.13399  0  0.940341  0  0  0.138596  0  1.008617  0  0  0.143442  0  1.004035  0  0  0.115491  0.135247  0  1.011442  0
H  H6  1  0.87416507  0.43673715  0.06860680  1  0  0.133968  0  0.940328  0  0  0.138609  0  1.008557  0  0  0.14346  0  1.003975  0  0  0.115498  0.135263  0  1.011382  0
H  H7  1  0.62584003  0.93139753  0.56326458  1  0  0.134049  0  0.94034  0  0  0.138648  0  1.008599  0  0  0.14349  0  1.004022  0  0  0.115527  0.135301  0  1.011424  0
H  H8  1  0.62986002  0.67974229  0.16195462  1  0  0.114904  0  0.945567  0  0  0.123515  0  1.012506  0  0  0.127386  0  1.008952  0  0  0.110617  0.120566  0  1.015269  0
H  H9  1  0.87014104  0.83804426  0.32025727  1  0  0.114916  0  0.945557  0  0  0.123532  0  1.012488  0  0  0.12741  0  1.008917  0  0  0.110619  0.12058  0  1.015261  0
H  H10  1  0.37014333  0.32026168  0.83804674  1  0  0.114939  0  0.945562  0  0  0.123569  0  1.012471  0  0  0.127444  0  1.008918  0  0  0.110635  0.120618  0  1.015236  0
H  H11  1  0.12986205  0.16195390  0.67974391  1  0  0.114867  0  0.945638  0  0  0.123497  0  1.012555  0  0  0.127376  0  1.008989  0  0  0.110601  0.120546  0  1.01532  0
H  H12  1  0.48132382  0.65121744  0.75007499  1  0  0.132589  0  0.95875  0  0  0.13693  0  1.0267  0  0  0.141293  0  1.023117  0  0  0.122344  0.133443  0  1.030317  0
H  H13  1  0.01867070  0.24992006  0.34877882  1  0  0.132581  0  0.958831  0  0  0.13695  0  1.026739  0  0  0.141312  0  1.023156  0  0  0.122345  0.133461  0  1.030362  0
H  H14  1  0.51867145  0.34877580  0.24992085  1  0  0.132585  0  0.958822  0  0  0.136989  0  1.026685  0  0  0.141352  0  1.0231  0  0  0.122356  0.133499  0  1.030308  0
H  H15  1  0.98132719  0.75007910  0.65122491  1  0  0.132565  0  0.958854  0  0  0.137002  0  1.02668  0  0  0.141365  0  1.023095  0  0  0.122359  0.133512  0  1.030303  0
H  H16  1  0.87906346  0.67062375  0.12550102  1  0  0.124954  0  0.926564  0  0  0.136066  0  0.986419  0  0  0.138325  0  0.984163  0  0  0.151776  0.134231  0  0.988259  0
H  H17  1  0.62093414  0.87449813  0.32937316  1  0  0.12501  0  0.926532  0  0  0.136118  0  0.986377  0  0  0.138376  0  0.984122  0  0  0.151787  0.134283  0  0.988216  0
H  H18  1  0.12093577  0.32937339  0.87449641  1  0  0.125004  0  0.926543  0  0  0.13613  0  0.986359  0  0  0.138387  0  0.984105  0  0  0.151787  0.134292  0  0.9882  0
H  H19  1  0.37906526  0.12550195  0.67062751  1  0  0.125004  0  0.926535  0  0  0.136109  0  0.986391  0  0  0.138367  0  0.984134  0  0  0.151789  0.134272  0  0.988231  0
H  H20  1  0.71157760  0.83215229  0.82305382  1  0  0.108357  0  0.943765  0  0  0.115965  0  1.010696  0  0  0.118341  0  1.007643  0  0  0.144393  0.114229  0  1.012965  0
H  H21  1  0.78842197  0.17694811  0.16784578  1  0  0.108413  0  0.943802  0  0  0.116011  0  1.010761  0  0  0.118389  0  1.007705  0  0  0.144422  0.114273  0  1.013033  0
H  H22  1  0.28842000  0.16784880  0.17695019  1  0  0.108361  0  0.943825  0  0  0.11599  0  1.010745  0  0  0.118367  0  1.00769  0  0  0.14441  0.114253  0  1.013017  0
H  H23  1  0.21158193  0.82305195  0.83215234  1  0  0.108385  0  0.943742  0  0  0.11598  0  1.010713  0  0  0.118357  0  1.007658  0  0  0.144387  0.114244  0  1.012985  0
C  C24  1  0.25187450  0.59166693  0.93820816  1  0  -0.091817  0  3.695217  0  0  -0.128237  0  3.948093  0  0  -0.125222  0  3.964066  0  0  -0.076148  -0.129678  0  3.936517  0
C  C25  1  0.24812303  0.06179012  0.40833634  1  0  -0.091762  0  3.695048  0  0  -0.128158  0  3.947924  0  0  -0.125144  0  3.9639  0  0  -0.076115  -0.129595  0  3.936341  0
C  C26  1  0.74812629  0.40833896  0.06179115  1  0  -0.091706  0  3.694953  0  0  -0.128128  0  3.947829  0  0  -0.12512  0  3.963809  0  0  -0.076141  -0.12957  0  3.936255  0
C  C27  1  0.75187526  0.93820998  0.59166587  1  0  -0.091857  0  3.695076  0  0  -0.128213  0  3.94798  0  0  -0.125195  0  3.963954  0  0  -0.076161  -0.129655  0  3.936403  0
C  C28  1  0.37446448  0.61711500  0.05737030  1  0  -0.065609  0  3.79988  0  0  -0.039132  0  4.035058  0  0  -0.047927  0  4.058492  0  0  -0.024713  -0.03413  0  4.020214  0
C  C29  1  0.12553061  0.94262843  0.38288790  1  0  -0.065596  0  3.799823  0  0  -0.03916  0  4.035034  0  0  -0.04796  0  4.058473  0  0  -0.024738  -0.034161  0  4.02019  0
C  C30  1  0.62553250  0.38288991  0.94262977  1  0  -0.065548  0  3.799693  0  0  -0.039101  0  4.034908  0  0  -0.047898  0  4.058346  0  0  -0.024712  -0.034103  0  4.020065  0
C  C31  1  0.87447149  0.05737264  0.61711357  1  0  -0.065512  0  3.799737  0  0  -0.039168  0  4.035072  0  0  -0.047966  0  4.058509  0  0  -0.024748  -0.034167  0  4.020223  0
C  C32  1  0.53670784  0.65892910  0.06768748  1  0  -0.135425  0  3.707772  0  0  -0.17302  0  3.965105  0  0  -0.172938  0  3.984811  0  0  -0.079739  -0.172829  0  3.95251  0
C  C33  1  0.96328903  0.93231321  0.34107043  1  0  -0.135545  0  3.707825  0  0  -0.173127  0  3.965136  0  0  -0.173045  0  3.984843  0  0  -0.079798  -0.172943  0  3.952547  0
C  C34  1  0.46329085  0.34107196  0.93231320  1  0  -0.135552  0  3.70768  0  0  -0.173175  0  3.965006  0  0  -0.173102  0  3.984719  0  0  -0.079809  -0.172987  0  3.952417  0
C  C35  1  0.03671215  0.06768584  0.65892510  1  0  -0.135532  0  3.707723  0  0  -0.173113  0  3.965043  0  0  -0.173036  0  3.984753  0  0  -0.079784  -0.172927  0  3.952451  0
C  C36  1  0.57451214  0.67432626  0.95814083  1  0  0.170991  0  3.775651  0  0  0.165632  0  4.028468  0  0  0.168448  0  4.050795  0  0  0.094337  0.163476  0  4.01431  0
C  C37  1  0.92548683  0.04185926  0.32567163  1  0  0.171044  0  3.775681  0  0  0.165699  0  4.028462  0  0  0.168516  0  4.050789  0  0  0.09441  0.163542  0  4.014302  0
C  C38  1  0.42548870  0.32567191  0.04186162  1  0  0.170888  0  3.775702  0  0  0.165577  0  4.02846  0  0  0.168394  0  4.050785  0  0  0.094323  0.16342  0  4.014302  0
C  C39  1  0.07451669  0.95813989  0.67433072  1  0  0.170983  0  3.775521  0  0  0.165692  0  4.028287  0  0  0.168509  0  4.050614  0  0  0.094376  0.163535  0  4.014127  0
C  C40  1  0.45335797  0.64328421  0.83738993  1  0  -0.099544  0  3.642395  0  0  -0.134877  0  3.89374  0  0  -0.132935  0  3.909584  0  0  -0.061896  -0.137478  0  3.885197  0
C  C41  1  0.04663649  0.16260725  0.35670902  1  0  -0.099559  0  3.64252  0  0  -0.134909  0  3.893823  0  0  -0.132967  0  3.909665  0  0  -0.06189  -0.137509  0  3.885278  0
C  C42  1  0.54663845  0.35670905  0.16260797  1  0  -0.099463  0  3.642757  0  0  -0.134842  0  3.894026  0  0  -0.132897  0  3.909866  0  0  -0.061852  -0.137441  0  3.88548  0
C  C43  1  0.95336181  0.83739287  0.64329409  1  0  -0.099478  0  3.642465  0  0  -0.134892  0  3.893739  0  0  -0.132947  0  3.909576  0  0  -0.061877  -0.137491  0  3.885191  0
C  C44  1  0.29157946  0.60343602  0.82802559  1  0  -0.059417  0  3.725823  0  0  -0.031328  0  3.952396  0  0  -0.040289  0  3.974906  0  0  -0.009232  -0.025613  0  3.93735  0
C  C45  1  0.20841686  0.17197245  0.39656415  1  0  -0.059403  0  3.725757  0  0  -0.031322  0  3.952329  0  0  -0.040282  0  3.974834  0  0  -0.009212  -0.02561  0  3.937281  0
C  C46  1  0.70841653  0.39656403  0.17197340  1  0  -0.059462  0  3.725787  0  0  -0.031412  0  3.952386  0  0  -0.040376  0  3.9749  0  0  -0.009218  -0.025701  0  3.937341  0
C  C47  1  0.79158227  0.82802959  0.60343769  1  0  -0.059452  0  3.725825  0  0  -0.031378  0  3.952396  0  0  -0.040342  0  3.974908  0  0  -0.009224  -0.025667  0  3.937351  0
C  C48  1  0.87535820  0.72368725  0.05335465  1  0  0.17184  0  3.587571  0  0  0.110067  0  3.842962  0  0  0.122959  0  3.856864  0  0  0.171045  0.102803  0  3.833449  0
C  C49  1  0.62464000  0.94664472  0.27631042  1  0  0.171556  0  3.587531  0  0  0.109799  0  3.842893  0  0  0.122692  0  3.856796  0  0  0.170946  0.102535  0  3.833378  0
C  C50  1  0.12464191  0.27631187  0.94664602  1  0  0.171612  0  3.587503  0  0  0.109853  0  3.842908  0  0  0.122747  0  3.856809  0  0  0.170978  0.10259  0  3.833393  0
C  C51  1  0.37536166  0.05335537  0.72368987  1  0  0.171635  0  3.587435  0  0  0.109896  0  3.842818  0  0  0.122789  0  3.85672  0  0  0.17097  0.102632  0  3.833303  0
C  C52  1  0.79247901  0.80628489  0.89625483  1  0  0.164668  0  3.626395  0  0  0.11001  0  3.899074  0  0  0.120975  0  3.910387  0  0  0.164263  0.102064  0  3.892647  0
C  C53  1  0.70752086  0.10374399  0.19371182  1  0  0.164611  0  3.626391  0  0  0.109918  0  3.899096  0  0  0.120882  0  3.910412  0  0  0.164291  0.101971  0  3.892668  0
C  C54  1  0.20751969  0.19371618  0.10374674  1  0  0.164656  0  3.62636  0  0  0.109969  0  3.899051  0  0  0.120933  0  3.910368  0  0  0.164314  0.102023  0  3.892622  0
C  C55  1  0.29248402  0.89625315  0.80628512  1  0  0.164645  0  3.62632  0  0  0.109971  0  3.899068  0  0  0.120935  0  3.910385  0  0  0.164313  0.102025  0  3.892641  0
C  C56  1  0.33408884  0.60675018  0.17688555  1  0  0.602983  0  4.010676  0  0  0.560805  0  4.302665  0  0  0.593314  0  4.300373  0  0  0.175396  0.538147  0  4.306759  0
C  C57  1  0.16590601  0.82311174  0.39325102  1  0  0.602978  0  4.010654  0  0  0.560828  0  4.302627  0  0  0.593339  0  4.300336  0  0  0.175395  0.538171  0  4.306719  0
C  C58  1  0.66590685  0.39325179  0.82311191  1  0  0.602894  0  4.010662  0  0  0.560734  0  4.302637  0  0  0.593245  0  4.300349  0  0  0.175351  0.538076  0  4.306728  0
C  C59  1  0.83409835  0.17688935  0.60675186  1  0  0.602946  0  4.010627  0  0  0.56084  0  4.302571  0  0  0.593351  0  4.300286  0  0  0.175384  0.538181  0  4.306661  0
C  C60  1  0.16220525  0.58391655  0.70072258  1  0  0.728383  0  3.872971  0  0  0.680576  0  4.162835  0  0  0.71548  0  4.154708  0  0  0.241678  0.656242  0  4.169407  0
C  C61  1  0.33779132  0.29927433  0.41608282  1  0  0.728373  0  3.872996  0  0  0.680583  0  4.162835  0  0  0.715487  0  4.154708  0  0  0.241685  0.656251  0  4.169405  0
C  C62  1  0.83780155  0.41608247  0.29926977  1  0  0.728259  0  3.872949  0  0  0.680494  0  4.162753  0  0  0.715397  0  4.154626  0  0  0.241605  0.656161  0  4.169324  0
C  C63  1  0.66219886  0.70073056  0.58391568  1  0  0.728336  0  3.872953  0  0  0.68056  0  4.162776  0  0  0.715464  0  4.15465  0  0  0.241605  0.656226  0  4.169349  0
N  N64  1  0.73914955  0.72912545  0.96907138  1  0  -0.10567  0  3.545694  0  0  -0.015441  0  3.756495  0  0  -0.031582  0  3.780475  0  0  -0.207293  -0.005344  0  3.740686  0
N  N65  1  0.76084626  0.03092445  0.27086949  1  0  -0.105491  0  3.545595  0  0  -0.015276  0  3.756383  0  0  -0.031421  0  3.780368  0  0  -0.207343  -0.005177  0  3.740569  0
N  N66  1  0.26084742  0.27087167  0.03092553  1  0  -0.105506  0  3.545588  0  0  -0.015322  0  3.756413  0  0  -0.031465  0  3.780394  0  0  -0.207361  -0.005222  0  3.740599  0
N  N67  1  0.23915456  0.96907370  0.72913117  1  0  -0.105539  0  3.545621  0  0  -0.015387  0  3.756477  0  0  -0.031532  0  3.780461  0  0  -0.207328  -0.005287  0  3.740663  0
N  N68  1  0.00208275  0.79322041  0.03132718  1  0  -0.2253  0  3.315945  0  0  -0.142573  0  3.625682  0  0  -0.15911  0  3.639914  0  0  -0.269025  -0.131973  0  3.614413  0
N  N69  1  0.49791535  0.96867494  0.20677903  1  0  -0.225165  0  3.31583  0  0  -0.142426  0  3.625537  0  0  -0.158964  0  3.639769  0  0  -0.268935  -0.131827  0  3.614268  0
N  N70  1  0.99791527  0.20678165  0.96867620  1  0  -0.225183  0  3.315751  0  0  -0.14247  0  3.625489  0  0  -0.159007  0  3.639719  0  0  -0.268929  -0.13187  0  3.61422  0
N  N71  1  0.50208658  0.03132318  0.79321920  1  0  -0.225136  0  3.315751  0  0  -0.142409  0  3.625465  0  0  -0.158947  0  3.639696  0  0  -0.268909  -0.13181  0  3.614196  0
N  N72  1  0.95057966  0.84554803  0.93166636  1  0  -0.230126  0  2.932543  0  0  -0.214615  0  3.212763  0  0  -0.221573  0  3.227903  0  0  -0.225595  -0.209842  0  3.202713  0
N  N73  1  0.54941901  0.06833598  0.15445028  1  0  -0.230203  0  2.932573  0  0  -0.214673  0  3.21279  0  0  -0.22163  0  3.22793  0  0  -0.225658  -0.209901  0  3.20274  0
N  N74  1  0.04941879  0.15445501  0.06833819  1  0  -0.230168  0  2.932489  0  0  -0.214647  0  3.212718  0  0  -0.221604  0  3.227857  0  0  -0.225661  -0.209876  0  3.202668  0
N  N75  1  0.45058288  0.93166210  0.84554525  1  0  -0.23023  0  2.932472  0  0  -0.214705  0  3.212698  0  0  -0.221661  0  3.227836  0  0  -0.225697  -0.209933  0  3.202649  0
O  O76  1  0.18636935  0.57986829  0.16859850  1  0  -0.703199  0  1.962857  0  0  -0.657139  0  2.206434  0  0  -0.684814  0  2.196237  0  0  -0.38497  -0.64053  0  2.213112  0
O  O77  1  0.31362734  0.83140086  0.42013761  1  0  -0.703177  0  1.962861  0  0  -0.657137  0  2.206463  0  0  -0.684795  0  2.196232  0  0  -0.384961  -0.64053  0  2.213141  0
O  O78  1  0.81362803  0.42013757  0.83139914  1  0  -0.703151  0  1.962876  0  0  -0.657129  0  2.206526  0  0  -0.684782  0  2.196278  0  0  -0.384943  -0.640512  0  2.213184  0
O  O79  1  0.68637628  0.16860116  0.57986259  1  0  -0.703148  0  1.962839  0  0  -0.657117  0  2.20644  0  0  -0.684776  0  2.196201  0  0  -0.384934  -0.640503  0  2.213099  0
O  O80  1  0.44783791  0.62692706  0.28313997  1  0  -0.679214  0  1.935734  0  0  -0.633978  0  2.165946  0  0  -0.661581  0  2.157579  0  0  -0.370508  -0.616074  0  2.170841  0
O  O81  1  0.05215678  0.71685665  0.37307125  1  0  -0.679215  0  1.935685  0  0  -0.633986  0  2.165889  0  0  -0.66159  0  2.157521  0  0  -0.370512  -0.616077  0  2.170771  0
O  O82  1  0.55215566  0.37307004  0.71685615  1  0  -0.679209  0  1.935718  0  0  -0.633961  0  2.165919  0  0  -0.661572  0  2.157553  0  0  -0.37052  -0.616053  0  2.170796  0
O  O83  1  0.94784915  0.28314543  0.62693306  1  0  -0.679229  0  1.935655  0  0  -0.634001  0  2.165841  0  0  -0.661611  0  2.157474  0  0  -0.370533  -0.616092  0  2.170716  0
O  O84  1  0.02043142  0.56683257  0.70106679  1  0  -0.731223  0  2.037371  0  0  -0.680957  0  2.296998  0  0  -0.71038  0  2.282091  0  0  -0.393396  -0.663098  0  2.305884  0
O  O85  1  0.47956613  0.29893360  0.43316866  1  0  -0.731288  0  2.037328  0  0  -0.681059  0  2.296999  0  0  -0.710471  0  2.28207  0  0  -0.393435  -0.663195  0  2.305874  0
O  O86  1  0.97956292  0.43316365  0.29893472  1  0  -0.731089  0  2.037707  0  0  -0.680848  0  2.297315  0  0  -0.710251  0  2.282391  0  0  -0.393317  -0.662981  0  2.306181  0
O  O87  1  0.52043466  0.70106451  0.56682930  1  0  -0.731128  0  2.037643  0  0  -0.680901  0  2.297296  0  0  -0.710304  0  2.282363  0  0  -0.393319  -0.663035  0  2.306163  0
O  O88  1  0.20505765  0.59333033  0.60379795  1  0  -0.745717  0  2.033113  0  0  -0.696853  0  2.295848  0  0  -0.727094  0  2.278825  0  0  -0.409059  -0.678945  0  2.305995  0
O  O89  1  0.29494066  0.39619961  0.40667008  1  0  -0.745651  0  2.033092  0  0  -0.69678  0  2.295809  0  0  -0.727024  0  2.278788  0  0  -0.409025  -0.678876  0  2.305956  0
O  O90  1  0.79493950  0.40666975  0.39620310  1  0  -0.745722  0  2.032769  0  0  -0.69684  0  2.295439  0  0  -0.727093  0  2.278418  0  0  -0.409052  -0.67893  0  2.30558  0
O  O91  1  0.70506287  0.60379954  0.59333227  1  0  -0.745738  0  2.032784  0  0  -0.696866  0  2.295497  0  0  -0.727119  0  2.278475  0  0  -0.409052  -0.678956  0  2.305641  0
