# generated using pymatgen
data_Cu2H26C19(N3O4)2
_symmetry_space_group_name_H-M   'P 1'
_cell_length_a   8.83834373
_cell_length_b   9.12611482
_cell_length_c   15.43309779
_cell_angle_alpha   97.30802038
_cell_angle_beta   99.70648414
_cell_angle_gamma   94.03655783
_symmetry_Int_Tables_number   1
_chemical_formula_structural   Cu2H26C19(N3O4)2
_chemical_formula_sum   'Cu4 H52 C38 N12 O16'
_cell_volume   1211.66020581
_cell_formula_units_Z   2
loop_
 _symmetry_equiv_pos_site_id
 _symmetry_equiv_pos_as_xyz
  1  'x, y, z'
loop_
 _atom_site_type_symbol
 _atom_site_label
 _atom_site_symmetry_multiplicity
 _atom_site_fract_x
 _atom_site_fract_y
 _atom_site_fract_z
 _atom_site_occupancy
 _atom_site_pbe_bader_charge
 _atom_site_pbe_bader_spin_density
 _atom_site_pbe_cm5_charge
 _atom_site_pbe_ddec_charge
 _atom_site_pbe_ddec_spin_density
 _atom_site_pbe_ddec_sum_bond_order
 _atom_site_pbe_magmom
Cu  Cu0  1  0.89251305  0.89998282  0.45507846  1  1.067201  -0.545996  0.683719  0.776354  -0.702265  2.339659  -0.543
Cu  Cu1  1  0.10749235  0.10003472  0.54492112  1  1.068122  0.545998  0.683774  0.776411  0.702284  2.339715  0.543
Cu  Cu2  1  0.52080162  0.53064284  0.08740354  1  1.071377  -0.548103  0.680237  0.783585  -0.703246  2.295282  -0.546
Cu  Cu3  1  0.47921781  0.46936903  0.91261260  1  1.069062  0.548097  0.680189  0.783634  0.703231  2.295161  0.546
H  H4  1  0.08743505  0.49724221  0.70803756  1  0.049188  0.000986  0.092035  0.13253  0.000518  1.020036  0.001
H  H5  1  0.91253732  0.50275575  0.29194621  1  0.049055  -0.000985  0.092103  0.132637  -0.000518  1.020357  -0.001
H  H6  1  0.92413264  0.57980215  0.65894858  1  0.03101  -2e-05  0.087809  0.120066  -3.4e-05  1.012544  0.0
H  H7  1  0.07584846  0.42020120  0.34103129  1  0.030752  2e-05  0.087778  0.120141  3.4e-05  1.012589  0.0
H  H8  1  0.04710005  0.50090378  0.59127578  1  0.079266  -7.2e-05  0.0981  0.148935  -6.8e-05  0.98679  0.0
H  H9  1  0.95288035  0.49909405  0.40870816  1  0.079596  7.1e-05  0.098139  0.149137  6.7e-05  0.986617  0.0
H  H10  1  0.30194580  0.67248345  0.78235713  1  0.09414  -0.000999  0.095899  0.143906  -0.000522  1.047396  -0.001
H  H11  1  0.69802549  0.32751681  0.21763837  1  0.09361  0.000999  0.095904  0.143905  0.000522  1.047341  0.001
H  H12  1  0.33214907  0.85461854  0.74077416  1  0.082338  0.000306  0.09602  0.134191  0.000283  1.050203  0.0
H  H13  1  0.66781793  0.14538399  0.25921847  1  0.082201  -0.000306  0.096035  0.134277  -0.000283  1.050032  0.0
H  H14  1  0.67455506  0.27087927  0.77725030  1  0.092912  -0.001059  0.096148  0.14135  -0.000531  1.046592  -0.001
H  H15  1  0.32545623  0.72912045  0.22275636  1  0.093267  0.001058  0.096112  0.1414  0.00053  1.046709  0.001
H  H16  1  0.85780906  0.30287091  0.73457952  1  0.111869  0.000204  0.096959  0.138024  0.000201  1.033831  0.0
H  H17  1  0.14220059  0.69711323  0.26541871  1  0.111691  -0.000204  0.096937  0.138142  -0.000201  1.033786  0.0
H  H18  1  0.48873214  0.06386611  0.70506033  1  0.059947  0.000954  0.089438  0.129829  0.000504  1.00947  0.001
H  H19  1  0.51126802  0.93612597  0.29494075  1  0.059931  -0.000953  0.08941  0.129782  -0.000504  1.009501  -0.001
H  H20  1  0.48457350  0.03242041  0.58857733  1  0.098246  -0.000134  0.099468  0.154705  -0.000113  0.991099  0.0
H  H21  1  0.51542661  0.96758168  0.41142642  1  0.098184  0.000133  0.099482  0.154681  0.000112  0.991111  0.0
H  H22  1  0.57121895  0.90834358  0.65515764  1  0.019617  -1.6e-05  0.086625  0.11987  -3.1e-05  1.008631  0.0
H  H23  1  0.42876294  0.09164874  0.34483706  1  0.019717  1.6e-05  0.08659  0.119838  3.1e-05  1.008654  0.0
H  H24  1  0.88388248  0.70912902  0.88965568  1  0.036352  -0.001065  0.087793  0.12262  -0.000547  1.023378  -0.001
H  H25  1  0.11611761  0.29083963  0.11032683  1  0.03585  0.001066  0.087852  0.122804  0.000547  1.023284  0.001
H  H26  1  0.05410308  0.69627441  0.84207266  1  0.071677  0.000103  0.090777  0.128913  9.2e-05  1.033405  0.0
H  H27  1  0.94591587  0.30370071  0.15792650  1  0.071967  -0.000102  0.090819  0.128977  -9.1e-05  1.033396  0.0
H  H28  1  0.94914757  0.53353609  0.85853825  1  0.07336  9.1e-05  0.094879  0.139769  8.7e-05  1.008165  0.0
H  H29  1  0.05086959  0.46643235  0.14145312  1  0.073727  -9.1e-05  0.094888  0.139809  -8.7e-05  1.008107  0.0
H  H30  1  0.92635504  0.78144218  0.04463348  1  0.05229  0.001182  0.091789  0.130241  0.000601  1.043785  0.001
H  H31  1  0.07364937  0.21855649  0.95536527  1  0.052344  -0.001182  0.091767  0.130233  -0.000601  1.043859  -0.001
H  H32  1  0.10358709  0.73692039  0.11684285  1  0.138511  -0.000183  0.097888  0.138813  -0.000179  1.062144  0.0
H  H33  1  0.89640826  0.26306952  0.88315564  1  0.138499  0.000182  0.097899  0.138856  0.000179  1.062071  0.0
H  H34  1  0.24139205  0.86910608  0.93912966  1  0.112974  -0.000969  0.097493  0.138516  -0.000512  1.048344  -0.001
H  H35  1  0.75857951  0.13090986  0.06088904  1  0.112898  0.000969  0.097531  0.138552  0.000512  1.048506  0.001
H  H36  1  0.28429194  0.01978133  0.87359089  1  0.073151  0.000202  0.102287  0.143542  0.000185  1.027979  0.0
H  H37  1  0.71569429  0.98022101  0.12641989  1  0.072802  -0.000202  0.102329  0.143683  -0.000185  1.027821  0.0
H  H38  1  0.33887433  0.91249629  0.10247511  1  0.078228  0.000745  0.095479  0.14308  0.000388  1.009198  0.0
H  H39  1  0.66111696  0.08751159  0.89754630  1  0.07805  -0.000745  0.09545  0.143104  -0.000388  1.009153  0.0
H  H40  1  0.43031509  0.09071444  0.15250532  1  0.052732  -0.000103  0.092654  0.130921  -0.000114  1.025729  0.0
H  H41  1  0.56968621  0.90928992  0.84751167  1  0.052789  0.000103  0.092639  0.130886  0.000114  1.025504  0.0
H  H42  1  0.22696899  0.05964307  0.12959549  1  0.027325  6.6e-05  0.092714  0.130392  4.2e-05  0.992094  0.0
H  H43  1  0.77302852  0.94037685  0.87041123  1  0.027194  -6.6e-05  0.092663  0.130375  -4.1e-05  0.992149  0.0
H  H44  1  0.87063467  0.81652858  0.27894770  1  0.528425  0.000103  0.309287  0.326574  9.1e-05  0.964206  0.0
H  H45  1  0.12937903  0.18347106  0.72105207  1  0.528538  -0.000103  0.309354  0.326595  -9.1e-05  0.964411  0.0
H  H46  1  0.74526196  0.74406667  0.17791462  1  0.495342  9.4e-05  0.304331  0.318326  7.4e-05  0.988995  0.0
H  H47  1  0.25475074  0.25593409  0.82208383  1  0.495121  -9.4e-05  0.304205  0.318171  -7.4e-05  0.988923  0.0
H  H48  1  0.60464049  0.57545326  0.54736912  1  0.520834  4e-06  0.288181  0.288137  -1e-06  1.035802  0.0
H  H49  1  0.39535898  0.42457212  0.45262589  1  0.520696  -4e-06  0.288085  0.288012  1e-06  1.035823  0.0
H  H50  1  0.76938033  0.69716412  0.54210446  1  0.494228  0.000104  0.301561  0.307752  9.8e-05  0.996672  0.0
H  H51  1  0.23062233  0.30285900  0.45789135  1  0.494266  -0.000105  0.301615  0.307754  -9.8e-05  0.996684  0.0
H  H52  1  0.31804683  0.34492012  0.29039292  1  0.439162  1.6e-05  0.320275  0.318718  2e-06  0.922582  0.0
H  H53  1  0.68195508  0.65507750  0.70961068  1  0.439536  -1.6e-05  0.320322  0.318698  -2e-06  0.922645  0.0
H  H54  1  0.36121036  0.37057736  0.18751158  1  0.479197  9e-05  0.301684  0.312136  7.3e-05  1.006331  0.0
H  H55  1  0.63879038  0.62942028  0.81249320  1  0.479133  -9e-05  0.301702  0.312183  -7.3e-05  1.006242  0.0
C  C56  1  0.48429613  0.51006304  0.29424739  1  1.604771  0.000264  0.34563  0.619859  0.000189  4.162657  0.0
C  C57  1  0.51570504  0.48993791  0.70575443  1  1.604899  -0.000264  0.34557  0.619576  -0.00019  4.163072  0.0
C  C58  1  0.63229580  0.62465633  0.42382349  1  1.585651  0.00022  0.352709  0.637048  0.00013  4.111428  0.0
C  C59  1  0.36770656  0.37536458  0.57617473  1  1.586512  -0.000221  0.352539  0.636816  -0.000131  4.111371  0.0
C  C60  1  0.68500800  0.67963871  0.29052758  1  1.608218  0.00033  0.34983  0.630224  0.000197  4.118198  0.0
C  C61  1  0.31500458  0.32036094  0.70947013  1  1.607932  -0.00033  0.349926  0.630186  -0.000197  4.118341  0.0
C  C62  1  0.09667974  0.81882256  0.60743174  1  1.526247  -0.000547  0.214932  0.562248  -0.000336  4.135878  -0.001
C  C63  1  0.90332200  0.18118165  0.39255807  1  1.526962  0.000548  0.214862  0.562294  0.000338  4.135792  0.001
C  C64  1  0.14238736  0.70997044  0.67008710  1  -0.125546  0.001033  -0.01999  0.081486  0.000689  3.963512  0.001
C  C65  1  0.85760497  0.29002169  0.32990152  1  -0.126946  -0.00104  -0.019895  0.081683  -0.000693  3.962967  -0.001
C  C66  1  0.04569744  0.56436165  0.65655573  1  -0.056624  0.001746  -0.243253  -0.389956  0.001124  3.953136  0.001
C  C67  1  0.95428006  0.43564065  0.34342629  1  -0.055833  -0.001747  -0.243333  -0.390438  -0.001126  3.953646  -0.001
C  C68  1  0.26578203  0.74760684  0.73494842  1  -0.016952  -0.001364  -0.168917  -0.317557  -0.000902  3.774015  -0.001
C  C69  1  0.73419366  0.25239110  0.26504347  1  -0.015727  0.001366  -0.169004  -0.31771  0.000903  3.773316  0.001
C  C70  1  0.81292096  0.07806375  0.60384789  1  1.527833  0.000538  0.214725  0.564735  0.000366  4.134597  0.001
C  C71  1  0.18706919  0.92193067  0.39614910  1  1.527058  -0.000532  0.214685  0.564648  -0.000364  4.134704  -0.001
C  C72  1  0.70580093  0.11919606  0.66676565  1  -0.015381  -0.00037  -0.019872  0.084036  -0.000334  3.96815  0.0
C  C73  1  0.29420357  0.88080488  0.33324300  1  -0.01523  0.000357  -0.019852  0.084021  0.000325  3.96796  0.0
C  C74  1  0.74856913  0.23665050  0.73011650  1  -0.158914  -0.001066  -0.170673  -0.321677  -0.000671  3.795667  -0.001
C  C75  1  0.25143159  0.76332600  0.26988156  1  -0.159168  0.00107  -0.1706  -0.321809  0.000674  3.795266  0.001
C  C76  1  0.55482849  0.02644003  0.65370398  1  -0.06885  0.001608  -0.244303  -0.39222  0.001001  3.959466  0.001
C  C77  1  0.44516913  0.97354986  0.34629668  1  -0.068861  -0.001608  -0.244267  -0.392128  -0.001001  3.959717  -0.001
C  C78  1  0.23130577  0.59386912  0.98846881  1  1.518188  2.2e-05  0.212505  0.549627  -1.3e-05  4.145647  0.0
C  C79  1  0.76870496  0.40612619  0.01154136  1  1.514643  -1.8e-05  0.212464  0.549762  1.3e-05  4.145488  0.0
C  C80  1  0.07902818  0.65961359  0.97896288  1  -0.110575  -7.3e-05  -0.018309  0.074052  -2.9e-05  3.983633  0.0
C  C81  1  0.92097227  0.34036070  0.02103694  1  -0.109971  7e-05  -0.018191  0.074147  2.7e-05  3.983598  0.0
C  C82  1  0.98666647  0.64933467  0.88730637  1  -0.083154  -0.001797  -0.246409  -0.402739  -0.001135  3.965132  -0.002
C  C83  1  0.01334554  0.35063942  0.11268813  1  -0.083313  0.001797  -0.246557  -0.40307  0.001135  3.965268  0.002
C  C84  1  0.03395174  0.72902689  0.05095293  1  -0.049001  0.001109  -0.16035  -0.292927  0.000772  3.742971  0.001
C  C85  1  0.96604656  0.27095853  0.94904553  1  -0.049416  -0.00111  -0.16042  -0.293048  -0.000772  3.742955  -0.001
C  C86  1  0.38963849  0.23290323  0.00823952  1  1.518958  0.000112  0.222105  0.566036  0.000152  4.134324  0.0
C  C87  1  0.61038641  0.76710519  0.99176980  1  1.518896  -0.000113  0.22211  0.566191  -0.000154  4.134304  0.0
C  C88  1  0.33122720  0.07677005  0.01388191  1  -0.120737  0.000466  -0.018469  0.067565  0.00032  3.980913  0.0
C  C89  1  0.66878941  0.92323627  0.98612706  1  -0.120654  -0.000466  -0.018318  0.067965  -0.000319  3.980715  0.0
C  C90  1  0.28275158  0.98376733  0.93801934  1  -0.006536  -0.001232  -0.155901  -0.287824  -0.000831  3.732885  -0.001
C  C91  1  0.71724179  0.01624827  0.06199896  1  -0.006432  0.001233  -0.156063  -0.288252  0.000832  3.732616  0.001
C  C92  1  0.33250333  0.03231194  0.10441017  1  -0.059681  0.001591  -0.242568  -0.401593  0.001027  3.959784  0.001
C  C93  1  0.66750794  0.96769893  0.89560572  1  -0.059233  -0.00159  -0.242458  -0.401581  -0.001027  3.959726  -0.001
N  N94  1  0.77509207  0.75226526  0.24495770  1  -1.323663  -0.000268  -0.574877  -0.641408  -0.000196  3.302367  0.0
N  N95  1  0.22491662  0.24770884  0.75502933  1  -1.323314  0.000268  -0.574997  -0.641421  0.000196  3.302517  0.0
N  N96  1  0.66816298  0.63797533  0.51217886  1  -1.311536  -1.1e-05  -0.569558  -0.624456  -2.3e-05  3.328848  0.0
N  N97  1  0.33182553  0.36203467  0.48781650  1  -1.311685  1.1e-05  -0.569643  -0.624472  2.3e-05  3.328741  0.0
N  N98  1  0.36393877  0.41209195  0.25230675  1  -1.245392  3.8e-05  -0.578565  -0.648434  3.9e-05  3.293911  0.0
N  N99  1  0.63605724  0.58791349  0.74768970  1  -1.245836  -3.7e-05  -0.578618  -0.648408  -3.9e-05  3.294017  0.0
N  N100  1  0.51077430  0.52768041  0.38310227  1  -1.269692  -0.000385  -0.35393  -0.560271  -0.000272  3.227329  0.0
N  N101  1  0.48922362  0.47233168  0.61689485  1  -1.270332  0.000385  -0.353726  -0.559907  0.000272  3.227326  0.0
N  N102  1  0.71975467  0.70740143  0.38008769  1  -1.260311  0.001257  -0.365863  -0.568969  0.000618  3.297983  0.0
N  N103  1  0.28025122  0.29259940  0.61990554  1  -1.260452  -0.001253  -0.365821  -0.56886  -0.000614  3.297721  0.0
N  N104  1  0.56718582  0.58186201  0.24325721  1  -1.220375  0.001286  -0.368622  -0.588386  0.000675  3.277146  0.0
N  N105  1  0.43281390  0.41813560  0.75673969  1  -1.220493  -0.001285  -0.368532  -0.588191  -0.000674  3.277584  0.0
O  O106  1  0.17161626  0.94630784  0.62103458  1  -1.108803  0.08908  -0.307348  -0.50871  0.057699  2.397103  0.081
O  O107  1  0.82837322  0.05368990  0.37895611  1  -1.108742  -0.08911  -0.307298  -0.508749  -0.057719  2.396737  -0.08
O  O108  1  0.98207761  0.77387675  0.54457185  1  -1.119822  -0.078825  -0.309972  -0.526966  -0.051544  2.408615  -0.072
O  O109  1  0.01792367  0.22612301  0.45541500  1  -1.120544  0.078809  -0.30993  -0.526928  0.051531  2.408636  0.072
O  O110  1  0.94905786  0.14500839  0.61994596  1  -1.130416  0.079676  -0.316407  -0.536956  0.051878  2.41883  0.072
O  O111  1  0.05094747  0.85500802  0.38004964  1  -1.130574  -0.07966  -0.316355  -0.536845  -0.051869  2.419241  -0.072
O  O112  1  0.75961074  0.97666667  0.53891661  1  -1.099001  -0.090219  -0.303345  -0.499453  -0.058614  2.38433  -0.082
O  O113  1  0.24039457  0.02334091  0.46108871  1  -1.098187  0.090252  -0.303391  -0.499482  0.058635  2.383986  0.082
O  O114  1  0.27274296  0.54300397  0.91579017  1  -1.099312  0.090968  -0.306355  -0.50722  0.058836  2.380551  0.082
O  O115  1  0.72727735  0.45700451  0.08421868  1  -1.095816  -0.090991  -0.306424  -0.507318  -0.058847  2.380542  -0.082
O  O116  1  0.30876537  0.59667571  0.06656811  1  -1.106356  -0.088676  -0.309571  -0.514256  -0.057399  2.386025  -0.08
O  O117  1  0.69123113  0.40332649  0.93344630  1  -1.106444  0.088679  -0.309507  -0.514262  0.057401  2.385985  0.08
O  O118  1  0.39633686  0.26901738  0.93162479  1  -1.123398  0.07989  -0.308245  -0.528926  0.052222  2.445874  0.072
O  O119  1  0.60367329  0.73098235  0.06838175  1  -1.123646  -0.079874  -0.308293  -0.52905  -0.052212  2.446002  -0.072
O  O120  1  0.43146912  0.32021953  0.08137631  1  -1.12984  -0.076774  -0.302237  -0.517813  -0.050242  2.434685  -0.07
O  O121  1  0.56856825  0.67978760  0.91863418  1  -1.129549  0.076782  -0.302295  -0.518024  0.050247  2.43478  0.07
