# generated using pymatgen
data_Zn4H8C26S4O17
_symmetry_space_group_name_H-M   'P 1'
_cell_length_a   19.66263276
_cell_length_b   19.65146354
_cell_length_c   33.34037245
_cell_angle_alpha   79.10696897
_cell_angle_beta   79.04939164
_cell_angle_gamma   63.79527512
_symmetry_Int_Tables_number   1
_chemical_formula_structural   Zn4H8C26S4O17
_chemical_formula_sum   'Zn16 H32 C104 S16 O68'
_cell_volume   11267.12665197
_cell_formula_units_Z   4
loop_
 _symmetry_equiv_pos_site_id
 _symmetry_equiv_pos_as_xyz
  1  'x, y, z'
loop_
 _atom_site_type_symbol
 _atom_site_label
 _atom_site_symmetry_multiplicity
 _atom_site_fract_x
 _atom_site_fract_y
 _atom_site_fract_z
 _atom_site_occupancy
 _atom_site_pbe_bader_charge
 _atom_site_pbe_bader_spin_density
 _atom_site_pbe_cm5_charge
 _atom_site_pbe_ddec_charge
 _atom_site_pbe_ddec_spin_density
 _atom_site_pbe_ddec_sum_bond_order
 _atom_site_pbe_magmom
Zn  Zn0  1  0.05521449  0.40137075  0.47818943  1  1.315814  0  0.671367  0.968074  0  2.355139  0
Zn  Zn1  1  0.98322277  0.48461997  0.56124854  1  1.309864  0  0.683391  0.973338  0  2.349406  0
Zn  Zn2  1  0.05876595  0.56163475  0.48459522  1  1.319459  0  0.677148  0.970018  0  2.352929  0
Zn  Zn3  1  0.90013891  0.55303261  0.47937622  1  1.318189  0  0.677215  0.969219  0  2.358159  0
Zn  Zn4  1  0.69600503  0.34905410  0.27200028  1  1.315889  0  0.672124  0.968729  0  2.359548  0
Zn  Zn5  1  0.68967728  0.18956693  0.26691328  1  1.312482  0  0.670254  0.962664  0  2.37468  0
Zn  Zn6  1  0.76740247  0.26448241  0.18999041  1  1.32405  0  0.678024  0.971973  0  2.349676  0
Zn  Zn7  1  0.84819088  0.19411978  0.27354225  1  1.321638  0  0.67877  0.969776  0  2.355175  0
Zn  Zn8  1  0.26480338  0.76740845  0.69010046  1  1.322095  0  0.671164  0.961011  0  2.377313  0
Zn  Zn9  1  0.34780730  0.69694313  0.77238165  1  1.321703  0  0.678302  0.970601  0  2.362768  0
Zn  Zn10  1  0.19362517  0.84943187  0.77246097  1  1.316864  0  0.671183  0.967859  0  2.361832  0
Zn  Zn11  1  0.19083300  0.68772627  0.76657514  1  1.318026  0  0.679847  0.974703  0  2.348521  0
Zn  Zn12  1  0.56056671  0.05965734  0.98399599  1  1.317157  0  0.671888  0.964709  0  2.3716  0
Zn  Zn13  1  0.40066603  0.05547672  0.97851232  1  1.317233  0  0.672169  0.962631  0  2.373217  0
Zn  Zn14  1  0.55383921  0.90124644  0.97817424  1  1.315577  0  0.672165  0.967634  0  2.369255  0
Zn  Zn15  1  0.48338229  0.98353537  0.06078336  1  1.306407  0  0.671819  0.965486  0  2.368349  0
H  H16  1  0.79862380  0.50417147  0.39762749  1  0.07347  0  0.114056  0.123197  0  0.983627  0
H  H17  1  0.95605198  0.24884150  0.34924901  1  0.121751  0  0.112932  0.121272  0  0.985011  0
H  H18  1  0.74945845  0.45628089  0.34997205  1  0.112309  0  0.110129  0.115597  0  0.990826  0
H  H19  1  0.00431253  0.29590258  0.39777908  1  0.10006  0  0.110227  0.11601  0  0.990628  0
H  H20  1  0.14782589  0.65730151  0.54973712  1  0.102232  0  0.109742  0.116871  0  0.990572  0
H  H21  1  0.09671745  0.59773010  0.70134311  1  0.142399  0  0.115164  0.124131  0  0.981478  0
H  H22  1  0.19578189  0.70547401  0.59792121  1  0.095366  0  0.108048  0.113626  0  0.99362  0
H  H23  1  0.05119953  0.54722145  0.65317385  1  0.105151  0  0.116459  0.125677  0  0.979383  0
H  H24  1  0.46538432  0.23960069  0.34304498  1  0.130193  0  0.123634  0.149924  0  0.966691  0
H  H25  1  0.47829755  0.70664689  0.60242736  1  0.113493  0  0.122902  0.148696  0  0.967847  0
H  H26  1  0.19653164  0.97955842  0.60250572  1  0.136443  0  0.122541  0.148797  0  0.967425  0
H  H27  1  0.94650524  0.96958389  0.34963843  1  0.125436  0  0.125634  0.152518  0  0.962195  0
H  H28  1  0.70545359  0.19555160  0.09793466  1  0.107225  0  0.111596  0.11871  0  0.987005  0
H  H29  1  0.54850203  0.04969634  0.15302898  1  0.086855  0  0.110471  0.116645  0  0.989795  0
H  H30  1  0.65534999  0.14967047  0.04969904  1  0.099618  0  0.109959  0.115838  0  0.990665  0
H  H31  1  0.59781403  0.09639343  0.20123851  1  0.13263  0  0.110797  0.117076  0  0.989531  0
H  H32  1  0.54471341  0.76956771  0.14856659  1  0.142175  0  0.124555  0.151167  0  0.964576  0
H  H33  1  0.16202453  0.14457944  0.04124756  1  0.110766  0  0.123977  0.149866  0  0.966074  0
H  H34  1  0.24499111  0.95622569  0.85203111  1  0.127543  0  0.110992  0.117079  0  0.989165  0
H  H35  1  0.50117461  0.79720049  0.89857713  1  0.112443  0  0.110895  0.11701  0  0.988572  0
H  H36  1  0.29367766  0.00353653  0.90028376  1  0.113617  0  0.109795  0.11549  0  0.991951  0
H  H37  1  0.45312847  0.75054766  0.84972563  1  0.119154  0  0.112506  0.119968  0  0.986747  0
H  H38  1  0.30164231  0.28073604  0.90266294  1  0.131665  0  0.124558  0.150993  0  0.964178  0
H  H39  1  0.78680108  0.00831496  0.90979967  1  0.150055  0  0.124608  0.150989  0  0.965195  0
H  H40  1  0.36456858  0.50621203  0.43124186  1  0.604422  0  0.334732  0.36955  0  0.876355  0
H  H41  1  0.75246464  0.60420560  0.68661134  1  0.627775  0  0.337111  0.370085  0  0.874532  0
H  H42  1  0.96973516  0.26100754  0.67966888  1  0.613994  0  0.341737  0.377167  0  0.861098  0
H  H43  1  0.71492436  0.85906831  0.42084425  1  0.612152  0  0.331951  0.3653  0  0.884095  0
H  H44  1  0.63797902  0.50168798  0.06359287  1  0.617725  0  0.333311  0.366594  0  0.881211  0
H  H45  1  0.14992374  0.00680992  0.21208962  1  0.63414  0  0.33295  0.367078  0  0.881236  0
H  H46  1  0.47401522  0.45830775  0.90038131  1  0.596047  0  0.331496  0.364535  0  0.88421  0
H  H47  1  0.94965121  0.68440585  0.89118029  1  0.617775  0  0.332663  0.366527  0  0.882335  0
C  C48  1  0.06044146  0.31739895  0.56150633  1  1.599223  0  0.22112  0.612122  0  4.214289  0
C  C49  1  0.06810736  0.57128755  0.57008710  1  1.549859  0  0.230348  0.602793  0  4.168892  0
C  C50  1  0.18336099  0.44077522  0.43944266  1  1.593819  0  0.221342  0.613474  0  4.214255  0
C  C51  1  0.93675198  0.68163965  0.43905291  1  1.603018  0  0.221681  0.611053  0  4.21837  0
C  C52  1  0.93213065  0.42997787  0.43011124  1  1.55442  0  0.230974  0.603631  0  4.165374  0
C  C53  1  0.81589755  0.55956323  0.56251969  1  1.577017  0  0.219542  0.611419  0  4.218564  0
C  C54  1  0.56506216  0.31305886  0.31036188  1  1.578071  0  0.218072  0.609579  0  4.220411  0
C  C55  1  0.68371459  0.17642456  0.18101543  1  1.550218  0  0.228485  0.601931  0  4.168714  0
C  C56  1  0.68859034  0.43184037  0.18815855  1  1.596811  0  0.221082  0.613097  0  4.213256  0
C  C57  1  0.93348567  0.19022289  0.19031907  1  1.576569  0  0.221711  0.612322  0  4.215115  0
C  C58  1  0.82006023  0.32058899  0.31926683  1  1.543187  0  0.231767  0.606586  0  4.159391  0
C  C59  1  0.81005106  0.06520334  0.31235783  1  1.602815  0  0.218228  0.608883  0  4.221662  0
C  C60  1  0.43216962  0.68618989  0.68895826  1  1.577797  0  0.219205  0.608258  0  4.221571  0
C  C61  1  0.31744002  0.82228133  0.81956401  1  1.559923  0  0.228845  0.602877  0  4.166948  0
C  C62  1  0.18929714  0.93526106  0.68942088  1  1.571392  0  0.218414  0.610796  0  4.220837  0
C  C63  1  0.06697744  0.80906973  0.81165742  1  1.602465  0  0.220311  0.611695  0  4.213713  0
C  C64  1  0.17743719  0.68303182  0.68089210  1  1.531282  0  0.230517  0.604885  0  4.166217  0
C  C65  1  0.31356231  0.56639854  0.81113277  1  1.622173  0  0.220262  0.610768  0  4.218  0
C  C66  1  0.43956804  0.18334850  0.93838076  1  1.577918  0  0.218788  0.61185  0  4.218808  0
C  C67  1  0.42878414  0.93086164  0.93115533  1  1.564899  0  0.229369  0.605173  0  4.163043  0
C  C68  1  0.68306047  0.93840879  0.93823371  1  1.587464  0  0.219175  0.609777  0  4.220563  0
C  C69  1  0.56250614  0.81592010  0.06174567  1  1.609337  0  0.21919  0.610718  0  4.2209  0
C  C70  1  0.56966525  0.06928704  0.06997408  1  1.55124  0  0.229599  0.605755  0  4.163081  0
C  C71  1  0.31529116  0.06342759  0.06174474  1  1.58375  0  0.218344  0.610401  0  4.218902  0
C  C72  1  0.90384148  0.40227885  0.40082515  1  -0.063188  0  -0.011081  -0.02856  0  3.961877  0
C  C73  1  0.84961185  0.34951216  0.34725034  1  0.08456  0  -0.013255  -0.034076  0  3.966733  0
C  C74  1  0.83222454  0.44809980  0.38717319  1  -0.014242  0  -0.075373  -0.086854  0  3.953785  0
C  C75  1  0.92178718  0.30425329  0.36034807  1  -0.106203  0  -0.076501  -0.086859  0  3.953685  0
C  C76  1  0.80513905  0.42165327  0.36063526  1  -0.060821  0  -0.078065  -0.090092  0  3.966263  0
C  C77  1  0.94860401  0.33045776  0.38714288  1  0.022785  0  -0.077405  -0.09062  0  3.963758  0
C  C78  1  0.09656647  0.59988005  0.59877131  1  -0.009134  0  -0.012299  -0.030776  0  3.966359  0
C  C79  1  0.14894540  0.65429371  0.65231878  1  -0.040608  0  -0.012054  -0.031062  0  3.969098  0
C  C80  1  0.13727229  0.64443514  0.58295726  1  -0.062076  0  -0.08006  -0.093997  0  3.971084  0
C  C81  1  0.10798504  0.60999491  0.66813001  1  -0.019783  0  -0.073725  -0.085674  0  3.949155  0
C  C82  1  0.16368604  0.67120760  0.60962989  1  -0.039271  0  -0.080912  -0.094145  0  3.974378  0
C  C83  1  0.08232095  0.58242597  0.64143944  1  -0.006684  0  -0.072403  -0.082682  0  3.94461  0
C  C84  1  0.29981526  0.46022212  0.39809628  1  0.043977  0  -0.022044  -0.111471  0  4.024737  0
C  C85  1  0.44648588  0.29796129  0.34933149  1  -0.001968  0  -0.085906  -0.131207  0  3.960731  0
C  C86  1  0.25692571  0.41826897  0.41270628  1  -0.152828  0  -0.013918  -0.126959  0  3.935289  0
C  C87  1  0.48960748  0.33924814  0.33499298  1  -0.141023  0  -0.023488  -0.114057  0  3.976391  0
C  C88  1  0.37755823  0.34166841  0.37241413  1  -0.145014  0  -0.02164  -0.004917  0  4.075075  0
C  C89  1  0.36940523  0.41578326  0.37523482  1  -0.154737  0  -0.02291  -0.054187  0  4.076402  0
C  C90  1  0.72571945  0.56628417  0.63015093  1  0.003076  0  -0.021135  -0.112502  0  4.030198  0
C  C91  1  0.52300422  0.67358413  0.62216373  1  0.072214  0  -0.088147  -0.133323  0  3.965982  0
C  C92  1  0.74100089  0.58113724  0.58777052  1  -0.113887  0  -0.015417  -0.128044  0  3.94482  0
C  C93  1  0.50755832  0.65946056  0.66435559  1  -0.164623  0  -0.022227  -0.115114  0  3.977783  0
C  C94  1  0.60231612  0.63999090  0.60964774  1  -0.227318  0  -0.021538  -0.005354  0  4.078723  0
C  C95  1  0.64591613  0.60075706  0.64271095  1  -0.142728  0  -0.023523  -0.05635  0  4.077679  0
C  C96  1  0.08088498  0.22869275  0.62976366  1  0.067518  0  -0.018756  -0.107161  0  4.017888  0
C  C97  1  0.17080534  0.02496830  0.62222994  1  -0.024964  0  -0.087592  -0.133509  0  3.965467  0
C  C98  1  0.08718118  0.24289049  0.58707835  1  -0.139551  0  -0.015521  -0.12861  0  3.945496  0
C  C99  1  0.16441300  0.01052215  0.66469059  1  -0.135853  0  -0.023154  -0.116034  0  3.982461  0
C  C100  1  0.13996898  0.10424274  0.60942486  1  -0.119533  0  -0.021269  -0.002773  0  4.07593  0
C  C101  1  0.11062378  0.14891142  0.64251048  1  -0.219628  0  -0.022136  -0.051143  0  4.071404  0
C  C102  1  0.84425534  0.79516359  0.39467635  1  0.009591  0  -0.021676  -0.112568  0  4.025233  0
C  C103  1  0.90308350  0.94813585  0.35303279  1  0.065  0  -0.084011  -0.127309  0  3.956308  0
C  C104  1  0.91236983  0.75469738  0.41192531  1  -0.144256  0  -0.012076  -0.124961  0  3.931698  0
C  C105  1  0.83505623  0.98917756  0.33630173  1  -0.1937  0  -0.023919  -0.114807  0  3.979181  0
C  C106  1  0.90662254  0.87755470  0.37429279  1  -0.163999  0  -0.021234  -0.008746  0  4.076529  0
C  C107  1  0.84090573  0.86609976  0.37335229  1  -0.156775  0  -0.024126  -0.054492  0  4.079773  0
C  C108  1  0.65445572  0.14853542  0.15230868  1  -0.04714  0  -0.011279  -0.028411  0  3.963825  0
C  C109  1  0.59909925  0.09706072  0.09863230  1  -0.037617  0  -0.013396  -0.032866  0  3.967667  0
C  C110  1  0.67097372  0.16365674  0.10962057  1  -0.077477  0  -0.077841  -0.089958  0  3.961033  0
C  C111  1  0.58276594  0.08178803  0.14131522  1  0.003438  0  -0.078036  -0.089236  0  3.965137  0
C  C112  1  0.64324908  0.13820887  0.08290999  1  -0.05414  0  -0.078583  -0.09042  0  3.965172  0
C  C113  1  0.61014567  0.10757613  0.16802403  1  0.016873  0  -0.077799  -0.090039  0  3.964849  0
C  C114  1  0.68064188  0.52181087  0.12012516  1  0.053469  0  -0.020964  -0.111085  0  4.02243  0
C  C115  1  0.57625590  0.72489948  0.12859561  1  0.049519  0  -0.08569  -0.130934  0  3.959858  0
C  C116  1  0.66721718  0.50655427  0.16263341  1  -0.134276  0  -0.013004  -0.124661  0  3.933459  0
C  C117  1  0.58873178  0.74046362  0.08633406  1  -0.194822  0  -0.023151  -0.113283  0  3.976654  0
C  C118  1  0.60931499  0.64545324  0.14095680  1  -0.1513  0  -0.020585  -0.003795  0  4.073067  0
C  C119  1  0.64666076  0.60173310  0.10774768  1  -0.215331  0  -0.023641  -0.055499  0  4.077794  0
C  C120  1  0.08071693  0.13065805  0.17965209  1  0.017096  0  -0.021416  -0.11136  0  4.025761  0
C  C121  1  0.16952675  0.12872582  0.07369865  1  0.011324  0  -0.084663  -0.128653  0  3.960975  0
C  C122  1  0.00918577  0.16878342  0.16586291  1  -0.089888  0  -0.012196  -0.125251  0  3.933809  0
C  C123  1  0.24073760  0.08975104  0.08720870  1  -0.11109  0  -0.023741  -0.115068  0  3.979365  0
C  C124  1  0.11112849  0.14350560  0.10722828  1  -0.194759  0  -0.021118  -0.006825  0  4.074594  0
C  C125  1  0.13915842  0.11553897  0.14581781  1  -0.126181  0  -0.023321  -0.055426  0  4.083177  0
C  C126  1  0.34620412  0.85065268  0.84827109  1  -0.097522  0  -0.011615  -0.028303  0  3.962816  0
C  C127  1  0.40003096  0.90291263  0.90228206  1  -0.141831  0  -0.013964  -0.034416  0  3.971481  0
C  C128  1  0.30095143  0.92197549  0.86241223  1  -0.004433  0  -0.0777  -0.089414  0  3.964598  0
C  C129  1  0.44525353  0.83153549  0.88816002  1  0.002229  0  -0.077608  -0.088476  0  3.963489  0
C  C130  1  0.32787412  0.94812136  0.88917547  1  0.020076  0  -0.079338  -0.09107  0  3.969428  0
C  C131  1  0.41859427  0.80564833  0.86114556  1  -0.018086  0  -0.076978  -0.089791  0  3.961065  0
C  C132  1  0.41119196  0.44710316  0.84984130  1  0.055439  0  -0.021944  -0.112143  0  4.025557  0
C  C133  1  0.34695611  0.30002542  0.89725346  1  0.021852  0  -0.08485  -0.129204  0  3.959822  0
C  C134  1  0.34134696  0.48959968  0.83455372  1  -0.162407  0  -0.012361  -0.123763  0  3.933287  0
C  C135  1  0.41601543  0.25776225  0.91280740  1  -0.1293  0  -0.023412  -0.114638  0  3.979296  0
C  C136  1  0.34496749  0.36895575  0.87441117  1  -0.18123  0  -0.019892  -0.003748  0  4.073626  0
C  C137  1  0.41280922  0.37801062  0.87299787  1  -0.196055  0  -0.02418  -0.056433  0  4.081165  0
C  C138  1  0.94398947  0.79491359  0.84633140  1  0.030924  0  -0.020629  -0.109729  0  4.023547  0
C  C139  1  0.80322533  0.95211827  0.90100245  1  -0.03479  0  -0.08499  -0.129564  0  3.958522  0
C  C140  1  0.98997232  0.83424998  0.83487015  1  -0.101979  0  -0.013416  -0.125298  0  3.934387  0
C  C141  1  0.75762155  0.91297695  0.91276077  1  -0.115598  0  -0.022973  -0.113865  0  3.978062  0
C  C142  1  0.87114205  0.90925511  0.87693708  1  -0.151543  0  -0.021522  -0.00433  0  4.075963  0
C  C143  1  0.87599352  0.83800056  0.87078029  1  -0.197621  0  -0.023642  -0.055988  0  4.080299  0
C  C144  1  0.27590181  0.54245425  0.40263345  1  1.570986  0  0.23244  0.599227  0  4.117395  0
C  C145  1  0.78342530  0.51543683  0.65884437  1  1.571397  0  0.234042  0.601107  0  4.117706  0
C  C146  1  0.05501753  0.28708711  0.65917764  1  1.573339  0  0.234838  0.601508  0  4.120772  0
C  C147  1  0.78362704  0.76807751  0.39561327  1  1.545022  0  0.232031  0.598141  0  4.114376  0
C  C148  1  0.72846334  0.46418240  0.09084708  1  1.579524  0  0.231844  0.59794  0  4.116307  0
C  C149  1  0.09655703  0.11176148  0.22359471  1  1.529847  0  0.231297  0.596773  0  4.11562  0
C  C150  1  0.47832931  0.46696145  0.84129382  1  1.561607  0  0.232382  0.59718  0  4.116494  0
C  C151  1  0.95936305  0.72012351  0.83311996  1  1.549231  0  0.232586  0.596762  0  4.117719  0
S  S152  1  0.29980302  0.32679185  0.39819225  1  0.298928  0  0.103127  0.152481  0  2.738079  0
S  S153  1  0.44680778  0.43138037  0.34904189  1  0.259776  0  0.085931  0.12673  0  2.755434  0
S  S154  1  0.65967265  0.63461453  0.56334659  1  0.280642  0  0.099606  0.148277  0  2.739712  0
S  S155  1  0.58861447  0.60479741  0.68914269  1  0.299081  0  0.099234  0.147379  0  2.748132  0
S  S156  1  0.13001874  0.16064191  0.56273973  1  0.292981  0  0.095685  0.141233  0  2.738002  0
S  S157  1  0.12148011  0.09264327  0.68937679  1  0.275486  0  0.088243  0.131827  0  2.752509  0
S  S158  1  0.97216786  0.80113476  0.40152220  1  0.314041  0  0.115717  0.171192  0  2.733553  0
S  S159  1  0.77527533  0.94233571  0.34574335  1  0.263914  0  0.081471  0.119117  0  2.763515  0
S  S160  1  0.61558659  0.58800925  0.18722599  1  0.307047  0  0.106676  0.156466  0  2.736775  0
S  S161  1  0.64118867  0.65919405  0.06130247  1  0.266884  0  0.085619  0.125185  0  2.758948  0
S  S162  1  0.01291087  0.18776016  0.11271036  1  0.300179  0  0.114964  0.169426  0  2.730073  0
S  S163  1  0.23763876  0.07150714  0.14054801  1  0.270281  0  0.084082  0.123745  0  2.763259  0
S  S164  1  0.27931112  0.44564552  0.84735891  1  0.312282  0  0.109994  0.161011  0  2.73406  0
S  S165  1  0.47929196  0.30068707  0.89955262  1  0.271224  0  0.085217  0.124452  0  2.762535  0
S  S166  1  0.95049136  0.92278330  0.85281860  1  0.30111  0  0.103738  0.152356  0  2.740465  0
S  S167  1  0.79608570  0.82453077  0.89444943  1  0.260944  0  0.088208  0.128018  0  2.760814  0
O  O168  1  0.99982719  0.49976271  0.50058397  1  -1.217877  0  -0.570347  -1.034756  0  2.520429  0
O  O169  1  0.08339109  0.31624876  0.52292115  1  -1.174498  0  -0.318911  -0.546275  0  2.323455  0
O  O170  1  0.03608550  0.52683152  0.58615181  1  -1.168835  0  -0.307191  -0.535379  0  2.346252  0
O  O171  1  0.15993984  0.50184912  0.45589713  1  -1.159769  0  -0.305542  -0.524259  0  2.333967  0
O  O172  1  0.01651682  0.37529834  0.58007047  1  -1.160388  0  -0.301732  -0.517556  0  2.340995  0
O  O173  1  0.15094800  0.39547862  0.44384201  1  -1.169922  0  -0.315549  -0.541219  0  2.323868  0
O  O174  1  0.07791257  0.59382554  0.53173648  1  -1.169737  0  -0.315566  -0.54898  0  2.340421  0
O  O175  1  0.00620474  0.65206567  0.44639786  1  -1.16769  0  -0.311311  -0.533404  0  2.32718  0
O  O176  1  0.88946266  0.49670250  0.44035316  1  -1.167851  0  -0.308558  -0.536274  0  2.345017  0
O  O177  1  0.88656647  0.65604868  0.45311412  1  -1.156123  0  -0.307111  -0.526981  0  2.341123  0
O  O178  1  0.99644730  0.38461230  0.44269337  1  -1.170316  0  -0.314848  -0.547554  0  2.335295  0
O  O179  1  0.87406352  0.53618290  0.58149013  1  -1.160252  0  -0.305554  -0.526633  0  2.337801  0
O  O180  1  0.81472077  0.56778922  0.52362591  1  -1.14714  0  -0.315891  -0.541119  0  2.328016  0
O  O181  1  0.75011026  0.24962604  0.25048649  1  -1.234259  0  -0.570314  -1.033383  0  2.522837  0
O  O182  1  0.59474545  0.36115139  0.30076812  1  -1.16589  0  -0.318749  -0.546245  0  2.329244  0
O  O183  1  0.66230119  0.16547706  0.21937174  1  -1.159471  0  -0.313034  -0.544377  0  2.33872  0
O  O184  1  0.71293120  0.37314874  0.16945332  1  -1.158216  0  -0.306481  -0.526264  0  2.335316  0
O  O185  1  0.59375266  0.24502398  0.30096310  1  -1.171823  0  -0.315388  -0.536447  0  2.314329  0
O  O186  1  0.67918603  0.43388078  0.22700988  1  -1.167741  0  -0.315355  -0.540934  0  2.326394  0
O  O187  1  0.72767051  0.20906438  0.16483146  1  -1.165224  0  -0.312766  -0.544402  0  2.337199  0
O  O188  1  0.87646722  0.23295743  0.17053211  1  -1.163784  0  -0.312197  -0.534536  0  2.326026  0
O  O189  1  0.86394379  0.25506816  0.30767087  1  -1.168923  0  -0.310676  -0.541047  0  2.345446  0
O  O190  1  0.93181266  0.16330655  0.22814552  1  -1.167402  0  -0.305972  -0.527279  0  2.341603  0
O  O191  1  0.75305664  0.36337833  0.30930225  1  -1.171163  0  -0.315383  -0.547733  0  2.337612  0
O  O192  1  0.74469660  0.09176153  0.29948120  1  -1.173129  0  -0.320367  -0.54779  0  2.334173  0
O  O193  1  0.85545548  0.09749856  0.30668990  1  -1.16415  0  -0.312639  -0.532743  0  2.311365  0
O  O194  1  0.24881804  0.75069580  0.75051398  1  -1.234306  0  -0.571136  -1.034188  0  2.525804  0
O  O195  1  0.37435959  0.72562780  0.66941211  1  -1.172158  0  -0.315523  -0.537706  0  2.313354  0
O  O196  1  0.36415057  0.76016908  0.80515744  1  -1.169904  0  -0.311902  -0.542345  0  2.340668  0
O  O197  1  0.17613940  0.93540772  0.72852063  1  -1.158481  0  -0.319626  -0.545927  0  2.33198  0
O  O198  1  0.43200895  0.66736190  0.72785491  1  -1.146191  0  -0.314375  -0.53657  0  2.337339  0
O  O199  1  0.22157742  0.87705623  0.66969340  1  -1.170046  0  -0.315304  -0.537249  0  2.315036  0
O  O200  1  0.24859517  0.86227674  0.81183738  1  -1.173321  0  -0.313957  -0.547015  0  2.334375  0
O  O201  1  0.09170872  0.86084345  0.79997848  1  -1.167086  0  -0.316413  -0.541467  0  2.323214  0
O  O202  1  0.15992915  0.66806230  0.71938250  1  -1.165013  0  -0.308681  -0.537512  0  2.344532  0
O  O203  1  0.10175502  0.73891034  0.80611168  1  -1.163354  0  -0.306104  -0.52679  0  2.337929  0
O  O204  1  0.21724711  0.72018070  0.66457882  1  -1.154275  0  -0.316222  -0.54976  0  2.346122  0
O  O205  1  0.35197289  0.60486457  0.80958631  1  -1.174336  0  -0.305696  -0.525365  0  2.33876  0
O  O206  1  0.25210242  0.58723829  0.79519373  1  -1.163471  0  -0.314115  -0.539187  0  2.32595  0
O  O207  1  0.49953546  0.99998962  0.00038773  1  -1.221662  0  -0.570586  -1.029547  0  2.526066  0
O  O208  1  0.50658553  0.15501560  0.94935657  1  -1.173056  0  -0.319497  -0.547057  0  2.336443  0
O  O209  1  0.38605339  0.99741192  0.94175929  1  -1.174598  0  -0.314546  -0.547191  0  2.341783  0
O  O210  1  0.65074066  0.89263724  0.94505188  1  -1.172564  0  -0.318203  -0.543795  0  2.333278  0
O  O211  1  0.39128156  0.15413712  0.94725477  1  -1.161839  0  -0.315093  -0.537616  0  2.313031  0
O  O212  1  0.65773714  0.00338613  0.95115229  1  -1.170021  0  -0.315234  -0.536398  0  2.313625  0
O  O213  1  0.49381696  0.88598849  0.94298014  1  -1.169042  0  -0.314345  -0.54588  0  2.340091  0
O  O214  1  0.58000984  0.81599744  0.02275890  1  -1.178072  0  -0.318825  -0.546018  0  2.335214  0
O  O215  1  0.53146112  0.03055281  0.08626032  1  -1.173877  0  -0.314458  -0.547299  0  2.340588  0
O  O216  1  0.52488623  0.87391404  0.08140832  1  -1.176106  0  -0.315064  -0.536682  0  2.310607  0
O  O217  1  0.58510407  0.08640090  0.03146838  1  -1.162239  0  -0.314269  -0.546566  0  2.340093  0
O  O218  1  0.31471233  0.07905305  0.02283364  1  -1.174827  0  -0.315391  -0.537232  0  2.311321  0
O  O219  1  0.37385077  0.02713086  0.08119574  1  -1.17485  0  -0.319283  -0.546823  0  2.33573  0
O  O220  1  0.32505616  0.55508194  0.42119427  1  -1.089648  0  -0.337899  -0.475075  0  2.175272  0
O  O221  1  0.22086803  0.59533567  0.38928626  1  -1.099304  0  -0.270312  -0.426764  0  2.036618  0
O  O222  1  0.78580369  0.54958296  0.69031756  1  -1.108561  0  -0.332125  -0.465869  0  2.177771  0
O  O223  1  0.82256386  0.44806082  0.65659721  1  -1.092455  0  -0.270445  -0.428817  0  2.041897  0
O  O224  1  0.99402861  0.28990449  0.68730024  1  -1.090992  0  -0.327941  -0.463638  0  2.19537  0
O  O225  1  0.08863958  0.32536151  0.66050688  1  -1.091818  0  -0.272633  -0.430837  0  2.02654  0
O  O226  1  0.71185600  0.81736431  0.41038398  1  -1.094953  0  -0.341235  -0.47679  0  2.17512  0
O  O227  1  0.79349351  0.71050416  0.38264063  1  -1.087381  0  -0.270117  -0.425385  0  2.035657  0
O  O228  1  0.69176869  0.46597661  0.05933261  1  -1.108956  0  -0.339231  -0.474103  0  2.176706  0
O  O229  1  0.79517823  0.42157999  0.09239477  1  -1.099141  0  -0.269591  -0.42599  0  2.040149  0
O  O230  1  0.14133561  0.03619330  0.23462959  1  -1.118781  0  -0.339249  -0.475079  0  2.176116  0
O  O231  1  0.07646221  0.15803607  0.24764714  1  -1.068346  0  -0.267986  -0.423202  0  2.035206  0
O  O232  1  0.50707825  0.46625682  0.87582570  1  -1.081734  0  -0.339907  -0.474154  0  2.17638  0
O  O233  1  0.50893136  0.47892342  0.80735486  1  -1.088861  0  -0.267082  -0.422167  0  2.041656  0
O  O234  1  0.95593761  0.66577701  0.86491213  1  -1.105486  0  -0.338185  -0.473616  0  2.177532  0
O  O235  1  0.96987999  0.70769038  0.79776052  1  -1.086407  0  -0.267142  -0.421605  0  2.036886  0
