# generated using pymatgen
data_HgH12C13N2Cl2O
_symmetry_space_group_name_H-M   'P 1'
_cell_length_a   7.07952904
_cell_length_b   9.26329991
_cell_length_c   20.67190000
_cell_angle_alpha   95.06612297
_cell_angle_beta   90.00000000
_cell_angle_gamma   90.00000000
_symmetry_Int_Tables_number   1
_chemical_formula_structural   HgH12C13N2Cl2O
_chemical_formula_sum   'Hg4 H48 C52 N8 Cl8 O4'
_cell_volume   1350.36313457
_cell_formula_units_Z   4
loop_
 _symmetry_equiv_pos_site_id
 _symmetry_equiv_pos_as_xyz
  1  'x, y, z'
loop_
 _atom_site_type_symbol
 _atom_site_label
 _atom_site_symmetry_multiplicity
 _atom_site_fract_x
 _atom_site_fract_y
 _atom_site_fract_z
 _atom_site_occupancy
 _atom_site_hle17_bader_spin_density
 _atom_site_hle17_ddec_charge
 _atom_site_hle17_ddec_spin_density
 _atom_site_hle17_ddec_sum_bond_order
 _atom_site_hle17_magmom
 _atom_site_hse06_10hf_bader_spin_density
 _atom_site_hse06_10hf_ddec_charge
 _atom_site_hse06_10hf_ddec_spin_density
 _atom_site_hse06_10hf_ddec_sum_bond_order
 _atom_site_hse06_10hf_magmom
 _atom_site_hse06_bader_spin_density
 _atom_site_hse06_ddec_charge
 _atom_site_hse06_ddec_spin_density
 _atom_site_hse06_ddec_sum_bond_order
 _atom_site_hse06_magmom
 _atom_site_pbe_bader_charge
 _atom_site_pbe_bader_spin_density
 _atom_site_pbe_cm5_charge
 _atom_site_pbe_ddec_charge
 _atom_site_pbe_ddec_spin_density
 _atom_site_pbe_ddec_sum_bond_order
 _atom_site_pbe_magmom
Hg  Hg0  1  0.22370415  0.32710233  0.23720023  1  0  0.781493  0  2.042378  0  0  0.624458  0  2.535948  0  0  0.676711  0  2.500768  0  0.854284  0  0.525141  0.588863  0  2.559902  0
Hg  Hg1  1  0.72370351  0.67289849  0.26280072  1  0  0.781481  0  2.042387  0  0  0.624454  0  2.535956  0  0  0.676707  0  2.500774  0  0.854052  0  0.52513  0.588862  0  2.559911  0
Hg  Hg2  1  0.77629599  0.67289632  0.76279967  1  0  0.78149  0  2.042369  0  0  0.624451  0  2.535937  0  0  0.676707  0  2.500757  0  0.854292  0  0.525146  0.58886  0  2.55989  0
Hg  Hg3  1  0.27629804  0.32710125  0.73720018  1  0  0.781498  0  2.042366  0  0  0.624461  0  2.535941  0  0  0.676716  0  2.50076  0  0.854186  0  0.525138  0.588869  0  2.559894  0
H  H4  1  0.40987755  0.97963476  0.41898182  1  0  0.103146  0  0.964612  0  0  0.111564  0  1.030314  0  0  0.114542  0  1.02933  0  0.10476  0  0.10131  0.108964  0  1.032112  0
H  H5  1  0.90987832  0.02036607  0.08101913  1  0  0.103116  0  0.964575  0  0  0.11154  0  1.030275  0  0  0.114517  0  1.029293  0  0.104762  0  0.101294  0.108939  0  1.032073  0
H  H6  1  0.59012400  0.02036607  0.58101865  1  0  0.103161  0  0.964599  0  0  0.111572  0  1.030313  0  0  0.114554  0  1.02932  0  0.104754  0  0.101323  0.108972  0  1.03211  0
H  H7  1  0.09012181  0.97963476  0.91898230  1  0  0.103146  0  0.964549  0  0  0.111568  0  1.030253  0  0  0.114548  0  1.029264  0  0.104768  0  0.101306  0.108967  0  1.032051  0
H  H8  1  0.41485387  0.17208417  0.51463265  1  0  0.093667  0  0.9621  0  0  0.105112  0  1.022761  0  0  0.107804  0  1.020442  0  0.095517  0  0.097772  0.103043  0  1.024613  0
H  H9  1  0.91485464  0.82791557  0.98536826  1  0  0.093651  0  0.962143  0  0  0.105096  0  1.0228  0  0  0.107788  0  1.020479  0  0.095401  0  0.097769  0.103031  0  1.024647  0
H  H10  1  0.58514344  0.82791665  0.48536782  1  0  0.093624  0  0.962114  0  0  0.105068  0  1.022779  0  0  0.10776  0  1.020459  0  0.095397  0  0.097747  0.103005  0  1.024627  0
H  H11  1  0.08514408  0.17208634  0.01463274  1  0  0.09365  0  0.962217  0  0  0.105095  0  1.022874  0  0  0.107786  0  1.020555  0  0.095351  0  0.097779  0.103038  0  1.024711  0
H  H12  1  0.34817712  0.42894135  0.49355277  1  0  0.114448  0  0.947804  0  0  0.120943  0  1.012115  0  0  0.124907  0  1.010052  0  0.113031  0  0.110571  0.118004  0  1.013864  0
H  H13  1  0.84817506  0.57105948  0.00644866  1  0  0.114372  0  0.947841  0  0  0.120918  0  1.012108  0  0  0.124887  0  1.010046  0  0.113057  0  0.110566  0.117981  0  1.013857  0
H  H14  1  0.65182019  0.57105948  0.50644673  1  0  0.114411  0  0.947765  0  0  0.120885  0  1.012108  0  0  0.124851  0  1.010048  0  0.11299  0  0.110532  0.117947  0  1.013858  0
H  H15  1  0.15182366  0.42894135  0.99355132  1  0  0.114417  0  0.94778  0  0  0.120929  0  1.012088  0  0  0.124895  0  1.010026  0  0.113014  0  0.110567  0.11799  0  1.013838  0
H  H16  1  0.27624578  0.48474320  0.37916154  1  0  0.082543  0  0.990574  0  0  0.089329  0  1.05994  0  0  0.091587  0  1.057491  0  0.166679  0  0.101337  0.087305  0  1.062328  0
H  H17  1  0.77624655  0.51525979  0.12083901  1  0  0.082542  0  0.990599  0  0  0.089327  0  1.05997  0  0  0.091583  0  1.057524  0  0.16665  0  0.101341  0.087302  0  1.062359  0
H  H18  1  0.72375012  0.51525871  0.62083704  1  0  0.08253  0  0.990636  0  0  0.08932  0  1.059996  0  0  0.091576  0  1.057551  0  0.166621  0  0.101341  0.087296  0  1.062384  0
H  H19  1  0.22375358  0.48474103  0.87916049  1  0  0.082549  0  0.990553  0  0  0.089327  0  1.059937  0  0  0.091585  0  1.05749  0  0.166645  0  0.101345  0.087302  0  1.062326  0
H  H20  1  0.36944265  0.91192127  0.30792432  1  0  0.077906  0  0.962137  0  0  0.085374  0  1.035429  0  0  0.088382  0  1.03091  0  0.137764  0  0.105511  0.08261  0  1.039483  0
H  H21  1  0.86943919  0.08807956  0.19207567  1  0  0.077927  0  0.962144  0  0  0.085354  0  1.035469  0  0  0.088369  0  1.030945  0  0.137936  0  0.10552  0.082594  0  1.039514  0
H  H22  1  0.63055607  0.08807848  0.69207514  1  0  0.07787  0  0.962188  0  0  0.085347  0  1.03546  0  0  0.088352  0  1.030947  0  0.137765  0  0.105482  0.082579  0  1.039523  0
H  H23  1  0.13056377  0.91191910  0.80792471  1  0  0.077892  0  0.962143  0  0  0.085334  0  1.035462  0  0  0.08834  0  1.030947  0  0.137917  0  0.105504  0.082572  0  1.039513  0
H  H24  1  0.24649662  0.76287247  0.23484483  1  0  0.103251  0  0.992416  0  0  0.110645  0  1.060976  0  0  0.113215  0  1.059701  0  0.13857  0  0.088718  0.108873  0  1.061933  0
H  H25  1  0.74649457  0.23712944  0.26515519  1  0  0.103278  0  0.99236  0  0  0.110635  0  1.060959  0  0  0.113205  0  1.059685  0  0.138563  0  0.088703  0.108863  0  1.061917  0
H  H26  1  0.75350492  0.23712727  0.76515559  1  0  0.103245  0  0.992425  0  0  0.110606  0  1.061029  0  0  0.113176  0  1.059753  0  0.138578  0  0.088702  0.108835  0  1.061985  0
H  H27  1  0.25350274  0.76287030  0.73484475  1  0  0.103253  0  0.992418  0  0  0.110643  0  1.060977  0  0  0.113213  0  1.059702  0  0.138567  0  0.088714  0.108872  0  1.061934  0
H  H28  1  0.27582202  0.59084465  0.13792348  1  0  0.113087  0  0.960066  0  0  0.119824  0  1.029478  0  0  0.122889  0  1.027883  0  0.098255  0  0.096129  0.116711  0  1.032222  0
H  H29  1  0.77581997  0.40915617  0.36207699  1  0  0.113104  0  0.960002  0  0  0.119797  0  1.029462  0  0  0.122864  0  1.027867  0  0.098249  0  0.096139  0.116712  0  1.032181  0
H  H30  1  0.72418094  0.40915509  0.86207695  1  0  0.113083  0  0.960017  0  0  0.119793  0  1.029459  0  0  0.122859  0  1.027865  0  0.098264  0  0.096143  0.116706  0  1.03218  0
H  H31  1  0.22417734  0.59084357  0.63792295  1  0  0.113083  0  0.960028  0  0  0.119781  0  1.02948  0  0  0.122848  0  1.027886  0  0.098257  0  0.096128  0.116694  0  1.0322  0
H  H32  1  0.39825813  0.94293639  0.02108568  1  0  0.093913  0  0.994565  0  0  0.10631  0  1.056904  0  0  0.108748  0  1.056605  0  0.039781  0  0.096667  0.104544  0  1.057277  0
H  H33  1  0.89826173  0.05706336  0.47891475  1  0  0.093893  0  0.994566  0  0  0.106289  0  1.056905  0  0  0.108725  0  1.056612  0  0.039412  0  0.09666  0.104523  0  1.057279  0
H  H34  1  0.60174200  0.05706336  0.97891475  1  0  0.093909  0  0.99457  0  0  0.106315  0  1.056891  0  0  0.108747  0  1.056609  0  0.039411  0  0.096669  0.104549  0  1.057264  0
H  H35  1  0.10173841  0.94293639  0.52108519  1  0  0.093908  0  0.994549  0  0  0.106304  0  1.056893  0  0  0.108742  0  1.056593  0  0.039744  0  0.096667  0.104538  0  1.057267  0
H  H36  1  0.37309826  0.11714716  0.11945086  1  0  0.096121  0  0.977294  0  0  0.105312  0  1.044472  0  0  0.107889  0  1.042819  0  0.069017  0  0.094192  0.102979  0  1.046496  0
H  H37  1  0.87309904  0.88285367  0.38054864  1  0  0.096111  0  0.977235  0  0  0.105321  0  1.044388  0  0  0.107898  0  1.042735  0  0.069049  0  0.094189  0.102987  0  1.046413  0
H  H38  1  0.62690187  0.88285150  0.88054904  1  0  0.096104  0  0.977237  0  0  0.105302  0  1.044406  0  0  0.10788  0  1.042751  0  0.069014  0  0.094177  0.102969  0  1.04643  0
H  H39  1  0.12690110  0.11714716  0.61945135  1  0  0.096113  0  0.977256  0  0  0.105313  0  1.044417  0  0  0.10789  0  1.042764  0  0.06903  0  0.094188  0.10298  0  1.046441  0
H  H40  1  0.54908737  0.76288764  0.96713758  1  0  0.073087  0  0.973186  0  0  0.091081  0  1.042353  0  0  0.090352  0  1.043643  0  0.041726  0  0.092297  0.091669  0  1.041321  0
H  H41  1  0.04908942  0.23711318  0.53286337  1  0  0.073098  0  0.973179  0  0  0.09109  0  1.042351  0  0  0.090361  0  1.043642  0  0.041717  0  0.092301  0.091679  0  1.041319  0
H  H42  1  0.45091135  0.23711210  0.03286285  1  0  0.07309  0  0.973176  0  0  0.091082  0  1.042351  0  0  0.090353  0  1.043642  0  0.041722  0  0.092295  0.09167  0  1.04132  0
H  H43  1  0.95091071  0.76288764  0.46713661  1  0  0.073064  0  0.973181  0  0  0.091055  0  1.04236  0  0  0.090325  0  1.043652  0  0.041704  0  0.092288  0.091642  0  1.041329  0
H  H44  1  0.30844283  0.74890927  0.93850236  1  0  0.082793  0  0.945903  0  0  0.098678  0  1.01499  0  0  0.098486  0  1.015002  0  0.069486  0  0.088652  0.09869  0  1.01533  0
H  H45  1  0.80844220  0.25109047  0.56149806  1  0  0.082793  0  0.945888  0  0  0.098675  0  1.014975  0  0  0.098483  0  1.014986  0  0.069475  0  0.088647  0.098687  0  1.015315  0
H  H46  1  0.69155871  0.25109047  0.06149758  1  0  0.082788  0  0.945889  0  0  0.09867  0  1.014974  0  0  0.098479  0  1.014985  0  0.069477  0  0.08865  0.098682  0  1.015315  0
H  H47  1  0.19155794  0.74890819  0.43850232  1  0  0.082783  0  0.945882  0  0  0.098663  0  1.014974  0  0  0.098471  0  1.014986  0  0.069486  0  0.088653  0.098676  0  1.015314  0
H  H48  1  0.46042046  0.59357682  0.93251589  1  0  0.103239  0  0.958371  0  0  0.116887  0  1.027902  0  0  0.117994  0  1.026809  0  0.112374  0  0.100145  0.116064  0  1.028843  0
H  H49  1  0.96041982  0.40642292  0.56748405  1  0  0.103194  0  0.958336  0  0  0.11683  0  1.027899  0  0  0.117941  0  1.026803  0  0.112375  0  0.100112  0.116008  0  1.028841  0
H  H50  1  0.53957968  0.40642292  0.06748357  1  0  0.103221  0  0.95839  0  0  0.116858  0  1.02794  0  0  0.117969  0  1.026844  0  0.112378  0  0.100136  0.116036  0  1.028881  0
H  H51  1  0.03957749  0.59357790  0.43251545  1  0  0.103206  0  0.958364  0  0  0.116848  0  1.027911  0  0  0.11796  0  1.026814  0  0.112382  0  0.10012  0.116026  0  1.028851  0
C  C52  1  0.33423268  0.13262329  0.35133131  1  0  0.194223  0  3.79506  0  0  0.193787  0  4.03111  0  0  0.199029  0  4.053369  0  0.500876  0  0.116446  0.190578  0  4.015657  0
C  C53  1  0.83422922  0.86737645  0.14866815  1  0  0.194218  0  3.795145  0  0  0.193761  0  4.031205  0  0  0.199005  0  4.053472  0  0.500839  0  0.116442  0.190552  0  4.015754  0
C  C54  1  0.66576886  0.86737754  0.64866916  1  0  0.194183  0  3.795125  0  0  0.193719  0  4.031173  0  0  0.198962  0  4.053438  0  0.50085  0  0.116424  0.190512  0  4.015717  0
C  C55  1  0.16576950  0.13262329  0.85133228  1  0  0.194213  0  3.795192  0  0  0.193775  0  4.031233  0  0  0.199016  0  4.053498  0  0.500845  0  0.116439  0.190566  0  4.01578  0
C  C56  1  0.37805340  0.09303994  0.41343111  1  0  -0.134563  0  3.699706  0  0  -0.151476  0  3.943706  0  0  -0.157946  0  3.965498  0  -0.051905  0  -0.073812  -0.147223  0  3.929676  0
C  C57  1  0.87805276  0.90695980  0.08656980  1  0  -0.134523  0  3.699666  0  0  -0.151435  0  3.94368  0  0  -0.157906  0  3.96547  0  -0.051906  0  -0.073767  -0.147182  0  3.929652  0
C  C58  1  0.62194815  0.90696088  0.58656936  1  0  -0.134549  0  3.699612  0  0  -0.151447  0  3.94361  0  0  -0.157915  0  3.965403  0  -0.051887  0  -0.073788  -0.147194  0  3.929581  0
C  C59  1  0.12194738  0.09304103  0.91343067  1  0  -0.134568  0  3.699688  0  0  -0.151489  0  3.943692  0  0  -0.15796  0  3.965485  0  -0.051905  0  -0.073809  -0.147236  0  3.929666  0
C  C60  1  0.38293225  0.19905794  0.46548886  1  0  -0.005375  0  3.717176  0  0  -0.022989  0  3.965798  0  0  -0.018977  0  3.981977  0  0.010954  0  -0.067906  -0.025681  0  3.954812  0
C  C61  1  0.88293161  0.80094397  0.03451068  1  0  -0.005312  0  3.717091  0  0  -0.022915  0  3.96572  0  0  -0.018902  0  3.981899  0  0.011057  0  -0.067847  -0.025612  0  3.954737  0
C  C62  1  0.61706788  0.80094288  0.53451064  1  0  -0.005254  0  3.717126  0  0  -0.022863  0  3.965724  0  0  -0.018851  0  3.981905  0  0.01107  0  -0.067838  -0.02556  0  3.95474  0
C  C63  1  0.11706852  0.19905686  0.96548979  1  0  -0.00531  0  3.717103  0  0  -0.022909  0  3.965721  0  0  -0.018896  0  3.9819  0  0.011107  0  -0.067864  -0.02561  0  3.95473  0
C  C64  1  0.34676600  0.34262073  0.45421773  1  0  -0.088191  0  3.661061  0  0  -0.104824  0  3.917077  0  0  -0.108661  0  3.932629  0  -0.051537  0  -0.074311  -0.102578  0  3.907411  0
C  C65  1  0.84676395  0.65738118  0.04578278  1  0  -0.088207  0  3.66105  0  0  -0.104902  0  3.917088  0  0  -0.108748  0  3.932646  0  -0.051531  0  -0.074388  -0.102657  0  3.907424  0
C  C66  1  0.65322989  0.65738009  0.54578177  1  0  -0.088297  0  3.661066  0  0  -0.104922  0  3.917095  0  0  -0.108763  0  3.932651  0  -0.051554  0  -0.074373  -0.102678  0  3.907432  0
C  C67  1  0.15323477  0.34262073  0.95421724  1  0  -0.088264  0  3.660959  0  0  -0.104936  0  3.917008  0  0  -0.108777  0  3.932564  0  -0.05155  0  -0.074391  -0.10269  0  3.907346  0
C  C68  1  0.30404706  0.37466001  0.39115376  1  0  0.14279  0  3.669998  0  0  0.106355  0  3.921858  0  0  0.114995  0  3.938309  0  0.487965  0  0.053285  0.100258  0  3.912015  0
C  C69  1  0.80404642  0.62534082  0.10884622  1  0  0.142833  0  3.670054  0  0  0.1064  0  3.921929  0  0  0.115043  0  3.938384  0  0.488029  0  0.053303  0.100302  0  3.912085  0
C  C70  1  0.69595307  0.62533973  0.60884569  1  0  0.142849  0  3.669976  0  0  0.106407  0  3.921824  0  0  0.115048  0  3.938276  0  0.488048  0  0.053302  0.100309  0  3.911981  0
C  C71  1  0.19595230  0.37465892  0.89115372  1  0  0.142882  0  3.669988  0  0  0.106451  0  3.921858  0  0  0.115091  0  3.938313  0  0.488032  0  0.053328  0.100353  0  3.912014  0
C  C72  1  0.33668624  0.02266365  0.29620349  1  0  0.093231  0  3.649165  0  0  0.055479  0  3.901992  0  0  0.067044  0  3.912157  0  0.609102  0  0.070611  0.047728  0  3.895766  0
C  C73  1  0.83668136  0.97733610  0.20379694  1  0  0.093211  0  3.649262  0  0  0.055512  0  3.902094  0  0  0.067066  0  3.912263  0  0.608943  0  0.070591  0.047758  0  3.89587  0
C  C74  1  0.66331672  0.97733501  0.70379690  1  0  0.093267  0  3.649251  0  0  0.05554  0  3.902065  0  0  0.067098  0  3.912246  0  0.609106  0  0.070672  0.047788  0  3.895839  0
C  C75  1  0.16331736  0.02266256  0.79620344  1  0  0.09327  0  3.649212  0  0  0.055545  0  3.902046  0  0  0.067112  0  3.912208  0  0.60893  0  0.070635  0.047793  0  3.895822  0
C  C76  1  0.31826552  0.95295794  0.18421038  1  0  0.174333  0  3.844753  0  0  0.174034  0  4.093276  0  0  0.174334  0  4.121433  0  0.341562  0  0.071866  0.173818  0  4.074349  0
C  C77  1  0.81826488  0.04704180  0.31578956  1  0  0.174315  0  3.844879  0  0  0.174015  0  4.093407  0  0  0.174314  0  4.121565  0  0.341582  0  0.071856  0.173798  0  4.074479  0
C  C78  1  0.68173461  0.04703964  0.81579044  1  0  0.174301  0  3.844763  0  0  0.173976  0  4.093337  0  0  0.174274  0  4.121496  0  0.341497  0  0.071857  0.173759  0  4.074408  0
C  C79  1  0.18173525  0.95295794  0.68421038  1  0  0.17434  0  3.844827  0  0  0.174039  0  4.093349  0  0  0.174338  0  4.121509  0  0.34154  0  0.071865  0.173822  0  4.074421  0
C  C80  1  0.28712221  0.80357968  0.18889930  1  0  -0.12901  0  3.734799  0  0  -0.146395  0  3.985046  0  0  -0.149111  0  4.008436  0  -0.069776  0  -0.096554  -0.144509  0  3.96876  0
C  C81  1  0.78712016  0.19642115  0.31110117  1  0  -0.128962  0  3.734733  0  0  -0.1463  0  3.98495  0  0  -0.149013  0  4.00834  0  -0.069799  0  -0.096488  -0.144416  0  3.968674  0
C  C82  1  0.71287793  0.19641898  0.81110060  1  0  -0.12896  0  3.734727  0  0  -0.146314  0  3.984977  0  0  -0.149027  0  4.008368  0  -0.069791  0  -0.096527  -0.144429  0  3.9687  0
C  C83  1  0.21287998  0.80357860  0.68889877  1  0  -0.128973  0  3.734784  0  0  -0.146344  0  3.985001  0  0  -0.149058  0  4.008392  0  -0.069801  0  -0.096498  -0.144459  0  3.968724  0
C  C84  1  0.30070503  0.70602478  0.13449792  1  0  -0.157221  0  3.738393  0  0  -0.180806  0  3.994964  0  0  -0.186993  0  4.017347  0  0.04765  0  -0.102658  -0.176103  0  3.980394  0
C  C85  1  0.80070439  0.29397496  0.36550202  1  0  -0.157256  0  3.73833  0  0  -0.180814  0  3.994932  0  0  -0.186992  0  4.017286  0  0.047673  0  -0.102669  -0.176138  0  3.980351  0
C  C86  1  0.69929510  0.29397388  0.86550198  1  0  -0.157182  0  3.738433  0  0  -0.180776  0  3.995  0  0  -0.186947  0  4.017347  0  0.047678  0  -0.102661  -0.176098  0  3.98042  0
C  C87  1  0.19929574  0.70602478  0.63449792  1  0  -0.15722  0  3.738303  0  0  -0.180769  0  3.994918  0  0  -0.186946  0  4.01727  0  0.047656  0  -0.10268  -0.176091  0  3.980334  0
C  C88  1  0.34733666  0.75464671  0.07395016  1  0  0.27528  0  3.805483  0  0  0.266812  0  4.058275  0  0  0.278047  0  4.076561  0  0.42761  0  0.085859  0.25921  0  4.044912  0
C  C89  1  0.84734026  0.24535412  0.42604983  1  0  0.275284  0  3.805471  0  0  0.266827  0  4.058259  0  0  0.278064  0  4.076546  0  0.42738  0  0.085839  0.259223  0  4.044902  0
C  C90  1  0.65266065  0.24535628  0.92604798  1  0  0.275246  0  3.805547  0  0  0.266885  0  4.058214  0  0  0.278116  0  4.076512  0  0.427445  0  0.085924  0.259282  0  4.044857  0
C  C91  1  0.15265846  0.75464563  0.57395060  1  0  0.27531  0  3.805388  0  0  0.266804  0  4.058212  0  0  0.278039  0  4.0765  0  0.426898  0  0.08589  0.259201  0  4.044855  0
C  C92  1  0.37084388  0.90344624  0.06817845  1  0  -0.210285  0  3.78874  0  0  -0.228621  0  4.038244  0  0  -0.235911  0  4.061828  0  -0.04184  0  -0.118428  -0.223363  0  4.02172  0
C  C93  1  0.87084606  0.09655350  0.43182197  1  0  -0.210264  0  3.78868  0  0  -0.228596  0  4.038185  0  0  -0.23589  0  4.061771  0  -0.041628  0  -0.118432  -0.223339  0  4.021661  0
C  C94  1  0.62915626  0.09655242  0.93182193  1  0  -0.210324  0  3.788747  0  0  -0.228698  0  4.038238  0  0  -0.235991  0  4.061823  0  -0.041814  0  -0.118467  -0.223441  0  4.021713  0
C  C95  1  0.12915690  0.90344624  0.56817797  1  0  -0.210337  0  3.788712  0  0  -0.228664  0  4.038224  0  0  -0.235957  0  4.061811  0  -0.0416  0  -0.118459  -0.223407  0  4.0217  0
C  C96  1  0.35559710  0.00132869  0.12305869  1  0  -0.114587  0  3.754039  0  0  -0.135962  0  4.005673  0  0  -0.137757  0  4.028437  0  0.027438  0  -0.093321  -0.134544  0  3.99116  0
C  C97  1  0.85559929  0.99867430  0.37694090  1  0  -0.1146  0  3.754123  0  0  -0.135993  0  4.005773  0  0  -0.137789  0  4.028541  0  0.027483  0  -0.093331  -0.134575  0  3.991259  0
C  C98  1  0.64440303  0.99867213  0.87694130  1  0  -0.114563  0  3.754122  0  0  -0.135942  0  4.005781  0  0  -0.137738  0  4.028547  0  0.027433  0  -0.093334  -0.134523  0  3.991265  0
C  C99  1  0.14440367  0.00132761  0.62305864  1  0  -0.114582  0  3.754084  0  0  -0.135962  0  4.005724  0  0  -0.137759  0  4.028493  0  0.027454  0  -0.093337  -0.134543  0  3.99121  0
C  C100  1  0.42352676  0.69317027  0.96203603  1  0  -0.081257  0  3.625053  0  0  -0.180529  0  3.888777  0  0  -0.172798  0  3.893442  0  0.342039  0  -0.147476  -0.185478  0  3.88515  0
C  C101  1  0.92352612  0.30682947  0.53796440  1  0  -0.081211  0  3.625008  0  0  -0.180467  0  3.888719  0  0  -0.172737  0  3.893379  0  0.342056  0  -0.147452  -0.185413  0  3.885077  0
C  C102  1  0.57647337  0.30682947  0.03796440  1  0  -0.081202  0  3.625019  0  0  -0.180455  0  3.888734  0  0  -0.172723  0  3.893388  0  0.342059  0  -0.147461  -0.1854  0  3.885095  0
C  C103  1  0.07647260  0.69317136  0.46203559  1  0  -0.081122  0  3.625002  0  0  -0.180396  0  3.888726  0  0  -0.172664  0  3.893377  0  0.342045  0  -0.147427  -0.185339  0  3.885082  0
N  N104  1  0.29515805  0.27180226  0.34162530  1  0  -0.298795  0  3.27331  0  0  -0.213778  0  3.520793  0  0  -0.236251  0  3.545075  0  -1.209879  0  -0.294194  -0.198426  0  3.50395  0
N  N105  1  0.79515600  0.72819965  0.15837570  1  0  -0.298749  0  3.273273  0  0  -0.21375  0  3.520808  0  0  -0.236208  0  3.54505  0  -1.209882  0  -0.294171  -0.198399  0  3.503966  0
N  N106  1  0.70484208  0.72819857  0.65837469  1  0  -0.29875  0  3.273227  0  0  -0.213716  0  3.520709  0  0  -0.236182  0  3.544976  0  -1.209855  0  -0.294162  -0.198365  0  3.503867  0
N  N107  1  0.20484413  0.27180009  0.84162473  1  0  -0.298822  0  3.273315  0  0  -0.213814  0  3.520823  0  0  -0.236281  0  3.545091  0  -1.209879  0  -0.294203  -0.198462  0  3.503981  0
N  N108  1  0.31228913  0.05640118  0.23762045  1  0  -0.307514  0  3.23374  0  0  -0.243696  0  3.499411  0  0  -0.26129  0  3.518878  0  -1.225437  0  -0.299205  -0.232561  0  3.486688  0
N  N109  1  0.81228567  0.94359857  0.26237901  1  0  -0.307534  0  3.233866  0  0  -0.243729  0  3.499529  0  0  -0.261323  0  3.519002  0  -1.225473  0  -0.299224  -0.232594  0  3.486808  0
N  N110  1  0.68771241  0.94359748  0.76237945  1  0  -0.30747  0  3.233662  0  0  -0.243664  0  3.49934  0  0  -0.261256  0  3.518812  0  -1.22542  0  -0.299214  -0.23253  0  3.486617  0
N  N111  1  0.18771164  0.05640009  0.73762089  1  0  -0.307519  0  3.233811  0  0  -0.243703  0  3.499478  0  0  -0.261298  0  3.518945  0  -1.225382  0  -0.299207  -0.232567  0  3.486755  0
Cl  Cl112  1  0.04650733  0.30507919  0.13460565  1  0  -0.508486  0  0.942449  0  0  -0.45038  0  1.213079  0  0  -0.467185  0  1.194885  0  -0.55407  0  -0.274627  -0.435977  0  1.225874  0
Cl  Cl113  1  0.54650810  0.69492163  0.36539530  1  0  -0.508495  0  0.94246  0  0  -0.450393  0  1.213087  0  0  -0.4672  0  1.194891  0  -0.553865  0  -0.274631  -0.435993  0  1.225893  0
Cl  Cl114  1  0.95349139  0.69492055  0.86539478  1  0  -0.508483  0  0.942435  0  0  -0.450385  0  1.213077  0  0  -0.467191  0  1.194883  0  -0.554074  0  -0.274629  -0.435979  0  1.225872  0
Cl  Cl115  1  0.45349203  0.30507919  0.63460516  1  0  -0.508492  0  0.942447  0  0  -0.450389  0  1.213079  0  0  -0.467195  0  1.194882  0  -0.553965  0  -0.274626  -0.435982  0  1.225874  0
Cl  Cl116  1  0.55937760  0.42199985  0.20706638  1  0  -0.513996  0  1.033475  0  0  -0.455189  0  1.337613  0  0  -0.475798  0  1.317179  0  -0.563681  0  -0.275383  -0.441441  0  1.353175  0
Cl  Cl117  1  0.05937824  0.57800098  0.29293457  1  0  -0.513984  0  1.033447  0  0  -0.455191  0  1.337584  0  0  -0.475799  0  1.31715  0  -0.563688  0  -0.275387  -0.441443  0  1.353149  0
Cl  Cl118  1  0.44062253  0.57800098  0.79293457  1  0  -0.513992  0  1.033463  0  0  -0.455184  0  1.337594  0  0  -0.475796  0  1.31716  0  -0.563688  0  -0.275388  -0.441438  0  1.35316  0
Cl  Cl119  1  0.94062189  0.42199985  0.70706638  1  0  -0.514  0  1.033464  0  0  -0.455196  0  1.3376  0  0  -0.475809  0  1.317167  0  -0.563678  0  -0.275396  -0.44145  0  1.353165  0
O  O120  1  0.36542403  0.64986420  0.02394595  1  0  -0.24928  0  2.349876  0  0  -0.167324  0  2.583837  0  0  -0.188272  0  2.590185  0  -1.068123  0  -0.178632  -0.152015  0  2.578501  0
O  O121  1  0.86542480  0.35013663  0.47605404  1  0  -0.249308  0  2.349916  0  0  -0.16735  0  2.583869  0  0  -0.188301  0  2.590218  0  -1.068126  0  -0.178608  -0.152042  0  2.578535  0
O  O122  1  0.63457611  0.35013663  0.97605404  1  0  -0.249342  0  2.349906  0  0  -0.167433  0  2.583856  0  0  -0.188382  0  2.59021  0  -1.067975  0  -0.178685  -0.152124  0  2.578523  0
O  O123  1  0.13457392  0.64986420  0.52394547  1  0  -0.249384  0  2.349914  0  0  -0.16738  0  2.583863  0  0  -0.188329  0  2.590207  0  -1.067617  0  -0.178658  -0.152073  0  2.578528  0
