# generated using pymatgen
data_ZnH12C11O10
_symmetry_space_group_name_H-M   'P 1'
_cell_length_a   4.90737921
_cell_length_b   11.66357124
_cell_length_c   22.76170000
_cell_angle_alpha   90.00000000
_cell_angle_beta   90.00000000
_cell_angle_gamma   101.22820369
_symmetry_Int_Tables_number   1
_chemical_formula_structural   ZnH12C11O10
_chemical_formula_sum   'Zn4 H48 C44 O40'
_cell_volume   1277.88752245
_cell_formula_units_Z   4
loop_
 _symmetry_equiv_pos_site_id
 _symmetry_equiv_pos_as_xyz
  1  'x, y, z'
loop_
 _atom_site_type_symbol
 _atom_site_label
 _atom_site_symmetry_multiplicity
 _atom_site_fract_x
 _atom_site_fract_y
 _atom_site_fract_z
 _atom_site_occupancy
 _atom_site_hle17_bader_spin_density
 _atom_site_hle17_ddec_charge
 _atom_site_hle17_ddec_spin_density
 _atom_site_hle17_ddec_sum_bond_order
 _atom_site_hle17_magmom
 _atom_site_hse06_10hf_bader_spin_density
 _atom_site_hse06_10hf_ddec_charge
 _atom_site_hse06_10hf_ddec_spin_density
 _atom_site_hse06_10hf_ddec_sum_bond_order
 _atom_site_hse06_10hf_magmom
 _atom_site_hse06_bader_spin_density
 _atom_site_hse06_ddec_charge
 _atom_site_hse06_ddec_spin_density
 _atom_site_hse06_ddec_sum_bond_order
 _atom_site_hse06_magmom
 _atom_site_pbe_bader_charge
 _atom_site_pbe_bader_spin_density
 _atom_site_pbe_cm5_charge
 _atom_site_pbe_ddec_charge
 _atom_site_pbe_ddec_spin_density
 _atom_site_pbe_ddec_sum_bond_order
 _atom_site_pbe_magmom
Zn  Zn0  1  0.14933671  0.66860695  0.78906453  1  0  1.217909  0  1.628175  0  0  1.038697  0  2.094166  0  0  1.089288  0  2.028255  0  1.334333  0  0.698919  1.002764  0  2.139986  0
Zn  Zn1  1  0.35065800  0.83140042  0.28906584  1  0  1.218009  0  1.627935  0  0  1.038722  0  2.093983  0  0  1.089314  0  2.028072  0  1.334348  0  0.698932  1.002793  0  2.139808  0
Zn  Zn2  1  0.85067305  0.33139709  0.21093328  1  0  1.217911  0  1.628093  0  0  1.03872  0  2.094073  0  0  1.089304  0  2.028167  0  1.334338  0  0.698908  1.00279  0  2.139897  0
Zn  Zn3  1  0.64934404  0.16859575  0.71093679  1  0  1.217909  0  1.628118  0  0  1.038652  0  2.094089  0  0  1.089238  0  2.028178  0  1.33418  0  0.698881  1.002723  0  2.139912  0
H  H4  1  0.02994681  0.20614714  0.09704767  1  0  0.404555  0  0.862952  0  0  0.373717  0  0.940092  0  0  0.386286  0  0.926783  0  0.651816  0  0.308357  0.364834  0  0.94945  0
H  H5  1  0.47007582  0.29384920  0.59704196  1  0  0.404576  0  0.862892  0  0  0.373681  0  0.940142  0  0  0.386251  0  0.926823  0  0.651831  0  0.308352  0.3648  0  0.9495  0
H  H6  1  0.97007476  0.79386040  0.90295233  1  0  0.40457  0  0.862902  0  0  0.373717  0  0.940094  0  0  0.386293  0  0.926771  0  0.651847  0  0.308355  0.364835  0  0.949451  0
H  H7  1  0.52990014  0.70614785  0.40295540  1  0  0.404682  0  0.862733  0  0  0.373789  0  0.939979  0  0  0.386363  0  0.926654  0  0.651723  0  0.308363  0.364905  0  0.949341  0
H  H8  1  0.81385226  0.57667336  0.87140284  1  0  0.430402  0  0.87418  0  0  0.398611  0  0.93836  0  0  0.409969  0  0.921899  0  0.662302  0  0.291096  0.390603  0  0.949955  0
H  H9  1  0.68614058  0.92332964  0.37140328  1  0  0.430334  0  0.874276  0  0  0.398602  0  0.938361  0  0  0.40996  0  0.921901  0  0.661806  0  0.291107  0.390597  0  0.949951  0
H  H10  1  0.18615017  0.42332805  0.12859365  1  0  0.430368  0  0.874211  0  0  0.398529  0  0.938477  0  0  0.409886  0  0.922017  0  0.662203  0  0.29106  0.390522  0  0.950071  0
H  H11  1  0.31386512  0.07667003  0.62859672  1  0  0.430257  0  0.874376  0  0  0.39859  0  0.938365  0  0  0.409949  0  0.921903  0  0.661826  0  0.291082  0.390584  0  0.949957  0
H  H12  1  0.81773464  0.47504512  0.82155024  1  0  0.433091  0  0.872306  0  0  0.400726  0  0.937277  0  0  0.412598  0  0.920424  0  0.655078  0  0.290807  0.392371  0  0.949112  0
H  H13  1  0.68226327  0.02495471  0.32154980  1  0  0.433029  0  0.87239  0  0  0.400707  0  0.937302  0  0  0.412583  0  0.92044  0  0.655109  0  0.290821  0.392352  0  0.949137  0
H  H14  1  0.18228003  0.52495193  0.17844669  1  0  0.433118  0  0.872269  0  0  0.400733  0  0.937277  0  0  0.412607  0  0.920422  0  0.655186  0  0.290817  0.392377  0  0.949114  0
H  H15  1  0.31774078  0.97505020  0.67844889  1  0  0.433077  0  0.872382  0  0  0.400728  0  0.937328  0  0  0.412602  0  0.920472  0  0.655247  0  0.290835  0.392372  0  0.949165  0
H  H16  1  0.56616550  0.61751137  0.73319787  1  0  0.444978  0  0.853558  0  0  0.407997  0  0.925957  0  0  0.420035  0  0.908435  0  0.662193  0  0.29789  0.39947  0  0.938362  0
H  H17  1  0.93384567  0.88249600  0.23319568  1  0  0.444935  0  0.853619  0  0  0.407905  0  0.926066  0  0  0.41994  0  0.90855  0  0.661775  0  0.297878  0.399384  0  0.93846  0
H  H18  1  0.43383407  0.38249267  0.26680125  1  0  0.444971  0  0.853566  0  0  0.408013  0  0.925925  0  0  0.420046  0  0.908411  0  0.662217  0  0.297909  0.399489  0  0.938326  0
H  H19  1  0.06616289  0.11750105  0.76680476  1  0  0.444853  0  0.853741  0  0  0.40782  0  0.926187  0  0  0.419856  0  0.908668  0  0.662261  0  0.297846  0.399301  0  0.938574  0
H  H20  1  0.29715556  0.51129235  0.72356898  1  0  0.446604  0  0.844321  0  0  0.413029  0  0.910896  0  0  0.4247  0  0.894138  0  0.657176  0  0.299294  0.404738  0  0.922785  0
H  H21  1  0.20284734  0.98870628  0.22356546  1  0  0.446643  0  0.844279  0  0  0.413036  0  0.910895  0  0  0.424706  0  0.894142  0  0.657228  0  0.299326  0.404746  0  0.922785  0
H  H22  1  0.70283629  0.48870820  0.27642970  1  0  0.446583  0  0.84436  0  0  0.413003  0  0.910941  0  0  0.424672  0  0.894187  0  0.656801  0  0.299282  0.404713  0  0.92283  0
H  H23  1  0.79714860  0.01128989  0.77643585  1  0  0.446652  0  0.844259  0  0  0.413015  0  0.910918  0  0  0.424687  0  0.894161  0  0.657187  0  0.299334  0.404725  0  0.922807  0
H  H24  1  0.78933645  0.43736699  0.01686737  1  0  0.100635  0  0.972859  0  0  0.111388  0  1.03504  0  0  0.114378  0  1.03267  0  0.094246  0  0.105111  0.109249  0  1.036747  0
H  H25  1  0.71069042  0.06262935  0.51686913  1  0  0.100695  0  0.972805  0  0  0.11145  0  1.034957  0  0  0.114442  0  1.032587  0  0.094155  0  0.105121  0.109309  0  1.036663  0
H  H26  1  0.21069697  0.56263093  0.98312868  1  0  0.10068  0  0.972895  0  0  0.111456  0  1.035016  0  0  0.114448  0  1.032646  0  0.094108  0  0.105125  0.109314  0  1.036724  0
H  H27  1  0.28929088  0.93735721  0.48312648  1  0  0.100737  0  0.97284  0  0  0.111472  0  1.035015  0  0  0.114461  0  1.032646  0  0.094307  0  0.10512  0.109329  0  1.036721  0
H  H28  1  0.12007427  0.41917170  0.93593976  1  0  0.115194  0  0.971568  0  0  0.125135  0  1.034784  0  0  0.12862  0  1.032377  0  0.092346  0  0.108671  0.122672  0  1.036571  0
H  H29  1  0.37994794  0.08082813  0.43594415  1  0  0.115192  0  0.97166  0  0  0.125153  0  1.034849  0  0  0.128639  0  1.03244  0  0.092532  0  0.108663  0.12269  0  1.036636  0
H  H30  1  0.87994975  0.58083234  0.06405453  1  0  0.115081  0  0.971638  0  0  0.125064  0  1.034819  0  0  0.128551  0  1.032407  0  0.092606  0  0.108634  0.122597  0  1.036603  0
H  H31  1  0.62004557  0.91916280  0.56405058  1  0  0.115053  0  0.971702  0  0  0.125046  0  1.034888  0  0  0.128532  0  1.032478  0  0.092364  0  0.108588  0.122575  0  1.036668  0
H  H32  1  0.32053012  0.09554974  0.97754166  1  0  0.123523  0  0.94536  0  0  0.13342  0  1.006739  0  0  0.137079  0  1.003864  0  0.090487  0  0.110705  0.130764  0  1.008884  0
H  H33  1  0.17946030  0.40445184  0.47754078  1  0  0.123544  0  0.945452  0  0  0.133453  0  1.006816  0  0  0.137114  0  1.00394  0  0.090449  0  0.110712  0.130796  0  1.008961  0
H  H34  1  0.67949189  0.90444993  0.02245878  1  0  0.123522  0  0.94541  0  0  0.133373  0  1.006852  0  0  0.137034  0  1.003971  0  0.090309  0  0.110653  0.130717  0  1.008996  0
H  H35  1  0.82049528  0.59554521  0.52246273  1  0  0.123476  0  0.945328  0  0  0.133324  0  1.006766  0  0  0.136988  0  1.003883  0  0.090236  0  0.110663  0.130669  0  1.008911  0
H  H36  1  0.23229049  0.01700389  0.87837068  1  0  0.112556  0  0.909162  0  0  0.119052  0  0.974571  0  0  0.122082  0  0.971569  0  0.111004  0  0.116837  0.116869  0  0.976757  0
H  H37  1  0.26765910  0.48301955  0.37836937  1  0  0.112768  0  0.909234  0  0  0.119332  0  0.974565  0  0  0.122374  0  0.971573  0  0.11127  0  0.11691  0.117147  0  0.976754  0
H  H38  1  0.76770745  0.98300102  0.12162932  1  0  0.112584  0  0.909049  0  0  0.119139  0  0.97446  0  0  0.12218  0  0.971464  0  0.111124  0  0.116828  0.116955  0  0.976649  0
H  H39  1  0.73229973  0.51698012  0.62163415  1  0  0.112717  0  0.909138  0  0  0.119203  0  0.974571  0  0  0.122248  0  0.971576  0  0.111049  0  0.116844  0.117017  0  0.976759  0
H  H40  1  0.37732337  0.93530482  0.93253096  1  0  0.083386  0  0.9556  0  0  0.092807  0  1.024757  0  0  0.093398  0  1.024868  0  0.097004  0  0.10614  0.092344  0  1.024768  0
H  H41  1  0.12262895  0.56470342  0.43253184  1  0  0.083285  0  0.955636  0  0  0.092802  0  1.024752  0  0  0.09341  0  1.02485  0  0.096723  0  0.106164  0.092344  0  1.024758  0
H  H42  1  0.62269251  0.06469922  0.06746552  1  0  0.08335  0  0.955503  0  0  0.09281  0  1.024709  0  0  0.093402  0  1.024826  0  0.096967  0  0.106167  0.092349  0  1.024719  0
H  H43  1  0.87734662  0.43528838  0.56746948  1  0  0.083301  0  0.9556  0  0  0.092816  0  1.02469  0  0  0.093416  0  1.024799  0  0.096982  0  0.106148  0.092355  0  1.024698  0
H  H44  1  0.44047061  0.34772005  0.89027972  1  0  0.085988  0  0.963609  0  0  0.095133  0  1.032207  0  0  0.09446  0  1.034966  0  0.114192  0  0.10962  0.095599  0  1.030389  0
H  H45  1  0.05950926  0.15226754  0.39028280  1  0  0.086101  0  0.963553  0  0  0.095199  0  1.032159  0  0  0.094524  0  1.034917  0  0.114067  0  0.109661  0.095662  0  1.030369  0
H  H46  1  0.55956362  0.65227962  0.10971940  1  0  0.085995  0  0.963656  0  0  0.095124  0  1.032227  0  0  0.094451  0  1.035002  0  0.114312  0  0.109615  0.095593  0  1.030403  0
H  H47  1  0.94045817  0.84771989  0.60971456  1  0  0.085857  0  0.963525  0  0  0.094985  0  1.032124  0  0  0.094318  0  1.034901  0  0.114207  0  0.109544  0.095454  0  1.0303  0
H  H48  1  0.21875791  0.39960320  0.83873920  1  0  0.117118  0  0.926605  0  0  0.129197  0  0.984979  0  0  0.130963  0  0.983524  0  0.142072  0  0.120469  0.127918  0  0.986193  0
H  H49  1  0.28125656  0.10039751  0.33873964  1  0  0.117181  0  0.926578  0  0  0.129178  0  0.985017  0  0  0.130944  0  0.983566  0  0.142237  0  0.120455  0.1279  0  0.986228  0
H  H50  1  0.78127837  0.60039210  0.16126256  1  0  0.117208  0  0.926377  0  0  0.129229  0  0.984804  0  0  0.131  0  0.983353  0  0.142164  0  0.120498  0.127948  0  0.986024  0
H  H51  1  0.71873527  0.89960741  0.66125992  1  0  0.117218  0  0.926447  0  0  0.129208  0  0.984891  0  0  0.130978  0  0.983441  0  0.142232  0  0.120488  0.127928  0  0.986107  0
C  C52  1  0.34994329  0.28452953  0.05126067  1  0  0.660377  0  3.810659  0  0  0.606674  0  4.111767  0  0  0.640626  0  4.103549  0  1.4949  0  0.231615  0.583572  0  4.116915  0
C  C53  1  0.15008011  0.21547729  0.55125891  1  0  0.660193  0  3.810713  0  0  0.606593  0  4.111686  0  0  0.640538  0  4.10348  0  1.494848  0  0.231558  0.583493  0  4.116831  0
C  C54  1  0.65009091  0.71547888  0.94874109  1  0  0.660436  0  3.810507  0  0  0.60669  0  4.111656  0  0  0.640641  0  4.103444  0  1.49426  0  0.231658  0.58359  0  4.116804  0
C  C55  1  0.84990073  0.78452150  0.44874153  1  0  0.660231  0  3.810739  0  0  0.606494  0  4.111895  0  0  0.640447  0  4.10368  0  1.494529  0  0.231497  0.583396  0  4.11704  0
C  C56  1  0.53945530  0.26747932  0.00299494  1  0  -0.100956  0  3.83428  0  0  -0.083279  0  4.084862  0  0  -0.093048  0  4.108536  0  -0.02914  0  -0.037566  -0.076886  0  4.068817  0
C  C57  1  0.96054873  0.23252052  0.50299846  1  0  -0.100838  0  3.834265  0  0  -0.083156  0  4.084808  0  0  -0.092926  0  4.108491  0  -0.029147  0  -0.037498  -0.076762  0  4.068759  0
C  C58  1  0.46056995  0.73252297  0.99700769  1  0  -0.100973  0  3.834241  0  0  -0.083233  0  4.08477  0  0  -0.092998  0  4.108446  0  -0.029068  0  -0.037584  -0.076844  0  4.068724  0
C  C59  1  0.03941665  0.76747129  0.49700418  1  0  -0.100901  0  3.834089  0  0  -0.083172  0  4.084629  0  0  -0.092939  0  4.108303  0  -0.028843  0  -0.037549  -0.076783  0  4.068587  0
C  C60  1  0.76310783  0.35825822  0.99069446  1  0  -0.045291  0  3.751706  0  0  -0.076849  0  4.009721  0  0  -0.073083  0  4.027179  0  -0.01758  0  -0.089507  -0.079018  0  3.997626  0
C  C61  1  0.73689987  0.14174074  0.49069094  1  0  -0.045404  0  3.751895  0  0  -0.076978  0  4.009951  0  0  -0.073203  0  4.027388  0  -0.017642  0  -0.089544  -0.079147  0  3.997855  0
C  C62  1  0.23690969  0.64174058  0.00929983  1  0  -0.045397  0  3.751282  0  0  -0.077006  0  4.009346  0  0  -0.073247  0  4.026806  0  -0.017535  0  -0.089551  -0.079172  0  3.997252  0
C  C63  1  0.26306632  0.85825281  0.50930686  1  0  -0.045466  0  3.751564  0  0  -0.077038  0  4.009631  0  0  -0.073284  0  4.027114  0  -0.017827  0  -0.089506  -0.079202  0  3.997531  0
C  C64  1  0.94886152  0.34754261  0.94579755  1  0  -0.193386  0  3.779505  0  0  -0.216467  0  4.042878  0  0  -0.222466  0  4.062165  0  -0.045275  0  -0.109803  -0.212533  0  4.029914  0
C  C65  1  0.55114168  0.15245985  0.44579755  1  0  -0.19339  0  3.779852  0  0  -0.216457  0  4.043182  0  0  -0.222445  0  4.062486  0  -0.04506  0  -0.109778  -0.212522  0  4.030213  0
C  C66  1  0.05115188  0.65246930  0.05420421  1  0  -0.193125  0  3.779411  0  0  -0.21619  0  4.042796  0  0  -0.222169  0  4.062096  0  -0.045219  0  -0.10969  -0.21226  0  4.029814  0
C  C67  1  0.44883756  0.84753108  0.55420070  1  0  -0.193208  0  3.779781  0  0  -0.216264  0  4.043149  0  0  -0.222247  0  4.06244  0  -0.04502  0  -0.109654  -0.212319  0  4.030161  0
C  C68  1  0.91307232  0.24564864  0.91219724  1  0  0.200698  0  3.775321  0  0  0.181234  0  4.044124  0  0  0.192508  0  4.058848  0  0.499724  0  0.088252  0.173555  0  4.034204  0
C  C69  1  0.58691700  0.25436343  0.41220339  1  0  0.200675  0  3.775455  0  0  0.181217  0  4.044284  0  0  0.192423  0  4.059051  0  0.49956  0  0.088226  0.173545  0  4.034361  0
C  C70  1  0.08696108  0.75435365  0.08780056  1  0  0.200578  0  3.775746  0  0  0.181019  0  4.044738  0  0  0.192198  0  4.059517  0  0.499445  0  0.088218  0.173376  0  4.034781  0
C  C71  1  0.41304753  0.74563974  0.58780100  1  0  0.200855  0  3.775441  0  0  0.181208  0  4.044513  0  0  0.192429  0  4.059281  0  0.499742  0  0.08826  0.173544  0  4.034575  0
C  C72  1  0.68386065  0.15326664  0.92366871  1  0  0.170063  0  3.779098  0  0  0.15631  0  4.047997  0  0  0.162781  0  4.062926  0  0.549779  0  0.075967  0.151554  0  4.038168  0
C  C73  1  0.81614296  0.34673669  0.42366915  1  0  0.169992  0  3.779193  0  0  0.156285  0  4.048028  0  0  0.162762  0  4.06297  0  0.550083  0  0.075974  0.151497  0  4.038191  0
C  C74  1  0.31614992  0.84673915  0.07633349  1  0  0.170204  0  3.778961  0  0  0.156507  0  4.047841  0  0  0.162994  0  4.062783  0  0.549528  0  0.076043  0.151703  0  4.038003  0
C  C75  1  0.18383992  0.65326211  0.57633437  1  0  0.170075  0  3.779079  0  0  0.156364  0  4.04802  0  0  0.16285  0  4.062953  0  0.54892  0  0.075996  0.151581  0  4.038184  0
C  C76  1  0.50007071  0.16440356  0.96898606  1  0  -0.187088  0  3.74411  0  0  -0.224638  0  4.009221  0  0  -0.223949  0  4.026279  0  -0.03222  0  -0.105675  -0.224958  0  3.997794  0
C  C77  1  0.99992475  0.33559977  0.46898914  1  0  -0.187027  0  3.744093  0  0  -0.224642  0  4.009226  0  0  -0.223951  0  4.026277  0  -0.032177  0  -0.105619  -0.224966  0  3.997807  0
C  C78  1  0.49996148  0.83559611  0.03101306  1  0  -0.187069  0  3.743978  0  0  -0.224608  0  4.0091  0  0  -0.223918  0  4.02615  0  -0.031916  0  -0.105592  -0.224927  0  3.99768  0
C  C79  1  0.00003938  0.66439815  0.53101570  1  0  -0.187024  0  3.743918  0  0  -0.224549  0  4.009079  0  0  -0.22386  0  4.026132  0  -0.031863  0  -0.105684  -0.224875  0  3.997662  0
C  C80  1  0.41099601  0.97582903  0.88878379  1  0  -0.078434  0  3.629363  0  0  -0.133377  0  3.887991  0  0  -0.13065  0  3.88912  0  0.392595  0  -0.068201  -0.135187  0  3.887154  0
C  C81  1  0.08896893  0.52418447  0.38878379  1  0  -0.078809  0  3.62989  0  0  -0.133912  0  3.888436  0  0  -0.131231  0  3.889603  0  0.393092  0  -0.068456  -0.135752  0  3.887596  0
C  C82  1  0.58900841  0.02418550  0.11121753  1  0  -0.078478  0  3.629266  0  0  -0.13365  0  3.888085  0  0  -0.13096  0  3.889267  0  0.392492  0  -0.06827  -0.135495  0  3.887244  0
C  C83  1  0.91100744  0.47581346  0.61121885  1  0  -0.078653  0  3.62937  0  0  -0.133658  0  3.887958  0  0  -0.130977  0  3.889138  0  0.39283  0  -0.068292  -0.135485  0  3.887115  0
C  C84  1  0.42501452  0.88033959  0.84417201  1  0  0.692417  0  3.83805  0  0  0.634794  0  4.146647  0  0  0.66839  0  4.138647  0  1.577483  0  0.217869  0.611837  0  4.151501  0
C  C85  1  0.07495122  0.61967564  0.34417464  1  0  0.692517  0  3.838401  0  0  0.634814  0  4.147127  0  0  0.668413  0  4.139125  0  1.577735  0  0.217865  0.611851  0  4.151989  0
C  C86  1  0.57498953  0.11966532  0.15582711  1  0  0.692531  0  3.837992  0  0  0.634979  0  4.14654  0  0  0.668572  0  4.138542  0  1.577411  0  0.217945  0.612022  0  4.151399  0
C  C87  1  0.92505325  0.38032577  0.65583019  1  0  0.692708  0  3.838125  0  0  0.63491  0  4.146969  0  0  0.668504  0  4.138974  0  1.577491  0  0.217922  0.61195  0  4.151829  0
C  C88  1  0.30183203  0.32261674  0.85246972  1  0  -0.083801  0  3.612473  0  0  -0.137614  0  3.862627  0  0  -0.134851  0  3.865324  0  0.357191  0  -0.064112  -0.139571  0  3.860906  0
C  C89  1  0.19813844  0.17737697  0.35247016  1  0  -0.084035  0  3.612447  0  0  -0.137704  0  3.862438  0  0  -0.134985  0  3.865128  0  0.356881  0  -0.064037  -0.139667  0  3.860722  0
C  C90  1  0.69818672  0.67738030  0.14753028  1  0  -0.084011  0  3.612558  0  0  -0.13763  0  3.862579  0  0  -0.134942  0  3.865332  0  0.357073  0  -0.064109  -0.139586  0  3.860859  0
C  C91  1  0.80182244  0.82261833  0.64753160  1  0  -0.083823  0  3.612359  0  0  -0.137457  0  3.862398  0  0  -0.134746  0  3.865159  0  0.357003  0  -0.064031  -0.139415  0  3.86068  0
C  C92  1  0.47205165  0.28806615  0.80261492  1  0  0.696652  0  3.83535  0  0  0.637372  0  4.143346  0  0  0.671577  0  4.134601  0  1.591694  0  0.220594  0.614103  0  4.148647  0
C  C93  1  0.02794490  0.21193106  0.30261668  1  0  0.69673  0  3.835671  0  0  0.6376  0  4.143392  0  0  0.671818  0  4.134622  0  1.592308  0  0.220653  0.614326  0  4.148697  0
C  C94  1  0.52797689  0.71193003  0.19738464  1  0  0.696875  0  3.835924  0  0  0.637503  0  4.143977  0  0  0.6717  0  4.13525  0  1.592691  0  0.220577  0.614235  0  4.149274  0
C  C95  1  0.97204044  0.78806423  0.69738464  1  0  0.696653  0  3.835642  0  0  0.637228  0  4.143811  0  0  0.671431  0  4.13508  0  1.592165  0  0.2205  0.613957  0  4.149109  0
O  O96  1  0.15468478  0.19079180  0.06374656  1  0  -0.544906  0  2.105983  0  0  -0.490423  0  2.327151  0  0  -0.512574  0  2.314016  0  -1.164736  0  -0.328419  -0.475115  0  2.335896  0
O  O97  1  0.34534151  0.30920803  0.56374744  1  0  -0.544895  0  2.106036  0  0  -0.490443  0  2.327203  0  0  -0.51259  0  2.31407  0  -1.164928  0  -0.328495  -0.475136  0  2.335949  0
O  O98  1  0.84534495  0.80921136  0.93625388  1  0  -0.544984  0  2.106064  0  0  -0.490493  0  2.327239  0  0  -0.512648  0  2.314104  0  -1.16431  0  -0.328502  -0.475185  0  2.335982  0
O  O99  1  0.65463851  0.69079339  0.43625300  1  0  -0.544999  0  2.106043  0  0  -0.490494  0  2.327217  0  0  -0.512648  0  2.314079  0  -1.164593  0  -0.328458  -0.475188  0  2.335966  0
O  O100  1  0.93094045  0.54672579  0.84112171  1  0  -0.867392  0  1.916213  0  0  -0.793997  0  2.141422  0  0  -0.818846  0  2.10207  0  -1.289303  0  -0.582841  -0.77632  0  2.168502  0
O  O101  1  0.56904713  0.95327022  0.34111951  1  0  -0.867278  0  1.916429  0  0  -0.793945  0  2.141563  0  0  -0.818796  0  2.102212  0  -1.288836  0  -0.582848  -0.776265  0  2.168643  0
O  O102  1  0.06906648  0.45327214  0.15887785  1  0  -0.867358  0  1.916208  0  0  -0.793923  0  2.14141  0  0  -0.818778  0  2.10208  0  -1.289287  0  -0.582808  -0.776242  0  2.168492  0
O  O103  1  0.43094310  0.04672682  0.65888225  1  0  -0.867253  0  1.916543  0  0  -0.793908  0  2.141549  0  0  -0.818752  0  2.102187  0  -1.288906  0  -0.582809  -0.776234  0  2.168639  0
O  O104  1  0.37463826  0.37885728  0.07801790  1  0  -0.57013  0  1.969981  0  0  -0.514716  0  2.183194  0  0  -0.536092  0  2.173339  0  -1.174851  0  -0.287168  -0.500207  0  2.189835  0
O  O105  1  0.12539128  0.12114517  0.57801482  1  0  -0.570035  0  1.969794  0  0  -0.514731  0  2.182925  0  0  -0.536109  0  2.173076  0  -1.17472  0  -0.287151  -0.50022  0  2.189561  0
O  O106  1  0.62538004  0.62115200  0.92198078  1  0  -0.570214  0  1.969796  0  0  -0.514767  0  2.182973  0  0  -0.536147  0  2.173124  0  -1.174784  0  -0.287197  -0.500257  0  2.189615  0
O  O107  1  0.87458835  0.87885100  0.42198342  1  0  -0.570091  0  1.969836  0  0  -0.51468  0  2.182999  0  0  -0.536059  0  2.17315  0  -1.174778  0  -0.287114  -0.500169  0  2.189634  0
O  O108  1  0.39138852  0.57312451  0.75145178  1  0  -0.8566  0  1.906424  0  0  -0.78185  0  2.139726  0  0  -0.805954  0  2.097842  0  -1.261378  0  -0.571566  -0.76496  0  2.168933  0
O  O109  1  0.10862943  0.92688024  0.25145002  1  0  -0.856604  0  1.906474  0  0  -0.781721  0  2.139871  0  0  -0.805826  0  2.097994  0  -1.260933  0  -0.571551  -0.76483  0  2.169073  0
O  O110  1  0.60861228  0.42687778  0.24854910  1  0  -0.856545  0  1.906443  0  0  -0.781787  0  2.139696  0  0  -0.805886  0  2.097821  0  -1.260984  0  -0.571549  -0.764897  0  2.168902  0
O  O111  1  0.89137914  0.07311681  0.74855129  1  0  -0.856474  0  1.906444  0  0  -0.78162  0  2.139945  0  0  -0.805724  0  2.098066  0  -1.261297  0  -0.571547  -0.76473  0  2.169145  0
O  O112  1  0.08135171  0.22752153  0.86734954  1  0  -0.236448  0  2.400078  0  0  -0.168365  0  2.638213  0  0  -0.186655  0  2.643017  0  -1.073238  0  -0.165398  -0.155618  0  2.634681  0
O  O113  1  0.41862769  0.27248267  0.36735613  1  0  -0.2363  0  2.399735  0  0  -0.168368  0  2.637947  0  0  -0.186558  0  2.642711  0  -1.073155  0  -0.165449  -0.155631  0  2.634423  0
O  O114  1  0.91868496  0.77247901  0.13265222  1  0  -0.236421  0  2.399907  0  0  -0.16845  0  2.638136  0  0  -0.186603  0  2.6429  0  -1.073232  0  -0.165433  -0.155723  0  2.634608  0
O  O115  1  0.58134131  0.72752137  0.63265002  1  0  -0.23652  0  2.399946  0  0  -0.168452  0  2.638138  0  0  -0.186682  0  2.642943  0  -1.073162  0  -0.165457  -0.155718  0  2.63461  0
O  O116  1  0.38429572  0.19055754  0.77568635  1  0  -0.664763  0  2.0955  0  0  -0.581452  0  2.359157  0  0  -0.611814  0  2.342077  0  -1.172894  0  -0.307234  -0.560266  0  2.370342  0
O  O117  1  0.11568452  0.30943967  0.27568855  1  0  -0.664794  0  2.09546  0  0  -0.581606  0  2.359083  0  0  -0.611973  0  2.341994  0  -1.1728  0  -0.307297  -0.560412  0  2.370273  0
O  O118  1  0.61571652  0.80943426  0.22430926  1  0  -0.664843  0  2.095638  0  0  -0.581555  0  2.359355  0  0  -0.611904  0  2.342263  0  -1.173097  0  -0.307328  -0.560374  0  2.370552  0
O  O119  1  0.88430365  0.69056175  0.72431673  1  0  -0.664687  0  2.095546  0  0  -0.581322  0  2.359225  0  0  -0.611673  0  2.342132  0  -1.172927  0  -0.307118  -0.560122  0  2.370406  0
O  O120  1  0.69395437  0.35556249  0.78912647  1  0  -0.600428  0  1.997864  0  0  -0.546606  0  2.227761  0  0  -0.572578  0  2.218347  0  -1.17498  0  -0.295157  -0.528488  0  2.233683  0
O  O121  1  0.80605290  0.14444434  0.28912515  1  0  -0.600398  0  1.998007  0  0  -0.546639  0  2.227814  0  0  -0.57261  0  2.218377  0  -1.175656  0  -0.295169  -0.528531  0  2.233767  0
O  O122  1  0.30608518  0.64443106  0.21087133  1  0  -0.600547  0  1.998029  0  0  -0.546599  0  2.227845  0  0  -0.572585  0  2.218479  0  -1.175957  0  -0.295118  -0.528482  0  2.233771  0
O  O123  1  0.19393239  0.85556407  0.71086870  1  0  -0.600411  0  1.998089  0  0  -0.546523  0  2.227972  0  0  -0.572505  0  2.218594  0  -1.175513  0  -0.295143  -0.528411  0  2.233901  0
O  O124  1  0.66345547  0.05978939  0.88685511  1  0  -0.237745  0  2.394984  0  0  -0.171748  0  2.632781  0  0  -0.187788  0  2.635913  0  -1.062808  0  -0.174196  -0.160487  0  2.630349  0
O  O125  1  0.83652083  0.44021656  0.38685994  1  0  -0.237621  0  2.395078  0  0  -0.171563  0  2.632822  0  0  -0.187603  0  2.635976  0  -1.063058  0  -0.174087  -0.160222  0  2.63034  0
O  O126  1  0.33655145  0.94021290  0.11314137  1  0  -0.237809  0  2.395163  0  0  -0.171722  0  2.63297  0  0  -0.187761  0  2.636116  0  -1.062583  0  -0.174177  -0.160378  0  2.630494  0
O  O127  1  0.16346571  0.55978573  0.61314533  1  0  -0.237766  0  2.394998  0  0  -0.171711  0  2.632748  0  0  -0.187749  0  2.635896  0  -1.062291  0  -0.174147  -0.160398  0  2.630284  0
O  O128  1  0.21729987  0.79184734  0.84960174  1  0  -0.694974  0  2.08008  0  0  -0.60922  0  2.354009  0  0  -0.641916  0  2.3376  0  -1.164923  0  -0.319919  -0.586289  0  2.364648  0
O  O129  1  0.28265163  0.70816352  0.34960702  1  0  -0.695035  0  2.080398  0  0  -0.609082  0  2.354187  0  0  -0.641767  0  2.337779  0  -1.165318  0  -0.319784  -0.586152  0  2.364828  0
O  O130  1  0.78269928  0.20816019  0.15039386  1  0  -0.695091  0  2.080013  0  0  -0.609302  0  2.35383  0  0  -0.641976  0  2.337416  0  -1.165012  0  -0.319954  -0.586372  0  2.364471  0
O  O131  1  0.71734104  0.29183440  0.65039386  1  0  -0.695192  0  2.08012  0  0  -0.609189  0  2.353914  0  0  -0.641869  0  2.337502  0  -1.164782  0  -0.319873  -0.586259  0  2.364553  0
O  O132  1  0.61422044  0.88663400  0.80750471  1  0  -0.573829  0  1.961608  0  0  -0.524703  0  2.185964  0  0  -0.547481  0  2.175895  0  -1.16426  0  -0.291473  -0.508937  0  2.192545  0
O  O133  1  0.88574590  0.61337337  0.30749900  1  0  -0.573851  0  1.961414  0  0  -0.524819  0  2.185907  0  0  -0.547597  0  2.175832  0  -1.164516  0  -0.291554  -0.509051  0  2.192494  0
O  O134  1  0.38578320  0.11337004  0.19249441  1  0  -0.573787  0  1.961418  0  0  -0.524705  0  2.185753  0  0  -0.547482  0  2.175687  0  -1.16418  0  -0.291494  -0.50894  0  2.192337  0
O  O135  1  0.11424797  0.38663154  0.69250012  1  0  -0.573823  0  1.96168  0  0  -0.524754  0  2.186232  0  0  -0.547533  0  2.176159  0  -1.164713  0  -0.291503  -0.50899  0  2.19282  0
