# generated using pymatgen
data_AgH3C5(NO)3
_symmetry_space_group_name_H-M   'P 1'
_cell_length_a   6.71131519
_cell_length_b   9.77799082
_cell_length_c   19.81810151
_cell_angle_alpha   89.99994018
_cell_angle_beta   90.00002601
_cell_angle_gamma   97.80631775
_symmetry_Int_Tables_number   1
_chemical_formula_structural   AgH3C5(NO)3
_chemical_formula_sum   'Ag8 H24 C40 N24 O24'
_cell_volume   1288.47465816
_cell_formula_units_Z   8
loop_
 _symmetry_equiv_pos_site_id
 _symmetry_equiv_pos_as_xyz
  1  'x, y, z'
loop_
 _atom_site_type_symbol
 _atom_site_label
 _atom_site_symmetry_multiplicity
 _atom_site_fract_x
 _atom_site_fract_y
 _atom_site_fract_z
 _atom_site_occupancy
 _atom_site_hle17_bader_spin_density
 _atom_site_hle17_ddec_charge
 _atom_site_hle17_ddec_spin_density
 _atom_site_hle17_ddec_sum_bond_order
 _atom_site_hle17_magmom
 _atom_site_hse06_10hf_bader_spin_density
 _atom_site_hse06_10hf_ddec_charge
 _atom_site_hse06_10hf_ddec_spin_density
 _atom_site_hse06_10hf_ddec_sum_bond_order
 _atom_site_hse06_10hf_magmom
 _atom_site_hse06_bader_spin_density
 _atom_site_hse06_ddec_charge
 _atom_site_hse06_ddec_spin_density
 _atom_site_hse06_ddec_sum_bond_order
 _atom_site_hse06_magmom
 _atom_site_pbe_bader_spin_density
 _atom_site_pbe_cm5_charge
 _atom_site_pbe_ddec_charge
 _atom_site_pbe_ddec_spin_density
 _atom_site_pbe_ddec_sum_bond_order
 _atom_site_pbe_magmom
Ag  Ag0  1  0.24450402  0.36567953  0.67179034  1  0  0.608689  0  1.245512  0  0  0.471181  0  1.663891  0  0  0.500323  0  1.617166  0  0  0.455874  0.451275  0  1.696467  0
Ag  Ag1  1  0.75550326  0.13432271  0.17179146  1  0  0.608712  0  1.245525  0  0  0.471197  0  1.663933  0  0  0.500337  0  1.617209  0  0  0.455883  0.451293  0  1.696508  0
Ag  Ag2  1  0.75549779  0.63431400  0.32820596  1  0  0.608742  0  1.245441  0  0  0.471153  0  1.663854  0  0  0.500299  0  1.617129  0  0  0.455863  0.451254  0  1.696431  0
Ag  Ag3  1  0.24449701  0.86568729  0.82820737  1  0  0.608729  0  1.245449  0  0  0.471208  0  1.663812  0  0  0.500353  0  1.617084  0  0  0.455877  0.451305  0  1.696388  0
Ag  Ag4  1  0.28947923  0.23046943  0.30295837  1  0  0.642893  0  1.234225  0  0  0.51832  0  1.653681  0  0  0.545754  0  1.605902  0  0  0.469938  0.499105  0  1.687864  0
Ag  Ag5  1  0.71053714  0.26953251  0.80295785  1  0  0.642886  0  1.234339  0  0  0.51828  0  1.653854  0  0  0.545719  0  1.606067  0  0  0.46994  0.499065  0  1.68804  0
Ag  Ag6  1  0.71053358  0.76952729  0.69704147  1  0  0.642954  0  1.234243  0  0  0.518356  0  1.653728  0  0  0.545793  0  1.605944  0  0  0.469978  0.499142  0  1.687912  0
Ag  Ag7  1  0.28946559  0.73046618  0.19704250  1  0  0.642955  0  1.234238  0  0  0.518328  0  1.653733  0  0  0.545761  0  1.605962  0  0  0.46995  0.499118  0  1.687919  0
H  H8  1  0.30496721  0.09898385  0.56166430  1  0  0.104578  0  0.950432  0  0  0.111699  0  1.012273  0  0  0.114023  0  1.010615  0  0  0.125053  0.10977  0  1.013572  0
H  H9  1  0.69504780  0.40102085  0.06166583  1  0  0.104536  0  0.950408  0  0  0.111713  0  1.012182  0  0  0.114038  0  1.010521  0  0  0.125043  0.109784  0  1.013481  0
H  H10  1  0.69502321  0.90101266  0.43833150  1  0  0.104531  0  0.950426  0  0  0.111597  0  1.01232  0  0  0.113921  0  1.010667  0  0  0.12501  0.109669  0  1.013617  0
H  H11  1  0.30496612  0.59898207  0.93833603  1  0  0.104597  0  0.95045  0  0  0.111756  0  1.012241  0  0  0.114081  0  1.010582  0  0  0.125071  0.109827  0  1.013541  0
H  H12  1  0.32094064  0.06590642  0.43540246  1  0  0.10803  0  0.945298  0  0  0.112089  0  1.014984  0  0  0.115606  0  1.011016  0  0  0.124205  0.109269  0  1.018315  0
H  H13  1  0.67906575  0.43410535  0.93540441  1  0  0.108055  0  0.945385  0  0  0.112113  0  1.015064  0  0  0.115623  0  1.011098  0  0  0.124213  0.109294  0  1.018394  0
H  H14  1  0.67905164  0.93409217  0.56459334  1  0  0.10797  0  0.945416  0  0  0.112053  0  1.015074  0  0  0.11557  0  1.011104  0  0  0.124176  0.109234  0  1.018406  0
H  H15  1  0.32093510  0.56589950  0.06459694  1  0  0.108087  0  0.945371  0  0  0.112136  0  1.01504  0  0  0.115653  0  1.011073  0  0  0.124226  0.109317  0  1.018373  0
H  H16  1  0.28269201  0.49676319  0.34308730  1  0  0.116057  0  0.980634  0  0  0.122142  0  1.053835  0  0  0.126976  0  1.048428  0  0  0.105451  0.118397  0  1.058114  0
H  H17  1  0.71729396  0.00324349  0.84308837  1  0  0.116016  0  0.980674  0  0  0.122098  0  1.053872  0  0  0.126927  0  1.048472  0  0  0.105457  0.118354  0  1.058149  0
H  H18  1  0.71729838  0.50324156  0.65691406  1  0  0.116121  0  0.980651  0  0  0.1222  0  1.053815  0  0  0.127039  0  1.048404  0  0  0.105486  0.118454  0  1.05809  0
H  H19  1  0.28270968  0.99676036  0.15691450  1  0  0.116066  0  0.980583  0  0  0.12213  0  1.053803  0  0  0.12696  0  1.048401  0  0  0.105456  0.118385  0  1.058081  0
H  H20  1  0.24399402  0.72855724  0.39008318  1  0  0.131745  0  0.938817  0  0  0.136839  0  1.005056  0  0  0.140708  0  1.002195  0  0  0.114023  0.133968  0  1.00738  0
H  H21  1  0.75599319  0.77144276  0.89008519  1  0  0.131716  0  0.938859  0  0  0.136884  0  1.005007  0  0  0.140752  0  1.002149  0  0  0.113989  0.134013  0  1.007331  0
H  H22  1  0.75598334  0.27144120  0.60991464  1  0  0.131689  0  0.938962  0  0  0.136819  0  1.005175  0  0  0.140689  0  1.002312  0  0  0.113978  0.133948  0  1.007497  0
H  H23  1  0.24400786  0.22855489  0.10991667  1  0  0.131681  0  0.938951  0  0  0.13685  0  1.005112  0  0  0.140721  0  1.002248  0  0  0.113986  0.133978  0  1.007436  0
H  H24  1  0.17470662  0.69789847  0.68314657  1  0  0.104083  0  0.95989  0  0  0.107117  0  1.030194  0  0  0.110583  0  1.026586  0  0  0.119217  0.104452  0  1.032943  0
H  H25  1  0.82530202  0.80210647  0.18314866  1  0  0.104146  0  0.959754  0  0  0.107132  0  1.030121  0  0  0.110594  0  1.026511  0  0  0.119235  0.104466  0  1.032872  0
H  H26  1  0.82528849  0.30209088  0.31685478  1  0  0.10407  0  0.95984  0  0  0.107013  0  1.030269  0  0  0.110476  0  1.02666  0  0  0.119205  0.104346  0  1.03302  0
H  H27  1  0.17469919  0.19790045  0.81685421  1  0  0.104046  0  0.959868  0  0  0.107042  0  1.030218  0  0  0.110505  0  1.026608  0  0  0.119157  0.104377  0  1.032967  0
H  H28  1  0.15310638  0.89578007  0.60506742  1  0  0.093427  0  0.971681  0  0  0.098033  0  1.039938  0  0  0.101079  0  1.037334  0  0  0.1159  0.09544  0  1.042529  0
H  H29  1  0.84690870  0.60422825  0.10506956  1  0  0.093432  0  0.971624  0  0  0.098111  0  1.039811  0  0  0.101153  0  1.037211  0  0  0.115918  0.095517  0  1.042405  0
H  H30  1  0.84689692  0.10421347  0.39493595  1  0  0.09343  0  0.971661  0  0  0.098105  0  1.03985  0  0  0.101152  0  1.037246  0  0  0.1159  0.09551  0  1.04244  0
H  H31  1  0.15310241  0.39577568  0.89493582  1  0  0.093483  0  0.97167  0  0  0.098121  0  1.039898  0  0  0.101164  0  1.037297  0  0  0.115953  0.095527  0  1.042489  0
C  C32  1  0.26354974  0.41278162  0.51195364  1  0  0.088295  0  3.76144  0  0  0.086074  0  3.997842  0  0  0.087005  0  4.020998  0  0  0.115476  0.085312  0  3.982593  0
C  C33  1  0.73644673  0.08722820  0.01195426  1  0  0.088222  0  3.761492  0  0  0.085994  0  3.998061  0  0  0.086924  0  4.021217  0  0  0.115376  0.085232  0  3.982809  0
C  C34  1  0.73644571  0.58721803  0.48804721  1  0  0.088281  0  3.76139  0  0  0.085945  0  3.997988  0  0  0.086876  0  4.02114  0  0  0.115458  0.085183  0  3.982739  0
C  C35  1  0.26354964  0.91277661  0.98804760  1  0  0.088377  0  3.761228  0  0  0.086089  0  3.997733  0  0  0.087019  0  4.020885  0  0  0.115427  0.085327  0  3.982483  0
C  C36  1  0.29319078  0.18431200  0.52736383  1  0  0.112897  0  3.621734  0  0  0.084095  0  3.877751  0  0  0.088228  0  3.891193  0  0  0.069091  0.081226  0  3.869155  0
C  C37  1  0.70681244  0.31569372  0.02736337  1  0  0.112941  0  3.621632  0  0  0.084132  0  3.877588  0  0  0.088264  0  3.891028  0  0  0.069106  0.081263  0  3.868996  0
C  C38  1  0.70679779  0.81568244  0.47263551  1  0  0.112761  0  3.622033  0  0  0.084004  0  3.878028  0  0  0.088136  0  3.891474  0  0  0.069046  0.081137  0  3.869432  0
C  C39  1  0.29318953  0.68430908  0.97263546  1  0  0.112848  0  3.621698  0  0  0.084005  0  3.877688  0  0  0.088137  0  3.891131  0  0  0.069029  0.081138  0  3.869096  0
C  C40  1  0.30500753  0.16637780  0.45700896  1  0  0.105169  0  3.629326  0  0  0.071186  0  3.88747  0  0  0.076909  0  3.901755  0  0  0.064308  0.067311  0  3.878417  0
C  C41  1  0.69499218  0.33362972  0.95700741  1  0  0.105102  0  3.629478  0  0  0.07109  0  3.887637  0  0  0.07682  0  3.901918  0  0  0.06431  0.067213  0  3.878588  0
C  C42  1  0.69498381  0.83362387  0.54298886  1  0  0.105301  0  3.629551  0  0  0.071285  0  3.887699  0  0  0.077012  0  3.901983  0  0  0.064335  0.067404  0  3.878653  0
C  C43  1  0.30501165  0.66637517  0.04299294  1  0  0.105095  0  3.629395  0  0  0.071136  0  3.887524  0  0  0.076859  0  3.901814  0  0  0.064337  0.067258  0  3.878476  0
C  C44  1  0.27919971  0.39749366  0.44080404  1  0  0.16167  0  3.780279  0  0  0.159266  0  4.020096  0  0  0.163048  0  4.044492  0  0  0.109703  0.156824  0  4.003548  0
C  C45  1  0.72080260  0.10251187  0.94080458  1  0  0.161655  0  3.780049  0  0  0.159253  0  4.019864  0  0  0.163033  0  4.044265  0  0  0.109644  0.156811  0  4.003314  0
C  C46  1  0.72080040  0.60250707  0.55919580  1  0  0.161659  0  3.780087  0  0  0.15926  0  4.01993  0  0  0.163041  0  4.044328  0  0  0.10965  0.15682  0  4.00338  0
C  C47  1  0.27921168  0.89749311  0.05919677  1  0  0.161556  0  3.780183  0  0  0.159167  0  4.019992  0  0  0.162951  0  4.044387  0  0  0.109647  0.156726  0  4.003442  0
C  C48  1  0.27267461  0.51313225  0.39736343  1  0  -0.124471  0  3.706576  0  0  -0.151617  0  3.973038  0  0  -0.156024  0  3.992205  0  0  -0.084097  -0.148699  0  3.96047  0
C  C49  1  0.72731931  0.98687192  0.89736386  1  0  -0.124298  0  3.706712  0  0  -0.151419  0  3.973134  0  0  -0.155824  0  3.992304  0  0  -0.083991  -0.148502  0  3.960563  0
C  C50  1  0.72732176  0.48687257  0.60263893  1  0  -0.124503  0  3.706464  0  0  -0.151609  0  3.972941  0  0  -0.156025  0  3.992102  0  0  -0.084049  -0.148693  0  3.960373  0
C  C51  1  0.27269256  0.01312789  0.10263800  1  0  -0.124355  0  3.706585  0  0  -0.151458  0  3.973002  0  0  -0.155864  0  3.992173  0  0  -0.083976  -0.148543  0  3.960433  0
C  C52  1  0.24846012  0.63977419  0.42296980  1  0  -0.079038  0  3.651408  0  0  -0.105861  0  3.913482  0  0  -0.107558  0  3.931787  0  0  -0.069777  -0.104354  0  3.901246  0
C  C53  1  0.75152990  0.86023296  0.92297228  1  0  -0.079275  0  3.651775  0  0  -0.106142  0  3.913833  0  0  -0.107842  0  3.93214  0  0  -0.069838  -0.104634  0  3.901596  0
C  C54  1  0.75153104  0.36022645  0.57703155  1  0  -0.078996  0  3.651345  0  0  -0.105913  0  3.913489  0  0  -0.107606  0  3.93179  0  0  -0.069779  -0.104404  0  3.90125  0
C  C55  1  0.24847189  0.13976881  0.07702957  1  0  -0.079083  0  3.651561  0  0  -0.105971  0  3.913591  0  0  -0.107672  0  3.931898  0  0  -0.069781  -0.104461  0  3.901349  0
C  C56  1  0.22856259  0.65919595  0.49405935  1  0  0.152683  0  3.786666  0  0  0.15584  0  4.032982  0  0  0.158186  0  4.055655  0  0  0.109351  0.153652  0  4.018011  0
C  C57  1  0.77142638  0.84081304  0.99406033  1  0  0.152873  0  3.78624  0  0  0.156049  0  4.03265  0  0  0.158396  0  4.055322  0  0  0.109399  0.153862  0  4.017682  0
C  C58  1  0.77142875  0.34080573  0.50594251  1  0  0.152542  0  3.786824  0  0  0.155742  0  4.033125  0  0  0.158087  0  4.055798  0  0  0.109302  0.153556  0  4.018153  0
C  C59  1  0.22856813  0.15918969  0.00594052  1  0  0.152668  0  3.786832  0  0  0.15583  0  4.033155  0  0  0.158177  0  4.055825  0  0  0.109358  0.153642  0  4.018185  0
C  C60  1  0.23647707  0.54624576  0.53883762  1  0  0.084503  0  3.7644  0  0  0.07993  0  4.000683  0  0  0.081114  0  4.024715  0  0  0.110799  0.078866  0  3.984696  0
C  C61  1  0.76352061  0.95375744  0.03883864  1  0  0.084669  0  3.763947  0  0  0.07989  0  4.000553  0  0  0.081073  0  4.024587  0  0  0.110808  0.078826  0  3.984565  0
C  C62  1  0.76351801  0.45375183  0.46116272  1  0  0.084671  0  3.764166  0  0  0.080022  0  4.000602  0  0  0.081206  0  4.024634  0  0  0.110774  0.078956  0  3.984619  0
C  C63  1  0.23646887  0.04624216  0.96116271  1  0  0.084482  0  3.764241  0  0  0.079892  0  4.000618  0  0  0.081078  0  4.024649  0  0  0.110709  0.078827  0  3.984634  0
C  C64  1  0.18920406  0.68485581  0.62896530  1  0  0.098735  0  3.643513  0  0  0.064586  0  3.914525  0  0  0.070379  0  3.926058  0  0  0.05788  0.060225  0  3.90732  0
C  C65  1  0.81079838  0.81514819  0.12896738  1  0  0.098593  0  3.643325  0  0  0.064475  0  3.914344  0  0  0.070285  0  3.925857  0  0  0.057776  0.06011  0  3.907145  0
C  C66  1  0.81078655  0.31514173  0.37103807  1  0  0.098834  0  3.643754  0  0  0.064776  0  3.914722  0  0  0.07058  0  3.926247  0  0  0.057899  0.060414  0  3.907518  0
C  C67  1  0.18919519  0.18485762  0.87103599  1  0  0.098708  0  3.643393  0  0  0.064605  0  3.914445  0  0  0.07041  0  3.925964  0  0  0.05787  0.060244  0  3.90724  0
C  C68  1  0.18032039  0.79663636  0.58438887  1  0  0.0893  0  3.679805  0  0  0.060298  0  3.952475  0  0  0.063394  0  3.966531  0  0  0.055877  0.058336  0  3.943167  0
C  C69  1  0.81968331  0.70336676  0.08439098  1  0  0.089297  0  3.679711  0  0  0.060232  0  3.952369  0  0  0.063328  0  3.96642  0  0  0.055853  0.05827  0  3.943067  0
C  C70  1  0.81967506  0.20336329  0.41561299  1  0  0.089215  0  3.679744  0  0  0.060104  0  3.95248  0  0  0.063199  0  3.966519  0  0  0.055787  0.058142  0  3.943171  0
C  C71  1  0.18032278  0.29663403  0.91561239  1  0  0.089212  0  3.67986  0  0  0.06018  0  3.952544  0  0  0.063269  0  3.966606  0  0  0.055795  0.058219  0  3.943236  0
N  N72  1  0.27293779  0.30571278  0.55460759  1  0  -0.271677  0  3.217957  0  0  -0.215724  0  3.497063  0  0  -0.226482  0  3.509664  0  0  -0.297657  -0.208777  0  3.48927  0
N  N73  1  0.72705893  0.19428970  0.05460717  1  0  -0.271661  0  3.218286  0  0  -0.215721  0  3.49742  0  0  -0.226479  0  3.510023  0  0  -0.29766  -0.208774  0  3.489627  0
N  N74  1  0.72704964  0.69428370  0.44539124  1  0  -0.271561  0  3.218042  0  0  -0.215526  0  3.497109  0  0  -0.226284  0  3.509714  0  0  -0.297584  -0.208579  0  3.489317  0
N  N75  1  0.27293576  0.80571406  0.94539318  1  0  -0.271684  0  3.218059  0  0  -0.215689  0  3.497144  0  0  -0.226446  0  3.509746  0  0  -0.297612  -0.208741  0  3.489351  0
N  N76  1  0.29929951  0.27090854  0.41422381  1  0  -0.312375  0  3.270817  0  0  -0.242838  0  3.556429  0  0  -0.258942  0  3.572313  0  0  -0.316653  -0.232189  0  3.545844  0
N  N77  1  0.70069233  0.22909697  0.91422381  1  0  -0.312325  0  3.270737  0  0  -0.242745  0  3.556301  0  0  -0.258847  0  3.57218  0  0  -0.316586  -0.232093  0  3.545713  0
N  N78  1  0.70069966  0.72909527  0.58577552  1  0  -0.312349  0  3.270781  0  0  -0.242771  0  3.556356  0  0  -0.258875  0  3.572237  0  0  -0.316577  -0.232119  0  3.545772  0
N  N79  1  0.29931431  0.77090691  0.08577603  1  0  -0.312278  0  3.270819  0  0  -0.242743  0  3.556393  0  0  -0.258849  0  3.57228  0  0  -0.316615  -0.232091  0  3.545808  0
N  N80  1  0.21745101  0.56128552  0.60638899  1  0  -0.28585  0  3.264948  0  0  -0.225072  0  3.54746  0  0  -0.23804  0  3.561349  0  0  -0.311717  -0.215808  0  3.537902  0
N  N81  1  0.78255643  0.93872169  0.10639103  1  0  -0.285881  0  3.264752  0  0  -0.225001  0  3.547235  0  0  -0.237974  0  3.561124  0  0  -0.31168  -0.215735  0  3.537677  0
N  N82  1  0.78253942  0.43871099  0.39360984  1  0  -0.286026  0  3.265026  0  0  -0.225187  0  3.547483  0  0  -0.238159  0  3.56137  0  0  -0.311738  -0.215925  0  3.537931  0
N  N83  1  0.21743677  0.06128206  0.89361184  1  0  -0.285822  0  3.26469  0  0  -0.225063  0  3.547216  0  0  -0.238037  0  3.561105  0  0  -0.311672  -0.215798  0  3.537659  0
N  N84  1  0.20088667  0.78595671  0.51812622  1  0  -0.28494  0  2.985445  0  0  -0.257309  0  3.249243  0  0  -0.265418  0  3.26485  0  0  -0.2988  -0.251646  0  3.238388  0
N  N85  1  0.79910280  0.71404234  0.01812883  1  0  -0.284987  0  2.98508  0  0  -0.257343  0  3.24891  0  0  -0.265451  0  3.264516  0  0  -0.298741  -0.251679  0  3.238058  0
N  N86  1  0.79910205  0.21404700  0.48187766  1  0  -0.284814  0  2.98547  0  0  -0.257155  0  3.249276  0  0  -0.265263  0  3.264884  0  0  -0.298653  -0.251492  0  3.238419  0
N  N87  1  0.20089360  0.28595423  0.98187606  1  0  -0.284859  0  2.985476  0  0  -0.257216  0  3.24926  0  0  -0.265323  0  3.264868  0  0  -0.298739  -0.251554  0  3.238406  0
N  N88  1  0.45187801  0.52902549  0.79701524  1  0  0.686858  0  4.150201  0  0  0.713497  0  4.442186  0  0  0.740875  0  4.450902  0  0  0.090716  0.693406  0  4.435474  0
N  N89  1  0.54811584  0.97097073  0.29701119  1  0  0.686787  0  4.149704  0  0  0.713416  0  4.441739  0  0  0.740761  0  4.450448  0  0  0.090654  0.693326  0  4.435027  0
N  N90  1  0.54812436  0.47097114  0.20298560  1  0  0.686844  0  4.150205  0  0  0.713517  0  4.442143  0  0  0.740876  0  4.450858  0  0  0.090769  0.693425  0  4.435433  0
N  N91  1  0.45189024  0.02903006  0.70298714  1  0  0.686962  0  4.150203  0  0  0.713646  0  4.442095  0  0  0.741031  0  4.450806  0  0  0.090812  0.693556  0  4.435383  0
N  N92  1  0.94450030  0.09563776  0.70287565  1  0  0.69246  0  4.135663  0  0  0.715946  0  4.428564  0  0  0.745153  0  4.437291  0  0  0.094486  0.697902  0  4.421489  0
N  N93  1  0.05551414  0.40435416  0.20287154  1  0  0.692606  0  4.135808  0  0  0.716181  0  4.428589  0  0  0.745393  0  4.437305  0  0  0.094641  0.698124  0  4.421521  0
N  N94  1  0.05550039  0.90435782  0.29712116  1  0  0.692707  0  4.135565  0  0  0.716122  0  4.428499  0  0  0.745334  0  4.437213  0  0  0.094413  0.69809  0  4.421426  0
N  N95  1  0.94449346  0.59563840  0.79712628  1  0  0.692358  0  4.136159  0  0  0.715881  0  4.429008  0  0  0.745089  0  4.437733  0  0  0.094503  0.697851  0  4.421934  0
O  O96  1  0.41571231  0.40349931  0.77488852  1  0  -0.500681  0  1.933343  0  0  -0.455394  0  2.208901  0  0  -0.477908  0  2.1976  0  0  -0.207008  -0.438183  0  2.216391  0
O  O97  1  0.58428109  0.09649941  0.27488407  1  0  -0.500816  0  1.933363  0  0  -0.4555  0  2.208915  0  0  -0.477991  0  2.197601  0  0  -0.207044  -0.438291  0  2.216406  0
O  O98  1  0.58428241  0.59649621  0.22510930  1  0  -0.500777  0  1.933435  0  0  -0.455433  0  2.20897  0  0  -0.477932  0  2.197648  0  0  -0.207029  -0.438226  0  2.216466  0
O  O99  1  0.41571790  0.90350337  0.72510921  1  0  -0.500847  0  1.933484  0  0  -0.455535  0  2.209036  0  0  -0.478041  0  2.197707  0  0  -0.207061  -0.438327  0  2.21653  0
O  O100  1  0.41231406  0.62666223  0.75976191  1  0  -0.480214  0  1.873604  0  0  -0.464643  0  2.143328  0  0  -0.479142  0  2.130719  0  0  -0.192135  -0.453273  0  2.152013  0
O  O101  1  0.58768795  0.87333829  0.25975738  1  0  -0.480153  0  1.873458  0  0  -0.464549  0  2.143197  0  0  -0.479028  0  2.130579  0  0  -0.192101  -0.453178  0  2.151881  0
O  O102  1  0.58769278  0.37333444  0.24023641  1  0  -0.480194  0  1.87371  0  0  -0.464607  0  2.143369  0  0  -0.479096  0  2.130758  0  0  -0.192156  -0.453237  0  2.152053  0
O  O103  1  0.41233809  0.12666578  0.74024145  1  0  -0.480293  0  1.87381  0  0  -0.46472  0  2.143515  0  0  -0.479217  0  2.130896  0  0  -0.192177  -0.453351  0  2.152202  0
O  O104  1  0.52650948  0.55052101  0.85464841  1  0  -0.444597  0  1.781738  0  0  -0.434659  0  2.007235  0  0  -0.448692  0  2.001357  0  0  -0.174014  -0.423956  0  2.011464  0
O  O105  1  0.47347678  0.94947393  0.35464486  1  0  -0.444472  0  1.781466  0  0  -0.434556  0  2.006974  0  0  -0.448604  0  2.001126  0  0  -0.173939  -0.42386  0  2.011215  0
O  O106  1  0.47349102  0.44947354  0.14535092  1  0  -0.44456  0  1.781591  0  0  -0.434655  0  2.00709  0  0  -0.448693  0  2.001225  0  0  -0.174017  -0.42395  0  2.011321  0
O  O107  1  0.52652035  0.05052676  0.64535094  1  0  -0.444525  0  1.781525  0  0  -0.43464  0  2.007007  0  0  -0.448692  0  2.001143  0  0  -0.174016  -0.423942  0  2.011244  0
O  O108  1  0.94785613  0.22463346  0.71958762  1  0  -0.506117  0  1.921055  0  0  -0.458595  0  2.198638  0  0  -0.482027  0  2.18569  0  0  -0.210936  -0.443042  0  2.207524  0
O  O109  1  0.05218593  0.27536280  0.21957649  1  0  -0.506072  0  1.920829  0  0  -0.458657  0  2.198487  0  0  -0.482096  0  2.185543  0  0  -0.210983  -0.4431  0  2.207375  0
O  O110  1  0.05214995  0.77536733  0.28041171  1  0  -0.506242  0  1.921166  0  0  -0.458668  0  2.198718  0  0  -0.482108  0  2.185769  0  0  -0.210909  -0.443122  0  2.207609  0
O  O111  1  0.94784687  0.72462897  0.78041477  1  0  -0.506089  0  1.921218  0  0  -0.458557  0  2.198751  0  0  -0.48199  0  2.185803  0  0  -0.210904  -0.443011  0  2.207638  0
O  O112  1  0.85671246  0.00482060  0.74204691  1  0  -0.464912  0  1.869751  0  0  -0.439735  0  2.121833  0  0  -0.457661  0  2.112357  0  0  -0.180998  -0.42791  0  2.128276  0
O  O113  1  0.14328373  0.49516896  0.24204582  1  0  -0.464989  0  1.869944  0  0  -0.43984  0  2.12202  0  0  -0.457773  0  2.112546  0  0  -0.180989  -0.428009  0  2.128465  0
O  O114  1  0.14328393  0.99517597  0.25794990  1  0  -0.465002  0  1.86973  0  0  -0.439733  0  2.121692  0  0  -0.457649  0  2.112204  0  0  -0.180932  -0.427913  0  2.128135  0
O  O115  1  0.85671156  0.50482141  0.75795603  1  0  -0.464864  0  1.869895  0  0  -0.439716  0  2.121997  0  0  -0.457648  0  2.112526  0  0  -0.180996  -0.427896  0  2.12844  0
O  O116  1  0.02757245  0.06652524  0.64956827  1  0  -0.427208  0  1.795928  0  0  -0.416667  0  2.02185  0  0  -0.431422  0  2.016206  0  0  -0.163559  -0.406873  0  2.025941  0
O  O117  1  0.97243856  0.43347299  0.14956528  1  0  -0.427301  0  1.796031  0  0  -0.416831  0  2.022  0  0  -0.431586  0  2.016348  0  0  -0.163698  -0.407033  0  2.0261  0
O  O118  1  0.97242729  0.93347342  0.35042754  1  0  -0.427319  0  1.795901  0  0  -0.416767  0  2.021843  0  0  -0.431526  0  2.016195  0  0  -0.163585  -0.40698  0  2.025939  0
O  O119  1  0.02756454  0.56652777  0.85043304  1  0  -0.427198  0  1.796144  0  0  -0.416703  0  2.022113  0  0  -0.431457  0  2.016466  0  0  -0.163627  -0.406916  0  2.026211  0
