# generated using pymatgen
data_BiH10C6NO8
_symmetry_space_group_name_H-M   'P 1'
_cell_length_a   6.27982654
_cell_length_b   8.21966144
_cell_length_c   20.76212102
_cell_angle_alpha   90.00042405
_cell_angle_beta   89.99843061
_cell_angle_gamma   102.93067706
_symmetry_Int_Tables_number   1
_chemical_formula_structural   BiH10C6NO8
_chemical_formula_sum   'Bi4 H40 C24 N4 O32'
_cell_volume   1044.52347697
_cell_formula_units_Z   4
loop_
 _symmetry_equiv_pos_site_id
 _symmetry_equiv_pos_as_xyz
  1  'x, y, z'
loop_
 _atom_site_type_symbol
 _atom_site_label
 _atom_site_symmetry_multiplicity
 _atom_site_fract_x
 _atom_site_fract_y
 _atom_site_fract_z
 _atom_site_occupancy
 _atom_site_hle17_bader_spin_density
 _atom_site_hle17_ddec_charge
 _atom_site_hle17_ddec_spin_density
 _atom_site_hle17_ddec_sum_bond_order
 _atom_site_hle17_magmom
 _atom_site_hse06_10hf_bader_spin_density
 _atom_site_hse06_10hf_ddec_charge
 _atom_site_hse06_10hf_ddec_spin_density
 _atom_site_hse06_10hf_ddec_sum_bond_order
 _atom_site_hse06_10hf_magmom
 _atom_site_hse06_bader_spin_density
 _atom_site_hse06_ddec_charge
 _atom_site_hse06_ddec_spin_density
 _atom_site_hse06_ddec_sum_bond_order
 _atom_site_hse06_magmom
 _atom_site_pbe_bader_spin_density
 _atom_site_pbe_cm5_charge
 _atom_site_pbe_ddec_charge
 _atom_site_pbe_ddec_spin_density
 _atom_site_pbe_ddec_sum_bond_order
 _atom_site_pbe_magmom
Bi  Bi0  1  0.91089679  0.57142390  0.90528318  1  0  1.732275  0  2.086155  0  0  1.528143  0  2.54317  0  0  1.605736  0  2.488964  0  0  0.893079  1.473606  0  2.58034  0
Bi  Bi1  1  0.58909770  0.92858132  0.40527882  1  0  1.732202  0  2.08627  0  0  1.528036  0  2.543292  0  0  1.605629  0  2.489086  0  0  0.893023  1.47349  0  2.580481  0
Bi  Bi2  1  0.08910643  0.42858270  0.09471555  1  0  1.732282  0  2.086249  0  0  1.528122  0  2.543277  0  0  1.605713  0  2.489072  0  0  0.893028  1.473569  0  2.580456  0
Bi  Bi3  1  0.41089821  0.07141653  0.59472183  1  0  1.732191  0  2.086258  0  0  1.528028  0  2.543278  0  0  1.605618  0  2.489075  0  0  0.893002  1.473489  0  2.580441  0
H  H4  1  0.20175601  0.88351498  0.85185613  1  0  0.436543  0  0.862735  0  0  0.402558  0  0.930596  0  0  0.414534  0  0.913387  0  0  0.294401  0.394141  0  0.942659  0
H  H5  1  0.29824372  0.61647823  0.35185054  1  0  0.43643  0  0.862895  0  0  0.402429  0  0.930785  0  0  0.414404  0  0.913577  0  0  0.294324  0.39401  0  0.942854  0
H  H6  1  0.79824931  0.11648787  0.14814356  1  0  0.436531  0  0.862764  0  0  0.402551  0  0.930617  0  0  0.414529  0  0.913406  0  0  0.294391  0.394135  0  0.942681  0
H  H7  1  0.70175146  0.38351713  0.64815060  1  0  0.436458  0  0.862865  0  0  0.402474  0  0.930727  0  0  0.414451  0  0.913514  0  0  0.294334  0.394054  0  0.942796  0
H  H8  1  0.15524039  0.90010323  0.92805521  1  0  0.413169  0  0.898954  0  0  0.377455  0  0.969988  0  0  0.389831  0  0.952351  0  0  0.289725  0.368778  0  0.982323  0
H  H9  1  0.34475841  0.59989396  0.42804870  1  0  0.413181  0  0.898969  0  0  0.377445  0  0.970039  0  0  0.389822  0  0.952401  0  0  0.289687  0.368769  0  0.982374  0
H  H10  1  0.84475660  0.09989836  0.07194448  1  0  0.413213  0  0.898887  0  0  0.377466  0  0.96998  0  0  0.389843  0  0.952342  0  0  0.289708  0.368789  0  0.982317  0
H  H11  1  0.65524032  0.40010264  0.57195340  1  0  0.413169  0  0.898989  0  0  0.377435  0  0.970059  0  0  0.389809  0  0.952424  0  0  0.289696  0.368759  0  0.982393  0
H  H12  1  0.50369598  0.69774582  0.93920116  1  0  0.423702  0  0.875386  0  0  0.389654  0  0.943863  0  0  0.40145  0  0.92639  0  0  0.288792  0.381312  0  0.956204  0
H  H13  1  0.99628302  0.80224949  0.43919785  1  0  0.423643  0  0.87547  0  0  0.389593  0  0.943952  0  0  0.401394  0  0.926473  0  0  0.288742  0.381254  0  0.956288  0
H  H14  1  0.49630688  0.30225952  0.06079757  1  0  0.423755  0  0.875312  0  0  0.389719  0  0.943765  0  0  0.401515  0  0.926293  0  0  0.288824  0.381382  0  0.9561  0
H  H15  1  0.00371868  0.19774088  0.56079800  1  0  0.423622  0  0.875512  0  0  0.389591  0  0.943959  0  0  0.401386  0  0.926489  0  0  0.288766  0.381246  0  0.956306  0
H  H16  1  0.67829078  0.85148879  0.97090118  1  0  0.429699  0  0.869458  0  0  0.3943  0  0.939508  0  0  0.405959  0  0.922727  0  0  0.285354  0.386089  0  0.951282  0
H  H17  1  0.82168895  0.64850787  0.47090079  1  0  0.429759  0  0.869401  0  0  0.394379  0  0.939424  0  0  0.406038  0  0.922644  0  0  0.285371  0.386168  0  0.951203  0
H  H18  1  0.32170926  0.14851780  0.02909851  1  0  0.429725  0  0.869433  0  0  0.394334  0  0.939479  0  0  0.405994  0  0.922698  0  0  0.285356  0.386123  0  0.951258  0
H  H19  1  0.17831420  0.35148749  0.52909698  1  0  0.429711  0  0.86943  0  0  0.394323  0  0.939469  0  0  0.405983  0  0.922688  0  0  0.285355  0.386112  0  0.951248  0
H  H20  1  0.95180200  0.21785514  0.75525157  1  0  0.111567  0  0.902859  0  0  0.125642  0  0.957306  0  0  0.128426  0  0.955223  0  0  0.113558  0.123608  0  0.958942  0
H  H21  1  0.54821783  0.28216644  0.25525674  1  0  0.111579  0  0.902812  0  0  0.125619  0  0.957358  0  0  0.128379  0  0.955296  0  0  0.113623  0.123584  0  0.958992  0
H  H22  1  0.04820014  0.78214771  0.24474861  1  0  0.111569  0  0.902842  0  0  0.125642  0  0.95729  0  0  0.12842  0  0.955213  0  0  0.113543  0.123603  0  0.958928  0
H  H23  1  0.45178641  0.71783267  0.74474536  1  0  0.111535  0  0.902825  0  0  0.125555  0  0.95738  0  0  0.128336  0  0.955299  0  0  0.113586  0.123522  0  0.95902  0
H  H24  1  0.69460341  0.24067057  0.78382345  1  0  0.131624  0  0.944441  0  0  0.138595  0  1.013274  0  0  0.142185  0  1.010509  0  0  0.122108  0.13595  0  1.01549  0
H  H25  1  0.80539974  0.25932986  0.28382642  1  0  0.131663  0  0.944499  0  0  0.138696  0  1.013275  0  0  0.142285  0  1.010503  0  0  0.122135  0.13605  0  1.015491  0
H  H26  1  0.30539518  0.75933103  0.21617528  1  0  0.131658  0  0.944564  0  0  0.138611  0  1.0134  0  0  0.142199  0  1.010636  0  0  0.122107  0.135963  0  1.015611  0
H  H27  1  0.19460094  0.74066799  0.71617520  1  0  0.131631  0  0.944544  0  0  0.138637  0  1.013338  0  0  0.142227  0  1.010572  0  0  0.122113  0.135995  0  1.015548  0
H  H28  1  0.62846852  0.15156178  0.87817667  1  0  0.134783  0  0.934895  0  0  0.14385  0  0.997519  0  0  0.147364  0  0.994915  0  0  0.121939  0.141358  0  0.999448  0
H  H29  1  0.87152072  0.34843643  0.37817743  1  0  0.134781  0  0.934822  0  0  0.143855  0  0.997444  0  0  0.147365  0  0.994846  0  0  0.121955  0.14136  0  0.999374  0
H  H30  1  0.37153007  0.84843982  0.12182350  1  0  0.134785  0  0.934909  0  0  0.143873  0  0.997503  0  0  0.147386  0  0.994897  0  0  0.121956  0.141378  0  0.99943  0
H  H31  1  0.12848120  0.65156018  0.62182371  1  0  0.134778  0  0.934895  0  0  0.14388  0  0.997486  0  0  0.147389  0  0.994887  0  0  0.121933  0.141379  0  0.999414  0
H  H32  1  0.83133265  0.03167899  0.87812315  1  0  0.118291  0  0.933222  0  0  0.129228  0  0.99438  0  0  0.132544  0  0.991503  0  0  0.112498  0.126782  0  0.996599  0
H  H33  1  0.66865732  0.46832172  0.37812740  1  0  0.118294  0  0.933214  0  0  0.129214  0  0.994385  0  0  0.132532  0  0.991504  0  0  0.11253  0.126768  0  0.996603  0
H  H34  1  0.16866790  0.96832386  0.12187799  1  0  0.118292  0  0.933145  0  0  0.129229  0  0.99431  0  0  0.132544  0  0.991433  0  0  0.112506  0.126785  0  0.996529  0
H  H35  1  0.33134018  0.53167613  0.62187423  1  0  0.118264  0  0.933225  0  0  0.1292  0  0.994388  0  0  0.132516  0  0.991505  0  0  0.112522  0.126748  0  0.996616  0
H  H36  1  0.18766898  0.19418205  0.90025050  1  0  0.124913  0  0.911904  0  0  0.142716  0  0.965079  0  0  0.144877  0  0.964095  0  0  0.126849  0.141118  0  0.965896  0
H  H37  1  0.31231226  0.30580936  0.40025788  1  0  0.125014  0  0.91181  0  0  0.142819  0  0.964962  0  0  0.144987  0  0.963979  0  0  0.126877  0.141221  0  0.965778  0
H  H38  1  0.81233193  0.80582205  0.09974968  1  0  0.124916  0  0.911876  0  0  0.142728  0  0.965046  0  0  0.14489  0  0.964062  0  0  0.126851  0.141127  0  0.965866  0
H  H39  1  0.68768452  0.69418599  0.59974230  1  0  0.124998  0  0.911792  0  0  0.142807  0  0.964958  0  0  0.144976  0  0.963975  0  0  0.126871  0.141211  0  0.965771  0
H  H40  1  0.22551434  0.21627898  0.81689184  1  0  0.124385  0  0.9266  0  0  0.132085  0  0.992185  0  0  0.135852  0  0.988959  0  0  0.116445  0.129336  0  0.99466  0
H  H41  1  0.27448737  0.28372967  0.31689850  1  0  0.124463  0  0.926687  0  0  0.132194  0  0.992196  0  0  0.135968  0  0.988973  0  0  0.116477  0.129444  0  0.99467  0
H  H42  1  0.77448548  0.78372137  0.18310834  1  0  0.124385  0  0.926603  0  0  0.13205  0  0.99223  0  0  0.135819  0  0.989006  0  0  0.116426  0.129299  0  0.994709  0
H  H43  1  0.72551259  0.71626569  0.68310215  1  0  0.124414  0  0.92667  0  0  0.132109  0  0.992237  0  0  0.13588  0  0.989022  0  0  0.116445  0.129358  0  0.994716  0
C  C44  1  0.90398166  0.46788331  0.75742533  1  0  0.692106  0  3.836847  0  0  0.63831  0  4.147641  0  0  0.672632  0  4.139742  0  0  0.218951  0.615014  0  4.152254  0
C  C45  1  0.59600872  0.03213074  0.25742021  1  0  0.692129  0  3.836777  0  0  0.638198  0  4.147803  0  0  0.672522  0  4.139899  0  0  0.218825  0.61491  0  4.152416  0
C  C46  1  0.09602366  0.53211954  0.24258062  1  0  0.692216  0  3.836586  0  0  0.638231  0  4.147654  0  0  0.672547  0  4.139758  0  0  0.218775  0.614941  0  4.152267  0
C  C47  1  0.40398915  0.96786836  0.74258575  1  0  0.692165  0  3.836715  0  0  0.638082  0  4.147979  0  0  0.672402  0  4.140083  0  0  0.218762  0.614798  0  4.152592  0
C  C48  1  0.87109054  0.29393969  0.78659901  1  0  -0.19521  0  3.634261  0  0  -0.247677  0  3.885491  0  0  -0.249758  0  3.892526  0  0  -0.071496  -0.246364  0  3.880866  0
C  C49  1  0.62891672  0.20607573  0.28660087  1  0  -0.195287  0  3.63425  0  0  -0.247869  0  3.88575  0  0  -0.249912  0  3.892731  0  0  -0.071677  -0.246565  0  3.881143  0
C  C50  1  0.12891319  0.70606316  0.21339972  1  0  -0.19535  0  3.634343  0  0  -0.247796  0  3.885584  0  0  -0.249867  0  3.892616  0  0  -0.071515  -0.246482  0  3.880949  0
C  C51  1  0.37108469  0.79392463  0.71340027  1  0  -0.195203  0  3.634153  0  0  -0.24766  0  3.885565  0  0  -0.249729  0  3.89258  0  0  -0.071578  -0.246353  0  3.880955  0
C  C52  1  0.82473394  0.17962791  0.96274674  1  0  0.710098  0  3.811065  0  0  0.650881  0  4.123392  0  0  0.686117  0  4.115377  0  0  0.225403  0.627003  0  4.127949  0
C  C53  1  0.67525478  0.32036182  0.46274856  1  0  0.710083  0  3.8107  0  0  0.650953  0  4.122928  0  0  0.686186  0  4.114914  0  0  0.225454  0.627086  0  4.127475  0
C  C54  1  0.17526233  0.82037119  0.03725440  1  0  0.710022  0  3.811003  0  0  0.650824  0  4.123328  0  0  0.686062  0  4.115315  0  0  0.225425  0.626955  0  4.127876  0
C  C55  1  0.32474410  0.67962979  0.53725210  1  0  0.70999  0  3.811217  0  0  0.650885  0  4.123406  0  0  0.68612  0  4.115394  0  0  0.225426  0.627006  0  4.127963  0
C  C56  1  0.79905641  0.15408074  0.89056198  1  0  -0.209358  0  3.646177  0  0  -0.264939  0  3.9007  0  0  -0.267338  0  3.9068  0  0  -0.07632  -0.263419  0  3.896596  0
C  C57  1  0.70093013  0.34591750  0.39056367  1  0  -0.209225  0  3.64609  0  0  -0.264797  0  3.900535  0  0  -0.267199  0  3.906648  0  0  -0.076267  -0.263279  0  3.896428  0
C  C58  1  0.20094254  0.84592210  0.10943819  1  0  -0.209251  0  3.646117  0  0  -0.264876  0  3.900614  0  0  -0.267272  0  3.906709  0  0  -0.076295  -0.26336  0  3.896508  0
C  C59  1  0.29906824  0.65407786  0.60943699  1  0  -0.209168  0  3.646156  0  0  -0.264787  0  3.900598  0  0  -0.267183  0  3.906696  0  0  -0.07625  -0.263259  0  3.896486  0
C  C60  1  0.34232278  0.43553114  0.87364552  1  0  0.717834  0  3.815441  0  0  0.65952  0  4.127013  0  0  0.695891  0  4.117389  0  0  0.229728  0.634777  0  4.132824  0
C  C61  1  0.15766192  0.06446394  0.37364383  1  0  0.718035  0  3.815198  0  0  0.659624  0  4.126928  0  0  0.695999  0  4.117305  0  0  0.229695  0.634872  0  4.132765  0
C  C62  1  0.65767212  0.56447419  0.12635418  1  0  0.717847  0  3.815251  0  0  0.659529  0  4.126822  0  0  0.695902  0  4.117195  0  0  0.229615  0.634781  0  4.132646  0
C  C63  1  0.84234123  0.93553143  0.62635635  1  0  0.717917  0  3.815336  0  0  0.659548  0  4.127011  0  0  0.695919  0  4.117391  0  0  0.229634  0.634802  0  4.132838  0
C  C64  1  0.17263102  0.27635700  0.85952749  1  0  -0.198505  0  3.621251  0  0  -0.251389  0  3.871973  0  0  -0.254119  0  3.879168  0  0  -0.070061  -0.24945  0  3.866955  0
C  C65  1  0.32735921  0.22364179  0.35953016  1  0  -0.198846  0  3.621293  0  0  -0.251678  0  3.871907  0  0  -0.254425  0  3.879114  0  0  -0.070131  -0.249749  0  3.866909  0
C  C66  1  0.82736793  0.72364585  0.14047414  1  0  -0.198522  0  3.621209  0  0  -0.251427  0  3.871905  0  0  -0.254163  0  3.879106  0  0  -0.070062  -0.249487  0  3.866896  0
C  C67  1  0.67263953  0.77635482  0.64047146  1  0  -0.198673  0  3.621159  0  0  -0.251533  0  3.871831  0  0  -0.254279  0  3.879037  0  0  -0.070068  -0.249607  0  3.866838  0
N  N68  1  0.94250761  0.29004381  0.85411204  1  0  -0.153339  0  3.281314  0  0  -0.065782  0  3.51025  0  0  -0.082583  0  3.536298  0  0  -0.311235  -0.054096  0  3.492007  0
N  N69  1  0.55749160  0.20995932  0.35411499  1  0  -0.153307  0  3.281325  0  0  -0.06568  0  3.510136  0  0  -0.082474  0  3.536178  0  0  -0.311168  -0.053998  0  3.49191  0
N  N70  1  0.05749489  0.70996028  0.14588717  1  0  -0.153418  0  3.281411  0  0  -0.065727  0  3.510163  0  0  -0.082525  0  3.53621  0  0  -0.311242  -0.05404  0  3.49192  0
N  N71  1  0.44250837  0.79003604  0.64588567  1  0  -0.153442  0  3.28138  0  0  -0.065797  0  3.510174  0  0  -0.08259  0  3.536222  0  0  -0.311255  -0.054116  0  3.491938  0
O  O72  1  0.93561139  0.59694436  0.79460753  1  0  -0.641654  0  1.996013  0  0  -0.574198  0  2.238041  0  0  -0.605163  0  2.228968  0  0  -0.300139  -0.552648  0  2.243536  0
O  O73  1  0.56438573  0.90306301  0.29460426  1  0  -0.641791  0  1.995963  0  0  -0.574162  0  2.237942  0  0  -0.605129  0  2.228868  0  0  -0.300061  -0.552608  0  2.243434  0
O  O74  1  0.06439958  0.40305601  0.20538831  1  0  -0.641804  0  1.995454  0  0  -0.574264  0  2.23753  0  0  -0.605237  0  2.228467  0  0  -0.30011  -0.552714  0  2.243024  0
O  O75  1  0.43561373  0.09693609  0.70539495  1  0  -0.641784  0  1.995633  0  0  -0.574166  0  2.237739  0  0  -0.605136  0  2.22867  0  0  -0.300053  -0.552611  0  2.243231  0
O  O76  1  0.89412770  0.47903751  0.69735060  1  0  -0.60816  0  1.967431  0  0  -0.555818  0  2.194401  0  0  -0.580323  0  2.183394  0  0  -0.309304  -0.5387  0  2.201443  0
O  O77  1  0.60585783  0.02098508  0.19734681  1  0  -0.608079  0  1.967513  0  0  -0.5557  0  2.194574  0  0  -0.580208  0  2.183565  0  0  -0.309261  -0.538602  0  2.201626  0
O  O78  1  0.10587566  0.52096410  0.30264331  1  0  -0.60804  0  1.967977  0  0  -0.555576  0  2.194997  0  0  -0.580073  0  2.183992  0  0  -0.309138  -0.53848  0  2.20205  0
O  O79  1  0.39414250  0.97901152  0.80264904  1  0  -0.608002  0  1.96792  0  0  -0.555543  0  2.195039  0  0  -0.580041  0  2.184032  0  0  -0.309163  -0.538444  0  2.202088  0
O  O80  1  0.90204805  0.32824519  0.98362842  1  0  -0.695841  0  2.050058  0  0  -0.620153  0  2.297464  0  0  -0.654851  0  2.291921  0  0  -0.290094  -0.595918  0  2.30044  0
O  O81  1  0.59795619  0.17174962  0.48363092  1  0  -0.695852  0  2.050092  0  0  -0.620186  0  2.297467  0  0  -0.65489  0  2.291943  0  0  -0.290141  -0.595959  0  2.30044  0
O  O82  1  0.09795322  0.67176015  0.01637176  1  0  -0.695751  0  2.050186  0  0  -0.620058  0  2.297583  0  0  -0.654752  0  2.292032  0  0  -0.29  -0.595831  0  2.300556  0
O  O83  1  0.40204768  0.82824824  0.51637070  1  0  -0.695864  0  2.050143  0  0  -0.620203  0  2.297503  0  0  -0.654894  0  2.291943  0  0  -0.290143  -0.59597  0  2.300476  0
O  O84  1  0.76571936  0.05369179  0.99878598  1  0  -0.605659  0  1.994759  0  0  -0.539  0  2.208485  0  0  -0.565467  0  2.198223  0  0  -0.294492  -0.52078  0  2.215109  0
O  O85  1  0.73426976  0.44631054  0.49879058  1  0  -0.605698  0  1.994228  0  0  -0.539145  0  2.20799  0  0  -0.56561  0  2.197728  0  0  -0.294597  -0.520937  0  2.214618  0
O  O86  1  0.23428017  0.94631855  0.00121371  1  0  -0.605728  0  1.994454  0  0  -0.539115  0  2.208194  0  0  -0.565588  0  2.197935  0  0  -0.294639  -0.520904  0  2.214821  0
O  O87  1  0.26573556  0.55369231  0.50121297  1  0  -0.605624  0  1.994748  0  0  -0.539071  0  2.208485  0  0  -0.565545  0  2.198229  0  0  -0.294548  -0.520859  0  2.215118  0
O  O88  1  0.28346541  0.56639782  0.89361261  1  0  -0.652677  0  2.081751  0  0  -0.577334  0  2.319982  0  0  -0.60757  0  2.308737  0  0  -0.281988  -0.556427  0  2.327002  0
O  O89  1  0.21652141  0.93359675  0.39361202  1  0  -0.652792  0  2.081602  0  0  -0.577414  0  2.319883  0  0  -0.607659  0  2.308644  0  0  -0.282011  -0.556501  0  2.326911  0
O  O90  1  0.71653318  0.43360378  0.10638757  1  0  -0.652689  0  2.081639  0  0  -0.577341  0  2.31986  0  0  -0.607583  0  2.308625  0  0  -0.281951  -0.556436  0  2.326883  0
O  O91  1  0.78347573  0.06639985  0.60638768  1  0  -0.652746  0  2.08154  0  0  -0.577405  0  2.319802  0  0  -0.607648  0  2.308575  0  0  -0.282008  -0.556499  0  2.32683  0
O  O92  1  0.53831724  0.42511663  0.86694643  1  0  -0.640545  0  2.015716  0  0  -0.577611  0  2.259822  0  0  -0.608335  0  2.251898  0  0  -0.293754  -0.556403  0  2.264483  0
O  O93  1  0.96167669  0.07487781  0.36694176  1  0  -0.64044  0  2.015627  0  0  -0.577541  0  2.259861  0  0  -0.608263  0  2.25193  0  0  -0.29369  -0.556327  0  2.26453  0
O  O94  1  0.46168157  0.57489120  0.13305134  1  0  -0.640504  0  2.015599  0  0  -0.577579  0  2.259741  0  0  -0.608301  0  2.25181  0  0  -0.293697  -0.556374  0  2.26441  0
O  O95  1  0.03832291  0.92511631  0.63305794  1  0  -0.64045  0  2.015841  0  0  -0.57751  0  2.259999  0  0  -0.60823  0  2.252069  0  0  -0.293661  -0.556303  0  2.264665  0
O  O96  1  0.08427059  0.85879218  0.88560699  1  0  -0.835889  0  1.890758  0  0  -0.771105  0  2.084218  0  0  -0.796933  0  2.051328  0  0  -0.554346  -0.752925  0  2.106876  0
O  O97  1  0.41572954  0.64120737  0.38560001  1  0  -0.835781  0  1.890934  0  0  -0.770985  0  2.084427  0  0  -0.796812  0  2.051545  0  0  -0.554245  -0.752807  0  2.107087  0
O  O98  1  0.91572995  0.14121066  0.11439415  1  0  -0.835921  0  1.890707  0  0  -0.771128  0  2.084182  0  0  -0.796956  0  2.051293  0  0  -0.554339  -0.752946  0  2.106841  0
O  O99  1  0.58426796  0.35879048  0.61440161  1  0  -0.835811  0  1.890945  0  0  -0.770986  0  2.084368  0  0  -0.796814  0  2.051489  0  0  -0.554284  -0.752811  0  2.107028  0
O  O100  1  0.64447266  0.72918070  0.96227871  1  0  -0.864134  0  1.798853  0  0  -0.807914  0  1.978584  0  0  -0.830942  0  1.94548  0  0  -0.5855  -0.791682  0  2.001568  0
O  O101  1  0.85550038  0.77081218  0.46227647  1  0  -0.864169  0  1.798954  0  0  -0.807942  0  1.978638  0  0  -0.830974  0  1.945538  0  0  -0.585491  -0.791711  0  2.001624  0
O  O102  1  0.35552701  0.27082464  0.03772099  1  0  -0.864207  0  1.798807  0  0  -0.808007  0  1.978516  0  0  -0.831033  0  1.94541  0  0  -0.585548  -0.791776  0  2.0015  0
O  O103  1  0.14449654  0.22917818  0.53772082  1  0  -0.864092  0  1.799002  0  0  -0.80788  0  1.978682  0  0  -0.830905  0  1.945583  0  0  -0.58549  -0.791647  0  2.001668  0
