# generated using pymatgen
data_CuH8C10(N2O3)2
_symmetry_space_group_name_H-M   'P 1'
_cell_length_a   6.59144958
_cell_length_b   9.75665483
_cell_length_c   10.52260287
_cell_angle_alpha   105.85047787
_cell_angle_beta   89.99999343
_cell_angle_gamma   89.99957109
_symmetry_Int_Tables_number   1
_chemical_formula_structural   CuH8C10(N2O3)2
_chemical_formula_sum   'Cu2 H16 C20 N8 O12'
_cell_volume   650.98364605
_cell_formula_units_Z   2
loop_
 _symmetry_equiv_pos_site_id
 _symmetry_equiv_pos_as_xyz
  1  'x, y, z'
loop_
 _atom_site_type_symbol
 _atom_site_label
 _atom_site_symmetry_multiplicity
 _atom_site_fract_x
 _atom_site_fract_y
 _atom_site_fract_z
 _atom_site_occupancy
 _atom_site_pbe_cm5_charge
 _atom_site_pbe_ddec_charge
 _atom_site_pbe_ddec_spin_density
 _atom_site_pbe_ddec_sum_bond_order
 _atom_site_pbe_magmom
Cu  Cu0  1  0.00000167  0.50000116  0.50000188  1  0.798224  1.006512  -0.798848  2.244798  -0.629
Cu  Cu1  1  0.50000382  0.49999857  0.99999911  1  0.79822  1.006308  0.798851  2.245117  0.629
H  H2  1  0.67824472  0.35797825  0.60933848  1  0.296761  0.388669  -9.2e-05  0.942221  0.0
H  H3  1  0.17825291  0.64202370  0.89066402  1  0.296762  0.388632  9.2e-05  0.942265  0.0
H  H4  1  0.32175110  0.64202127  0.39065987  1  0.296797  0.388685  -9.2e-05  0.942172  0.0
H  H5  1  0.82175201  0.35797585  0.10933909  1  0.296764  0.388675  9.2e-05  0.942223  0.0
H  H6  1  0.88874188  0.31562743  0.65487897  1  0.288946  0.37198  3.2e-05  0.974233  0.0
H  H7  1  0.38874661  0.68437121  0.84511987  1  0.288974  0.372038  -3.2e-05  0.974176  0.0
H  H8  1  0.11125697  0.68436887  0.34511382  1  0.288928  0.371942  3.2e-05  0.974299  0.0
H  H9  1  0.61125831  0.31562621  0.15488271  1  0.288936  0.371971  -3.2e-05  0.974253  0.0
H  H10  1  0.32103941  0.38254826  0.56437123  1  0.301006  0.401012  -0.000831  0.927129  -0.001
H  H11  1  0.82104639  0.61744867  0.93563479  1  0.301037  0.40102  0.000831  0.927105  0.001
H  H12  1  0.67896096  0.61745236  0.43563214  1  0.301013  0.401048  -0.000831  0.927073  -0.001
H  H13  1  0.17895853  0.38255298  0.06436314  1  0.301018  0.400943  0.000831  0.927185  0.001
H  H14  1  0.26710359  0.52053158  0.68827841  1  0.291228  0.408024  -0.000851  0.919357  -0.001
H  H15  1  0.76710609  0.47946777  0.81172630  1  0.291215  0.407955  0.000851  0.91946  0.001
H  H16  1  0.73290133  0.47946797  0.31172375  1  0.291233  0.408018  -0.000851  0.919368  -0.001
H  H17  1  0.23289884  0.52053283  0.18827326  1  0.291229  0.407945  0.000851  0.919483  0.001
C  C18  1  0.99039816  0.80908090  0.67992811  1  0.225214  0.341661  0.00205  3.991757  -0.002
C  C19  1  0.49040979  0.19092143  0.82007071  1  0.225227  0.341736  -0.00205  3.991591  0.002
C  C20  1  0.00959766  0.19092183  0.32007294  1  0.225199  0.341675  0.00205  3.99159  -0.002
C  C21  1  0.50959361  0.80907704  0.17992927  1  0.225261  0.341671  -0.002049  3.991658  0.002
C  C22  1  0.00520589  0.94958868  0.75988319  1  -0.023202  -0.105371  -0.005437  4.21485  -0.006
C  C23  1  0.50521613  0.05041101  0.74011494  1  -0.023239  -0.105522  0.005435  4.214963  0.006
C  C24  1  0.99478235  0.05041406  0.24011881  1  -0.023269  -0.105518  -0.005437  4.214972  -0.006
C  C25  1  0.49477059  0.94958425  0.25988140  1  -0.023298  -0.105445  0.005437  4.215007  0.006
C  C26  1  0.00361271  0.97809831  0.89747479  1  0.002022  -0.102027  0.001341  3.921168  0.002
C  C27  1  0.50361577  0.02190458  0.60252414  1  0.002044  -0.101983  -0.001341  3.921279  -0.002
C  C28  1  0.99637400  0.02190976  0.10252949  1  0.002147  -0.101815  0.001342  3.921193  0.002
C  C29  1  0.49636185  0.97809601  0.39747448  1  0.00209  -0.10202  -0.001343  3.921285  -0.002
C  C30  1  0.99394311  0.89162844  0.99198778  1  0.127946  0.311019  -0.000961  4.138  -0.001
C  C31  1  0.49393612  0.10836963  0.50801284  1  0.128023  0.311265  0.000961  4.13791  0.001
C  C32  1  0.00604815  0.10836899  0.00801575  1  0.127869  0.310979  -0.000961  4.13805  -0.001
C  C33  1  0.50604453  0.89162456  0.49198324  1  0.127926  0.311084  0.00096  4.138017  0.001
C  C34  1  0.01154319  0.06097891  0.69826671  1  0.191751  0.269868  0.000568  4.079243  0.001
C  C35  1  0.51154827  0.93902287  0.80173194  1  0.191732  0.26987  -0.000568  4.079271  -0.001
C  C36  1  0.98846022  0.93902169  0.30173476  1  0.191756  0.269919  0.000568  4.079228  0.001
C  C37  1  0.48845513  0.06097449  0.19825922  1  0.191714  0.269728  -0.000568  4.079372  -0.001
N  N38  1  0.97190365  0.69193413  0.61499325  1  -0.357041  -0.413226  -0.042774  3.25662  -0.053
N  N39  1  0.47191548  0.30806938  0.88500682  1  -0.357002  -0.41318  0.042774  3.256689  0.053
N  N40  1  0.02810279  0.30807074  0.38501023  1  -0.356998  -0.413194  -0.042775  3.256495  -0.053
N  N41  1  0.52810461  0.69192697  0.11499359  1  -0.357024  -0.413126  0.042773  3.256542  0.053
N  N42  1  0.01734718  0.15484694  0.64893511  1  -0.308439  -0.391749  -0.002338  2.895193  -0.003
N  N43  1  0.51735174  0.84515162  0.85106274  1  -0.30844  -0.391764  0.002338  2.895186  0.003
N  N44  1  0.98266229  0.84515259  0.35106324  1  -0.30844  -0.391778  -0.002339  2.895251  -0.003
N  N45  1  0.48265622  0.15484683  0.14893440  1  -0.308378  -0.391599  0.002338  2.895369  0.003
O  O46  1  0.80193502  0.40007142  0.65809870  1  -0.566942  -0.768288  0.003305  2.084053  0.004
O  O47  1  0.30194522  0.59992879  0.84190433  1  -0.566974  -0.768311  -0.003306  2.083995  -0.004
O  O48  1  0.19806080  0.59992704  0.34189843  1  -0.566949  -0.768237  0.003306  2.08415  0.004
O  O49  1  0.69806273  0.40006864  0.15810015  1  -0.566953  -0.768303  -0.003306  2.083984  -0.004
O  O50  1  0.25953647  0.47869850  0.58895216  1  -0.579295  -0.760208  -0.061687  2.140994  -0.085
O  O51  1  0.75954603  0.52129665  0.91105532  1  -0.579299  -0.760097  0.06169  2.141055  0.085
O  O52  1  0.74046845  0.52130318  0.41105053  1  -0.5793  -0.76024  -0.061689  2.140952  -0.085
O  O53  1  0.24046192  0.47870395  0.08894425  1  -0.579316  -0.760042  0.061694  2.141177  0.085
O  O54  1  0.98963673  0.76168947  0.98433663  1  -0.289054  -0.454601  -0.000121  2.281444  0.0
O  O55  1  0.48962528  0.23831501  0.51566463  1  -0.289138  -0.454778  0.00012  2.2812  0.0
O  O56  1  0.01036364  0.23831857  0.01566289  1  -0.289111  -0.454718  -0.000122  2.281199  0.0
O  O57  1  0.51036598  0.76168666  0.48433616  1  -0.289108  -0.454713  0.00012  2.281393  0.0
