# generated using pymatgen
data_Ni2MoH72(C5N2)8
_symmetry_space_group_name_H-M   'P 1'
_cell_length_a   14.54747547
_cell_length_b   14.54699259
_cell_length_c   16.13003310
_cell_angle_alpha   101.64124597
_cell_angle_beta   106.34273123
_cell_angle_gamma   117.60850064
_symmetry_Int_Tables_number   1
_chemical_formula_structural   Ni2MoH72(C5N2)8
_chemical_formula_sum   'Ni4 Mo2 H144 C80 N32'
_cell_volume   2671.93678235
_cell_formula_units_Z   2
loop_
 _symmetry_equiv_pos_site_id
 _symmetry_equiv_pos_as_xyz
  1  'x, y, z'
loop_
 _atom_site_type_symbol
 _atom_site_label
 _atom_site_symmetry_multiplicity
 _atom_site_fract_x
 _atom_site_fract_y
 _atom_site_fract_z
 _atom_site_occupancy
 _atom_site_pbe_bader_charge
 _atom_site_pbe_bader_spin_density
 _atom_site_pbe_cm5_charge
 _atom_site_pbe_ddec_charge
 _atom_site_pbe_ddec_spin_density
 _atom_site_pbe_ddec_sum_bond_order
 _atom_site_pbe_magmom
Ni  Ni0  1  0.49999654  0.99999774  0.50000008  1  1.055529  1.449928  0.697632  0.595114  1.692313  2.749826  1.435
Ni  Ni1  1  0.00000920  0.00000389  0.00000849  1  1.051468  1.450453  0.697399  0.594689  1.692961  2.748996  1.436
Ni  Ni2  1  0.49999218  0.00000002  0.00000251  1  1.052983  1.445066  0.690141  0.589428  1.685141  2.722694  1.431
Ni  Ni3  1  0.50000438  0.50001339  0.50000805  1  1.045682  1.444587  0.690839  0.592623  1.684392  2.721934  1.43
Mo  Mo4  1  0.40246154  0.15251771  0.25010105  1  1.709976  0.027655  0.869431  0.603863  0.020477  5.553237  0.029
Mo  Mo5  1  0.59760368  0.84754453  0.74992982  1  1.711232  0.027647  0.869335  0.60368  0.020475  5.553939  0.029
H  H6  1  0.66497196  0.11544099  0.66159472  1  0.421457  -0.000917  0.29992  0.253336  -0.000891  0.947948  -0.001
H  H7  1  0.40989029  0.11550444  0.49342059  1  0.407563  -0.000211  0.302131  0.251985  -0.000254  0.936963  0.0
H  H8  1  0.62553367  0.12126143  0.93551257  1  0.426574  -0.000804  0.296344  0.248381  -0.00079  0.959458  -0.001
H  H9  1  0.62059464  0.13133974  0.17763668  1  0.456222  -0.000439  0.295073  0.251492  -0.000345  0.972277  0.0
H  H10  1  0.62264212  0.26231385  0.57955670  1  0.063835  0.000373  0.111418  0.093628  4e-05  0.988821  0.0
H  H11  1  0.68925137  0.29595206  0.70207777  1  0.039052  0.00421  0.101708  0.079038  0.001953  0.986117  0.002
H  H12  1  0.50932208  0.12270771  0.68242043  1  0.066618  0.000397  0.111414  0.091636  5.3e-05  1.006191  0.0
H  H13  1  0.48957590  0.22798606  0.65911248  1  0.00978  0.003919  0.095304  0.061173  0.001834  1.035954  0.002
H  H14  1  0.32029673  0.96129218  0.58436060  1  0.059321  0.000808  0.108651  0.058078  0.000235  0.983035  0.0
H  H15  1  0.22603405  0.95489168  0.38643844  1  0.087183  -5.8e-05  0.097565  0.111981  -8.1e-05  1.013337  0.0
H  H16  1  0.13448757  0.87549009  0.43057097  1  0.00997  -0.000195  0.09766  0.10551  -0.000191  0.97568  0.0
H  H17  1  0.31044940  0.13160858  0.63740729  1  0.003078  7.7e-05  0.082516  0.11089  -2.4e-05  1.035349  0.0
H  H18  1  0.17194955  0.00655853  0.56745560  1  0.056431  0.001996  0.088871  0.122879  0.000859  1.007958  0.001
H  H19  1  0.23492389  0.10299687  0.51698933  1  0.065632  7.5e-05  0.089529  0.13346  -1.1e-05  1.015642  0.0
H  H20  1  0.78725352  0.33284979  0.56703305  1  0.016216  9e-06  0.087203  0.121093  -7e-06  1.03408  0.0
H  H21  1  0.85559717  0.27421170  0.52500478  1  0.019235  1.5e-05  0.092285  0.132275  -2.2e-05  0.987168  0.0
H  H22  1  0.70377372  0.20472004  0.46724970  1  0.100079  0.000139  0.092511  0.140855  9.3e-05  1.041009  0.0
H  H23  1  0.86437455  0.22495822  0.74789927  1  0.064111  -3.5e-05  0.089587  0.1325  -9e-05  1.026035  0.0
H  H24  1  0.95218486  0.29784554  0.69544164  1  0.0071  0.002251  0.089075  0.125732  0.000956  1.003063  0.001
H  H25  1  0.86885043  0.34281937  0.72844398  1  0.018781  2.3e-05  0.084836  0.119232  -7.4e-05  1.010795  0.0
H  H26  1  0.64004040  0.26622601  0.10154622  1  0.081765  0.000295  0.117661  0.10713  -1e-06  0.965753  0.0
H  H27  1  0.74608956  0.30673962  0.05747045  1  0.028032  0.004559  0.100082  0.07425  0.00212  0.977798  0.002
H  H28  1  0.76530427  0.14851465  0.07948428  1  0.019284  0.000491  0.105026  0.082809  0.000126  0.99487  0.0
H  H29  1  0.80290532  0.25259576  0.18636886  1  0.041676  0.004185  0.101907  0.079972  0.001968  0.985201  0.002
H  H30  1  0.70155173  0.98865171  0.12448611  1  0.041203  0.000783  0.103913  0.047052  0.000246  1.005798  0.0
H  H31  1  0.53580205  0.96842134  0.21230749  1  0.03918  -9.3e-05  0.101767  0.111514  -0.000124  0.979548  0.0
H  H32  1  0.61265115  0.90464444  0.23227836  1  0.019366  -0.000216  0.093518  0.095884  -0.000195  1.009302  0.0
H  H33  1  0.85463402  0.16700447  0.26772386  1  0.008258  0.000285  0.083737  0.112331  0.000118  1.04948  0.0
H  H34  1  0.80645094  0.04787339  0.29766204  1  0.004452  0.001811  0.084475  0.115478  0.000758  1.024692  0.001
H  H35  1  0.75804346  0.13914738  0.31995895  1  0.070217  4e-06  0.092783  0.139012  -5.3e-05  1.01028  0.0
H  H36  1  0.64093335  0.22957004  0.84432857  1  0.045694  0.0  0.08654  0.129885  -5.7e-05  1.038903  0.0
H  H37  1  0.54966938  0.28134107  0.82647245  1  0.014434  0.001994  0.085167  0.117596  0.000845  1.033783  0.001
H  H38  1  0.66669691  0.34183446  0.93691730  1  0.008493  1.2e-05  0.088224  0.125771  -8.7e-05  1.002305  0.0
H  H39  1  0.53522219  0.31179749  0.01210063  1  0.024804  2.2e-05  0.094112  0.136072  0.0  0.993702  0.0
H  H40  1  0.41461883  0.24313080  0.90259757  1  0.016296  8e-06  0.088747  0.124416  -2.1e-05  1.000743  0.0
H  H41  1  0.41642767  0.17631652  0.98401490  1  0.05627  0.000125  0.091948  0.136507  6.6e-05  1.047862  0.0
H  H42  1  0.95405215  0.00354699  0.83845183  1  0.421598  -0.000916  0.299721  0.253662  -0.000894  0.949013  -0.001
H  H43  1  0.12202201  0.91640032  0.00656623  1  0.418255  -0.000264  0.302559  0.253259  -0.000255  0.93416  0.0
H  H44  1  0.68562303  0.68990737  0.56443086  1  0.43545  -0.000801  0.297002  0.249042  -0.000792  0.95868  -0.001
H  H45  1  0.45383420  0.44317560  0.32234727  1  0.452908  -0.000407  0.295205  0.251193  -0.000343  0.973386  0.0
H  H46  1  0.18277070  0.04295812  0.92032992  1  0.058407  0.000373  0.111518  0.093789  3.9e-05  0.98928  0.0
H  H47  1  0.09391015  0.98716323  0.79782180  1  0.029519  0.004236  0.101884  0.079061  0.001954  0.986702  0.002
H  H48  1  0.94037023  0.82700646  0.81761574  1  0.049459  0.0004  0.111489  0.091847  5.3e-05  1.006201  0.0
H  H49  1  0.06887825  0.83046365  0.84088606  1  0.03215  0.003881  0.095254  0.06143  0.001833  1.035721  0.002
H  H50  1  0.87693854  0.73616036  0.91580114  1  0.071423  0.000809  0.108329  0.057965  0.000237  0.982642  0.0
H  H51  1  0.06832210  0.83974760  0.11363491  1  0.068457  -5.9e-05  0.097918  0.112351  -8.2e-05  1.013749  0.0
H  H52  1  0.94494682  0.70406890  0.06963629  1  0.020153  -0.000194  0.097902  0.105649  -0.00019  0.974963  0.0
H  H53  1  0.99396061  0.67295746  0.86262016  1  -0.003439  8e-05  0.082426  0.111093  -2.5e-05  1.034865  0.0
H  H54  1  0.93878649  0.60454459  0.93269715  1  0.01777  0.002031  0.088715  0.122701  0.000856  1.007307  0.001
H  H55  1  0.08571177  0.71776088  0.98302206  1  0.039447  8.6e-05  0.0898  0.13362  -1.1e-05  1.014688  0.0
H  H56  1  0.26610346  0.22019711  0.93328170  1  0.016262  1e-05  0.087859  0.122156  -7e-06  1.033801  0.0
H  H57  1  0.24941727  0.33049220  0.97530046  1  0.026672  1.4e-05  0.092193  0.132423  -2.3e-05  0.986488  0.0
H  H58  1  0.23741135  0.23625104  0.03296094  1  0.088166  0.000145  0.092674  0.141924  9.3e-05  1.042609  0.0
H  H59  1  0.97774303  0.11667289  0.75212435  1  0.048181  -3.2e-05  0.089652  0.132829  -9e-05  1.025881  0.0
H  H60  1  0.10298944  0.25690274  0.80469703  1  0.017987  0.002234  0.088845  0.125696  0.000955  1.002189  0.001
H  H61  1  0.11513636  0.14067131  0.77180813  1  0.011651  2.4e-05  0.084924  0.119544  -7.5e-05  1.011332  0.0
H  H62  1  0.66479810  0.53869077  0.39835964  1  0.094432  0.000296  0.117677  0.107279  -1e-06  0.965318  0.0
H  H63  1  0.74930064  0.68876589  0.44248033  1  0.010793  0.00457  0.100103  0.074144  0.00212  0.977425  0.002
H  H64  1  0.56903592  0.68592285  0.42048023  1  0.032256  0.00049  0.105104  0.082177  0.000127  0.996353  0.0
H  H65  1  0.56630837  0.61674231  0.31355810  1  0.027433  0.004199  0.101704  0.079193  0.001966  0.985304  0.002
H  H66  1  0.36418193  0.57712062  0.37563937  1  0.057483  0.000782  0.103942  0.046742  0.000248  1.005735  0.0
H  H67  1  0.25631062  0.32369083  0.28782761  1  0.066234  -9.7e-05  0.101732  0.111931  -0.000124  0.979057  0.0
H  H68  1  0.17249586  0.38049179  0.26783885  1  0.009799  -0.000217  0.093488  0.096542  -0.000195  1.008487  0.0
H  H69  1  0.39923669  0.58712177  0.23229916  1  0.006179  0.000281  0.08385  0.112805  0.000118  1.048917  0.0
H  H70  1  0.25021892  0.50906923  0.20251014  1  0.001583  0.001811  0.084572  0.115793  0.000757  1.024312  0.001
H  H71  1  0.31914728  0.43836208  0.18004990  1  0.058512  6e-06  0.093146  0.139524  -5.3e-05  1.011268  0.0
H  H72  1  0.88511082  0.79646556  0.65555777  1  0.069963  -7e-06  0.086702  0.130564  -5.8e-05  1.03794  0.0
H  H73  1  0.95470277  0.72302372  0.67341065  1  0.019616  0.001988  0.084909  0.117591  0.000845  1.032915  0.001
H  H74  1  0.90495145  0.72977764  0.56295927  1  0.017116  1.1e-05  0.088486  0.126015  -8.7e-05  1.00197  0.0
H  H75  1  0.79980675  0.52320395  0.48776130  1  0.03114  2.1e-05  0.094356  0.137265  0.0  0.993345  0.0
H  H76  1  0.84044006  0.51196072  0.59727653  1  0.014721  7e-06  0.088651  0.124461  -2.2e-05  1.002099  0.0
H  H77  1  0.69234379  0.43247228  0.51583365  1  0.061515  0.000124  0.092511  0.137732  6.5e-05  1.046672  0.0
H  H78  1  0.33502314  0.88455756  0.33840235  1  0.423119  -0.000926  0.299891  0.253335  -0.000891  0.947891  -0.001
H  H79  1  0.59009939  0.88448260  0.50657352  1  0.407675  -0.000212  0.302092  0.251963  -0.000254  0.936936  0.0
H  H80  1  0.37444610  0.87872083  0.06448341  1  0.426198  -0.000805  0.296376  0.248296  -0.000789  0.959589  -0.001
H  H81  1  0.37941526  0.86867230  0.82237374  1  0.45632  -0.000439  0.295135  0.251589  -0.000345  0.972311  0.0
H  H82  1  0.37735006  0.73767927  0.42043827  1  0.063735  0.000373  0.111417  0.093607  4e-05  0.988769  0.0
H  H83  1  0.31074444  0.70404716  0.29791662  1  0.038924  0.004209  0.101703  0.079009  0.001953  0.986199  0.002
H  H84  1  0.49067651  0.87729111  0.31757764  1  0.066616  0.000396  0.111422  0.091681  5.3e-05  1.006146  0.0
H  H85  1  0.51041589  0.77200632  0.34088294  1  0.009482  0.00392  0.095278  0.061155  0.001835  1.035928  0.002
H  H86  1  0.67969287  0.03869263  0.41563344  1  0.058991  0.000807  0.108635  0.058089  0.000235  0.983096  0.0
H  H87  1  0.77395846  0.04509997  0.61355601  1  0.087096  -5.8e-05  0.097523  0.111902  -8.1e-05  1.013469  0.0
H  H88  1  0.86550274  0.12449937  0.56942294  1  0.010121  -0.000195  0.097688  0.105486  -0.000191  0.975654  0.0
H  H89  1  0.68954261  0.86837970  0.36258664  1  0.0027  7.7e-05  0.0825  0.110914  -2.4e-05  1.035237  0.0
H  H90  1  0.82804022  0.99343253  0.43253777  1  0.056945  0.001995  0.088912  0.122906  0.000859  1.007899  0.001
H  H91  1  0.76507108  0.89699327  0.48300505  1  0.065688  7.5e-05  0.089513  0.133437  -1.1e-05  1.015693  0.0
H  H92  1  0.21272649  0.66713179  0.43295124  1  0.01597  9e-06  0.087206  0.121102  -7e-06  1.034088  0.0
H  H93  1  0.14438946  0.72577545  0.47498369  1  0.019896  1.5e-05  0.092259  0.132263  -2.2e-05  0.987128  0.0
H  H94  1  0.29621307  0.79526218  0.53273550  1  0.099872  0.000139  0.092527  0.140889  9.3e-05  1.040844  0.0
H  H95  1  0.13561913  0.77503845  0.25209040  1  0.063896  -3.5e-05  0.089686  0.132564  -9e-05  1.026003  0.0
H  H96  1  0.04780373  0.70214812  0.30454117  1  0.007359  0.00225  0.08903  0.125711  0.000956  1.003132  0.001
H  H97  1  0.13113442  0.65717235  0.27153757  1  0.01913  2.3e-05  0.08484  0.119242  -7.4e-05  1.010934  0.0
H  H98  1  0.35995549  0.73377263  0.89845166  1  0.081811  0.000295  0.117644  0.107106  -1e-06  0.965769  0.0
H  H99  1  0.25389887  0.69325038  0.94251730  1  0.027975  0.004561  0.100026  0.074156  0.00212  0.977738  0.002
H  H100  1  0.23468331  0.85147422  0.92050855  1  0.019242  0.000492  0.105046  0.082799  0.000126  0.994956  0.0
H  H101  1  0.19708865  0.74740161  0.81362367  1  0.041066  0.004185  0.101876  0.079921  0.001967  0.985214  0.002
H  H102  1  0.29842783  0.01133809  0.87550115  1  0.041729  0.000783  0.103918  0.047034  0.000246  1.005833  0.0
H  H103  1  0.46418055  0.03156973  0.78768370  1  0.039115  -9.4e-05  0.101777  0.111528  -0.000124  0.979635  0.0
H  H104  1  0.38733490  0.09535047  0.76771550  1  0.018818  -0.000216  0.093473  0.095854  -0.000195  1.009295  0.0
H  H105  1  0.14535297  0.83298043  0.73225901  1  0.008027  0.000285  0.083726  0.112368  0.000118  1.04955  0.0
H  H106  1  0.19353499  0.95211052  0.70232484  1  0.004219  0.001811  0.084512  0.115553  0.000758  1.024721  0.001
H  H107  1  0.24195171  0.86084683  0.68003137  1  0.070027  4e-06  0.09283  0.139077  -5.3e-05  1.010135  0.0
H  H108  1  0.35905648  0.77042862  0.15566572  1  0.045985  -0.0  0.086569  0.129871  -5.7e-05  1.038857  0.0
H  H109  1  0.45031549  0.71865162  0.17352275  1  0.014419  0.001994  0.085151  0.117536  0.000845  1.033859  0.001
H  H110  1  0.33328997  0.65816094  0.06307825  1  0.007981  1.3e-05  0.088183  0.125698  -8.7e-05  1.002329  0.0
H  H111  1  0.46476490  0.68818920  0.98789767  1  0.024608  2.2e-05  0.094101  0.13605  0.0  0.993833  0.0
H  H112  1  0.58537090  0.75686243  0.09739917  1  0.016181  8e-06  0.088708  0.124414  -2.1e-05  1.000894  0.0
H  H113  1  0.58355887  0.82366919  0.01597858  1  0.056471  0.000125  0.091977  0.136568  6.6e-05  1.047893  0.0
H  H114  1  0.04594454  0.99645550  0.16155710  1  0.421365  -0.000916  0.299777  0.253695  -0.000894  0.948845  -0.001
H  H115  1  0.87798614  0.08360013  0.99343473  1  0.418375  -0.000264  0.302543  0.253345  -0.000256  0.934127  0.0
H  H116  1  0.31439374  0.31010815  0.43557376  1  0.435383  -0.000801  0.29696  0.24896  -0.000791  0.958809  -0.001
H  H117  1  0.54616740  0.55682763  0.67767175  1  0.452962  -0.000407  0.295184  0.251225  -0.000343  0.973688  0.0
H  H118  1  0.81722345  0.95704011  0.07966108  1  0.05825  0.000373  0.111515  0.09369  3.9e-05  0.989423  0.0
H  H119  1  0.90607006  0.01283017  0.20217123  1  0.029448  0.004236  0.101846  0.079035  0.001954  0.986705  0.002
H  H120  1  0.05962456  0.17299196  0.18239125  1  0.049824  0.0004  0.111501  0.091877  5.3e-05  1.006198  0.0
H  H121  1  0.93111385  0.16953264  0.15910969  1  0.032124  0.003881  0.095256  0.061449  0.001833  1.035747  0.002
H  H122  1  0.12306513  0.26384825  0.08420295  1  0.071384  0.000808  0.108313  0.05797  0.000237  0.982702  0.0
H  H123  1  0.93168068  0.16025151  0.88636827  1  0.068462  -5.9e-05  0.097938  0.112381  -8.1e-05  1.013744  0.0
H  H124  1  0.05505279  0.29592987  0.93036366  1  0.020158  -0.000194  0.097908  0.105649  -0.00019  0.974979  0.0
H  H125  1  0.00603295  0.32703854  0.13737961  1  -0.003644  8e-05  0.082413  0.111091  -2.5e-05  1.034875  0.0
H  H126  1  0.06120291  0.39545410  0.06730267  1  0.017665  0.002031  0.088714  0.122736  0.000856  1.007266  0.001
H  H127  1  0.91428064  0.28223072  0.01697568  1  0.03965  8.6e-05  0.089829  0.133667  -1.1e-05  1.014623  0.0
H  H128  1  0.73389874  0.77980319  0.06672003  1  0.016629  1e-05  0.087867  0.122183  -7e-06  1.033741  0.0
H  H129  1  0.75058076  0.66950361  0.02470129  1  0.026777  1.4e-05  0.092148  0.132372  -2.3e-05  0.986486  0.0
H  H130  1  0.76258899  0.76374560  0.96703974  1  0.088241  0.000145  0.0927  0.141991  9.4e-05  1.042552  0.0
H  H131  1  0.02224602  0.88331408  0.24788190  1  0.04829  -3.2e-05  0.089663  0.132842  -9e-05  1.025953  0.0
H  H132  1  0.89699714  0.74308736  0.19529990  1  0.017868  0.002235  0.08884  0.125705  0.000955  1.002136  0.001
H  H133  1  0.88485310  0.85931843  0.22818917  1  0.011408  2.4e-05  0.084988  0.11963  -7.5e-05  1.011263  0.0
H  H134  1  0.33519600  0.46130761  0.60164323  1  0.094344  0.000297  0.117691  0.107297  -1e-06  0.96526  0.0
H  H135  1  0.25069803  0.31123116  0.55751525  1  0.010884  0.004567  0.100095  0.074096  0.002119  0.977511  0.002
H  H136  1  0.43096669  0.31408281  0.57951682  1  0.032327  0.00049  0.10511  0.082194  0.000127  0.996315  0.0
H  H137  1  0.43368495  0.38324802  0.68643885  1  0.0273  0.004201  0.101718  0.079145  0.001967  0.985327  0.002
H  H138  1  0.63580638  0.42287869  0.62435509  1  0.057503  0.000782  0.103937  0.046727  0.000248  1.005753  0.0
H  H139  1  0.74368387  0.67630571  0.71217055  1  0.065973  -9.7e-05  0.101729  0.11198  -0.000124  0.978988  0.0
H  H140  1  0.82749927  0.61950577  0.73216082  1  0.00981  -0.000217  0.093514  0.096612  -0.000195  1.008407  0.0
H  H141  1  0.60075831  0.41287017  0.76769439  1  0.006753  0.000281  0.083902  0.112939  0.000118  1.048916  0.0
H  H142  1  0.74977579  0.49092320  0.79748654  1  0.001751  0.001811  0.084635  0.115907  0.000757  1.024283  0.001
H  H143  1  0.68084668  0.56162928  0.81994857  1  0.058706  6e-06  0.093125  0.139539  -5.3e-05  1.01132  0.0
H  H144  1  0.11488364  0.20352659  0.34443694  1  0.070299  -7e-06  0.086693  0.130521  -5.8e-05  1.03789  0.0
H  H145  1  0.04529288  0.27696785  0.32658612  1  0.019237  0.001988  0.084896  0.117525  0.000845  1.03298  0.001
H  H146  1  0.09503960  0.27020969  0.43703538  1  0.017242  1.1e-05  0.08848  0.125958  -8.7e-05  1.001953  0.0
H  H147  1  0.20018600  0.47679336  0.51223595  1  0.031136  2.1e-05  0.094351  0.137294  0.0  0.993322  0.0
H  H148  1  0.15955453  0.48803446  0.40272003  1  0.014662  7e-06  0.088644  0.124494  -2.2e-05  1.002057  0.0
H  H149  1  0.30765251  0.56752173  0.48416293  1  0.061623  0.000124  0.092543  0.137833  6.5e-05  1.046525  0.0
C  C150  1  0.41409108  0.09357373  0.12494922  1  0.74023  0.009673  0.012497  -0.01684  0.004566  3.784659  0.012
C  C151  1  0.62613818  0.22623487  0.63309153  1  0.274423  0.000454  -0.070313  -0.047876  -0.000388  3.895842  -0.001
C  C152  1  0.50842553  0.16554669  0.63369560  1  0.278059  2.3e-05  -0.072784  -0.066872  -0.000729  3.930227  -0.001
C  C153  1  0.30539935  0.00136256  0.53563604  1  0.312402  0.00013  0.003175  0.190688  -0.000382  3.805691  -0.001
C  C154  1  0.22204312  0.91178472  0.43541308  1  -0.049746  0.002469  -0.158581  -0.283636  0.001043  3.808672  0.002
C  C155  1  0.76914040  0.18909153  0.60073388  1  0.33527  0.00119  0.072163  0.340703  0.000655  3.756901  -0.001
C  C156  1  0.25335695  0.06506867  0.56656738  1  -0.126771  0.005771  -0.247537  -0.430339  0.003725  3.926431  0.004
C  C157  1  0.77814071  0.25306006  0.53588455  1  -0.100232  0.000461  -0.246171  -0.446652  0.000133  3.882171  0.0
C  C158  1  0.86944208  0.26812759  0.69912516  1  -0.093861  0.006358  -0.244811  -0.451149  0.004079  3.898722  0.005
C  C159  1  0.67813541  0.23481187  0.06347172  1  0.268632  0.000669  -0.067144  -0.044738  -0.000142  3.891356  -0.001
C  C160  1  0.73144796  0.18495460  0.11898206  1  0.299558  0.000316  -0.070845  -0.059795  -0.000432  3.921303  -0.001
C  C161  1  0.67713765  0.02621712  0.17332351  1  0.316642  0.000164  0.001395  0.190685  -0.000426  3.812668  -0.001
C  C162  1  0.57569898  0.93181226  0.18093176  1  -0.035938  0.002399  -0.154648  -0.275535  0.000957  3.796137  0.002
C  C163  1  0.51963927  0.17661758  0.90740552  1  0.320972  0.000955  0.072902  0.3406  0.000403  3.754775  -0.001
C  C164  1  0.77996637  0.09926207  0.27029836  1  -0.077752  0.00572  -0.247409  -0.428006  0.00371  3.909536  0.004
C  C165  1  0.59923722  0.26205514  0.87667700  1  -0.058601  0.00608  -0.248289  -0.456816  0.003917  3.897301  0.004
C  C166  1  0.46848472  0.22927833  0.95483159  1  -0.052388  0.000455  -0.24472  -0.446722  0.00013  3.884277  0.0
C  C167  1  0.47076663  0.09775742  0.34792330  1  0.737775  0.002571  0.012416  -0.018462  -0.000975  3.788053  0.007
C  C168  1  0.58401179  0.23416570  0.28805392  1  0.705743  0.001277  -0.00833  -0.049741  0.000579  3.829851  0.001
C  C169  1  0.28036790  0.11433639  0.30911189  1  0.684016  -7.7e-05  -0.00724  -0.05129  -0.000741  3.863518  0.0
C  C170  1  0.46850414  0.28913003  0.37527898  1  0.745317  0.009635  0.012568  -0.016892  0.004682  3.783381  0.012
C  C171  1  0.09320401  0.99302602  0.86685110  1  0.284048  0.000454  -0.069586  -0.046941  -0.000384  3.896768  -0.001
C  C172  1  0.03187937  0.87476234  0.86629941  1  0.301817  5e-05  -0.073888  -0.068311  -0.000722  3.930341  -0.001
C  C173  1  0.96567371  0.76985088  0.96446265  1  0.275226  0.000179  0.003245  0.190212  -0.000389  3.809165  -0.001
C  C174  1  0.97629046  0.78671909  0.06469893  1  -0.036001  0.002459  -0.158707  -0.283582  0.001037  3.811896  0.002
C  C175  1  0.08861133  0.16841543  0.89934763  1  0.308853  0.001209  0.07253  0.34178  0.000642  3.756332  -0.001
C  C176  1  0.99826396  0.68675163  0.93350597  1  -0.040695  0.005669  -0.247506  -0.430263  0.003718  3.925875  0.004
C  C177  1  0.21733347  0.24214132  0.96434898  1  -0.082651  0.000462  -0.246874  -0.449418  0.000136  3.883837  0.0
C  C178  1  0.06959045  0.17047542  0.80098138  1  -0.069361  0.006328  -0.244952  -0.452307  0.00408  3.898975  0.005
C  C179  1  0.67136709  0.61478263  0.43644156  1  0.276801  0.000631  -0.067624  -0.045994  -0.000141  3.891272  -0.001
C  C180  1  0.56601856  0.61262153  0.38097172  1  0.29923  0.000292  -0.069737  -0.05605  -0.000434  3.918924  -0.001
C  C181  1  0.35295623  0.50394885  0.32676771  1  0.296126  0.000172  0.002034  0.191835  -0.000432  3.811184  -0.001
C  C182  1  0.25100445  0.39490798  0.31917823  1  -0.055097  0.002405  -0.154644  -0.277738  0.000957  3.796642  0.002
C  C183  1  0.76914811  0.61216979  0.59246046  1  0.331642  0.000936  0.072518  0.342362  0.000409  3.75316  -0.001
C  C184  1  0.32894501  0.50990271  0.22976031  1  -0.052341  0.005702  -0.248525  -0.429948  0.003707  3.912135  0.004
C  C185  1  0.88528269  0.72245941  0.62318627  1  -0.104139  0.006125  -0.248433  -0.458141  0.00393  3.895132  0.004
C  C186  1  0.77445224  0.51367065  0.54502213  1  -0.062682  0.000454  -0.245479  -0.44972  0.00013  3.885685  0.0
C  C187  1  0.24983034  0.12296152  0.15225094  1  0.752736  0.002603  0.012195  -0.018968  -0.000984  3.78876  0.007
C  C188  1  0.44619673  0.29610545  0.21216915  1  0.710667  0.001271  -0.00933  -0.050476  0.000574  3.835879  0.001
C  C189  1  0.30549113  0.97151303  0.19099128  1  0.681801  -7.2e-05  -0.007871  -0.052055  -0.000742  3.863194  0.0
C  C190  1  0.58594996  0.90646664  0.87507922  1  0.741469  0.00966  0.012483  -0.016986  0.004566  3.78492  0.012
C  C191  1  0.37385598  0.77376056  0.36690289  1  0.275154  0.000453  -0.070264  -0.047733  -0.000388  3.895997  -0.001
C  C192  1  0.49156780  0.83444685  0.36629883  1  0.277493  2.3e-05  -0.072775  -0.066984  -0.000729  3.9302  -0.001
C  C193  1  0.69458816  0.99862269  0.46435843  1  0.313376  0.000128  0.003129  0.190533  -0.000383  3.805604  -0.001
C  C194  1  0.77794760  0.08820549  0.56458038  1  -0.050008  0.002469  -0.158539  -0.283363  0.001043  3.808664  0.002
C  C195  1  0.23084796  0.81089625  0.39925380  1  0.334797  0.00119  0.072095  0.340732  0.000655  3.756972  -0.001
C  C196  1  0.74663416  0.93492087  0.43342734  1  -0.127286  0.005772  -0.247542  -0.430328  0.003724  3.926181  0.004
C  C197  1  0.22184463  0.74692504  0.46410090  1  -0.09998  0.000461  -0.246101  -0.446604  0.000133  3.881936  0.0
C  C198  1  0.13054731  0.73186476  0.30086016  1  -0.094553  0.006359  -0.244827  -0.451175  0.004079  3.899028  0.005
C  C199  1  0.32185562  0.76518224  0.93652207  1  0.269016  0.000668  -0.067132  -0.044665  -0.000142  3.891335  -0.001
C  C200  1  0.26854386  0.81503959  0.88101254  1  0.300062  0.000315  -0.070784  -0.059727  -0.000433  3.921476  -0.001
C  C201  1  0.32284631  0.97377425  0.82666822  1  0.316145  0.000164  0.001403  0.190775  -0.000426  3.81263  -0.001
C  C202  1  0.42428645  0.06818203  0.81906147  1  -0.035332  0.002398  -0.154652  -0.275532  0.000956  3.796104  0.002
C  C203  1  0.48034696  0.82337680  0.09258851  1  0.32152  0.000954  0.07291  0.340662  0.000403  3.755004  -0.001
C  C204  1  0.22002459  0.90072584  0.72969280  1  -0.07728  0.005719  -0.247512  -0.428262  0.003709  3.909699  0.004
C  C205  1  0.40075095  0.73793973  0.12331731  1  -0.05846  0.006079  -0.248267  -0.456698  0.003917  3.89728  0.004
C  C206  1  0.53150225  0.77071251  0.04516489  1  -0.052612  0.000455  -0.244705  -0.446829  0.00013  3.884546  0.0
C  C207  1  0.52928030  0.90229086  0.65210091  1  0.737481  0.002578  0.012486  -0.018127  -0.000969  3.78785  0.007
C  C208  1  0.41603973  0.76585534  0.71195615  1  0.706021  0.001278  -0.008493  -0.050273  0.00058  3.83007  0.001
C  C209  1  0.71968537  0.88570279  0.69091447  1  0.684528  -7.8e-05  -0.007184  -0.05117  -0.000742  3.862552  0.0
C  C210  1  0.53155649  0.71092635  0.62475915  1  0.745719  0.009619  0.012466  -0.01686  0.004665  3.782262  0.012
C  C211  1  0.90678695  0.00696985  0.13314518  1  0.284784  0.000454  -0.069562  -0.046837  -0.000384  3.896805  -0.001
C  C212  1  0.96811700  0.12523646  0.13370151  1  0.301327  4.9e-05  -0.073889  -0.068375  -0.000722  3.930367  -0.001
C  C213  1  0.03432939  0.23015214  0.03554085  1  0.275305  0.000179  0.003307  0.19025  -0.000388  3.80932  -0.001
C  C214  1  0.02371218  0.21328097  0.93530495  1  -0.03594  0.002459  -0.158808  -0.283708  0.001037  3.812059  0.002
C  C215  1  0.91138973  0.83158306  0.10065634  1  0.308833  0.00121  0.072592  0.341768  0.000642  3.756277  -0.001
C  C216  1  0.00173017  0.31324457  0.06649353  1  -0.040644  0.00567  -0.247519  -0.430308  0.003719  3.925767  0.004
C  C217  1  0.78266809  0.75785655  0.03565295  1  -0.083144  0.000463  -0.246871  -0.449441  0.000136  3.883708  0.0
C  C218  1  0.93040186  0.82951613  0.19901967  1  -0.068907  0.006327  -0.245046  -0.452452  0.004081  3.899066  0.005
C  C219  1  0.32863107  0.38521901  0.56355862  1  0.2767  0.000631  -0.067569  -0.045788  -0.000142  3.891312  -0.001
C  C220  1  0.43397902  0.38737991  0.61902874  1  0.29939  0.000291  -0.069749  -0.055908  -0.000434  3.918957  -0.001
C  C221  1  0.64703836  0.49605032  0.67323141  1  0.296532  0.000172  0.002148  0.192197  -0.000432  3.811162  -0.001
C  C222  1  0.74899065  0.60508917  0.68082056  1  -0.055159  0.002406  -0.154666  -0.277843  0.000957  3.796527  0.002
C  C223  1  0.23084912  0.38782734  0.40753878  1  0.331668  0.000935  0.072518  0.342321  0.00041  3.753366  -0.001
C  C224  1  0.67105013  0.49009087  0.77023680  1  -0.053368  0.005702  -0.248649  -0.430339  0.003707  3.912302  0.004
C  C225  1  0.11471397  0.27753352  0.37681068  1  -0.104269  0.006125  -0.248389  -0.457908  0.00393  3.89514  0.004
C  C226  1  0.22554197  0.48632379  0.45497488  1  -0.062674  0.000454  -0.245486  -0.449864  0.00013  3.885678  0.0
C  C227  1  0.75021048  0.87707038  0.84777811  1  0.75284  0.002632  0.012599  -0.018374  -0.000964  3.788422  0.007
C  C228  1  0.55386923  0.70395550  0.78784799  1  0.709669  0.001275  -0.009396  -0.050769  0.000577  3.836399  0.001
C  C229  1  0.69458656  0.02855886  0.80904885  1  0.680884  -7.1e-05  -0.007346  -0.051371  -0.000741  3.86181  0.0
N  N230  1  0.65751986  0.14506221  0.60904015  1  -1.014782  0.091056  -0.469552  -0.352592  0.053369  3.38731  0.08
N  N231  1  0.41990661  0.07838627  0.54002491  1  -1.034574  0.087051  -0.478753  -0.331913  0.050913  3.47431  0.076
N  N232  1  0.58687842  0.14570035  0.97110727  1  -1.02877  0.087784  -0.469506  -0.353013  0.051525  3.395953  0.077
N  N233  1  0.64214902  0.09364887  0.13232071  1  -1.061043  0.085769  -0.481944  -0.338936  0.050214  3.465264  0.075
N  N234  1  0.50555942  0.06651050  0.40328904  1  -1.366205  0.058306  -0.393815  -0.36493  0.034672  3.480939  0.048
N  N235  1  0.68223731  0.27683519  0.30601559  1  -1.308542  0.000949  -0.381275  -0.369132  0.000346  2.931152  0.001
N  N236  1  0.21282839  0.09829784  0.34037295  1  -1.31746  0.000421  -0.380231  -0.389626  -9.4e-05  2.997046  0.0
N  N237  1  0.42052666  0.05763423  0.05614334  1  -1.367356  0.054428  -0.39267  -0.363298  0.031588  3.456346  0.044
N  N238  1  0.03615642  0.04849319  0.89099214  1  -1.025143  0.090843  -0.469772  -0.352565  0.05328  3.388422  0.08
N  N239  1  0.03835054  0.87990217  0.96000594  1  -1.048713  0.086999  -0.478917  -0.332969  0.050848  3.474873  0.076
N  N240  1  0.67456020  0.61574159  0.52882199  1  -1.04288  0.08788  -0.469837  -0.353785  0.05147  3.396489  0.077
N  N241  1  0.46140650  0.50997218  0.36768475  1  -1.055621  0.085765  -0.482801  -0.340207  0.050221  3.464142  0.075
N  N242  1  0.16325553  0.10234677  0.09687101  1  -1.385269  0.058301  -0.393076  -0.36475  0.034637  3.480781  0.048
N  N243  1  0.47083795  0.37632152  0.19414404  1  -1.312791  0.000958  -0.380603  -0.368439  0.000355  2.937011  0.001
N  N244  1  0.25823567  0.87276068  0.15962749  1  -1.32162  0.000424  -0.379519  -0.388903  -9.4e-05  2.995877  0.0
N  N245  1  0.50141815  0.36436422  0.44408909  1  -1.378576  0.054572  -0.392949  -0.364181  0.031526  3.457567  0.044
N  N246  1  0.34247092  0.85493021  0.39095338  1  -1.016034  0.09105  -0.469527  -0.352681  0.053361  3.387571  0.08
N  N247  1  0.58008238  0.92160191  0.45997106  1  -1.034687  0.087043  -0.478756  -0.331891  0.050906  3.474166  0.076
N  N248  1  0.41310483  0.85429035  0.02888715  1  -1.028946  0.087781  -0.469462  -0.352737  0.051522  3.395973  0.077
N  N249  1  0.35784254  0.90635160  0.86767875  1  -1.061005  0.085759  -0.481993  -0.339131  0.050206  3.465551  0.075
N  N250  1  0.49445248  0.93350824  0.59672428  1  -1.366455  0.058305  -0.393901  -0.365233  0.034669  3.480884  0.048
N  N251  1  0.31782085  0.72315174  0.69398496  1  -1.308482  0.000946  -0.381194  -0.368701  0.000344  2.931093  0.001
N  N252  1  0.78723115  0.90171313  0.65963161  1  -1.318336  0.000423  -0.380251  -0.389833  -9.3e-05  2.995911  0.0
N  N253  1  0.57947570  0.94236750  0.94386963  1  -1.368655  0.054432  -0.392516  -0.362994  0.031583  3.456627  0.044
N  N254  1  0.96384258  0.95150615  0.10901316  1  -1.025673  0.090853  -0.469829  -0.352517  0.053287  3.388368  0.08
N  N255  1  0.96165638  0.12009963  0.03999803  1  -1.048743  0.086997  -0.478911  -0.333092  0.050847  3.474918  0.076
N  N256  1  0.32544245  0.38426706  0.47118022  1  -1.042735  0.087863  -0.469786  -0.353877  0.05146  3.396622  0.077
N  N257  1  0.53859166  0.49003323  0.63232567  1  -1.055608  0.085776  -0.482855  -0.340636  0.050227  3.464895  0.075
N  N258  1  0.83677390  0.89765885  0.90316346  1  -1.385404  0.058321  -0.393451  -0.365294  0.034643  3.480774  0.048
N  N259  1  0.52921652  0.62373310  0.80587506  1  -1.311731  0.000957  -0.380432  -0.368062  0.000354  2.937151  0.001
N  N260  1  0.74181941  0.12732026  0.84040675  1  -1.321409  0.000427  -0.379967  -0.389525  -9.1e-05  2.99504  0.0
N  N261  1  0.49862277  0.63567149  0.55594688  1  -1.378942  0.05456  -0.392922  -0.364244  0.031528  3.456055  0.044
