# generated using pymatgen
data_NiH18C28(N2O)4
_symmetry_space_group_name_H-M   'P 1'
_cell_length_a   8.53489371
_cell_length_b   15.86509320
_cell_length_c   21.30917884
_cell_angle_alpha   90.00050228
_cell_angle_beta   90.00014278
_cell_angle_gamma   89.99662450
_symmetry_Int_Tables_number   1
_chemical_formula_structural   NiH18C28(N2O)4
_chemical_formula_sum   'Ni4 H72 C112 N32 O16'
_cell_volume   2885.40950608
_cell_formula_units_Z   4
loop_
 _symmetry_equiv_pos_site_id
 _symmetry_equiv_pos_as_xyz
  1  'x, y, z'
loop_
 _atom_site_type_symbol
 _atom_site_label
 _atom_site_symmetry_multiplicity
 _atom_site_fract_x
 _atom_site_fract_y
 _atom_site_fract_z
 _atom_site_occupancy
 _atom_site_pbe_bader_charge
 _atom_site_pbe_bader_spin_density
 _atom_site_pbe_cm5_charge
 _atom_site_pbe_ddec_charge
 _atom_site_pbe_ddec_spin_density
 _atom_site_pbe_ddec_sum_bond_order
 _atom_site_pbe_magmom
Ni  Ni0  1  0.72396978  0.24999641  0.49999089  1  1.092194  9.1e-05  0.628827  0.646838  8.6e-05  2.580885  0.0
Ni  Ni1  1  0.27601656  0.24999042  0.00001081  1  1.092101  -0.000174  0.628977  0.647034  -0.000149  2.580782  0.0
Ni  Ni2  1  0.27602678  0.74997466  0.49998291  1  1.092111  -0.000224  0.628797  0.646705  -0.0002  2.581032  0.0
Ni  Ni3  1  0.72396755  0.75002016  0.00000376  1  1.0918  -1.9e-05  0.628974  0.647063  -3.5e-05  2.580591  0.0
H  H4  1  0.85200519  0.02432242  0.96314368  1  0.08439  -3e-05  0.105418  0.108625  -6.6e-05  1.000338  0.0
H  H5  1  0.14799395  0.02420617  0.53687068  1  0.083936  -9e-06  0.105416  0.108876  -4.1e-05  1.000362  0.0
H  H6  1  0.14803790  0.47560995  0.46317950  1  0.084806  4.6e-05  0.105549  0.108811  7.9e-05  1.000205  0.0
H  H7  1  0.85200786  0.47574012  0.03683354  1  0.083862  3e-05  0.105506  0.108796  6.6e-05  1.000191  0.0
H  H8  1  0.14804409  0.97564801  0.03681511  1  0.08419  4.4e-05  0.105473  0.108696  8e-05  1.000146  0.0
H  H9  1  0.85201199  0.97568106  0.46316882  1  0.083835  -3.5e-05  0.105445  0.108676  -6.8e-05  1.00013  0.0
H  H10  1  0.85199382  0.52424387  0.53685625  1  0.084263  2e-05  0.10549  0.108807  5.3e-05  1.000305  0.0
H  H11  1  0.14794887  0.52422653  0.96312853  1  0.083842  -1.5e-05  0.105385  0.108898  -5e-05  1.000267  0.0
H  H12  1  0.07002247  0.84279245  0.84090334  1  0.096936  -0.000435  0.10094  0.099617  -0.000473  1.029912  0.0
H  H13  1  0.92981586  0.84282832  0.65915768  1  0.096262  -0.000439  0.100974  0.099773  -0.000476  1.029835  0.0
H  H14  1  0.93014150  0.65722716  0.34095851  1  0.096728  0.000428  0.100957  0.099737  0.000468  1.029718  0.0
H  H15  1  0.07003064  0.65721312  0.15909748  1  0.097022  0.000434  0.100914  0.099582  0.000473  1.029947  0.0
H  H16  1  0.93010180  0.15722462  0.15905592  1  0.097038  0.000427  0.100929  0.099669  0.000468  1.029702  0.0
H  H17  1  0.06995925  0.15721397  0.34092030  1  0.096741  -0.000432  0.10091  0.099568  -0.000472  1.02987  0.0
H  H18  1  0.07012337  0.34280000  0.65911900  1  0.096  0.000437  0.100937  0.099577  0.000475  1.029964  0.0
H  H19  1  0.92984172  0.34281656  0.84084676  1  0.096175  -0.000437  0.101003  0.099759  -0.000475  1.029759  0.0
H  H20  1  0.12101734  0.23771176  0.85302996  1  0.54521  -0.000338  0.318531  0.273914  -0.000376  0.998982  0.0
H  H21  1  0.87890898  0.23776610  0.64695811  1  0.544981  0.000336  0.318696  0.274169  0.000377  0.998916  0.0
H  H22  1  0.87884462  0.26232585  0.35307732  1  0.544908  -0.000336  0.31846  0.273428  -0.000377  0.999744  0.0
H  H23  1  0.12120597  0.26229304  0.14691132  1  0.544243  0.000337  0.318536  0.273918  0.000377  0.999107  0.0
H  H24  1  0.87890657  0.76230910  0.14692742  1  0.544766  0.000324  0.318589  0.27374  0.000377  0.999529  0.0
H  H25  1  0.12123286  0.76230644  0.35309078  1  0.544558  0.000322  0.318519  0.273653  0.000377  0.999326  0.0
H  H26  1  0.12096915  0.73772716  0.64697157  1  0.544971  -0.000323  0.318502  0.273989  -0.000376  0.998955  0.0
H  H27  1  0.87884448  0.73773916  0.85305169  1  0.544457  -0.000324  0.318615  0.274128  -0.000378  0.999152  0.0
H  H28  1  0.97679213  0.14118360  0.90364582  1  0.098911  -6.1e-05  0.107752  0.11721  -4.6e-05  1.004124  0.0
H  H29  1  0.02330304  0.14116020  0.59633692  1  0.09938  6.1e-05  0.107676  0.117027  4.2e-05  1.004209  0.0
H  H30  1  0.02316505  0.35880670  0.40366667  1  0.098931  -6.5e-05  0.107738  0.117033  -4.6e-05  1.004088  0.0
H  H31  1  0.97677177  0.35884540  0.09631697  1  0.099301  6.5e-05  0.107732  0.117117  5e-05  1.004008  0.0
H  H32  1  0.02321145  0.85882024  0.09631719  1  0.09921  6.2e-05  0.107663  0.117015  4.7e-05  1.00419  0.0
H  H33  1  0.97682825  0.85882536  0.40366926  1  0.099095  6.5e-05  0.107751  0.117111  4.7e-05  1.003985  0.0
H  H34  1  0.97670614  0.64116121  0.59633857  1  0.099434  -6e-05  0.107698  0.11709  -4.1e-05  1.004136  0.0
H  H35  1  0.02325057  0.64116726  0.90365073  1  0.09889  -6.5e-05  0.107728  0.117042  -4.9e-05  1.004144  0.0
H  H36  1  0.19004778  0.95954969  0.77910553  1  0.074632  7.7e-05  0.106242  0.109687  6.4e-05  1.0102  0.0
H  H37  1  0.80991355  0.95964110  0.72092012  1  0.115371  8e-05  0.106184  0.109798  6.7e-05  1.010306  0.0
H  H38  1  0.81001856  0.54049316  0.27915231  1  0.076054  -7.8e-05  0.106165  0.109648  -6.5e-05  1.009915  0.0
H  H39  1  0.19004698  0.54042313  0.22088133  1  0.075152  -7.7e-05  0.106147  0.109597  -6.4e-05  1.010176  0.0
H  H40  1  0.81001790  0.04047054  0.22085232  1  0.076105  -7.4e-05  0.10619  0.109705  -5.8e-05  1.009929  0.0
H  H41  1  0.19002442  0.04044279  0.27912314  1  0.075314  7.7e-05  0.106149  0.109562  5.7e-05  1.010229  0.0
H  H42  1  0.19007056  0.45958191  0.72089846  1  0.074642  -7.8e-05  0.106185  0.109821  -5.7e-05  1.010188  0.0
H  H43  1  0.80992731  0.45961475  0.77907135  1  0.115176  7.6e-05  0.106173  0.109788  6e-05  1.010478  0.0
H  H44  1  0.37909506  0.34291882  0.68193421  1  0.089678  -0.000992  0.114739  0.124391  -0.000645  1.00108  -0.001
H  H45  1  0.62086767  0.34292780  0.81808036  1  0.089424  0.000987  0.114676  0.124268  0.000644  1.001238  0.0
H  H46  1  0.62098379  0.15708652  0.18198344  1  0.134235  -0.000992  0.114682  0.124253  -0.000664  1.001014  -0.001
H  H47  1  0.37900345  0.15707788  0.31803455  1  0.134073  0.000983  0.114641  0.124218  0.000656  1.001058  0.001
H  H48  1  0.62101163  0.65708754  0.31800627  1  0.13409  -0.001003  0.114663  0.124301  -0.000673  1.000949  -0.001
H  H49  1  0.37903398  0.65707604  0.18195680  1  0.134248  -0.000985  0.114707  0.124272  -0.000664  1.000935  -0.001
H  H50  1  0.37909010  0.84292488  0.81805465  1  0.089702  0.00101  0.114692  0.124341  0.000663  1.001179  0.001
H  H51  1  0.62087125  0.84292722  0.68191110  1  0.089575  0.000988  0.114682  0.124285  0.000647  1.001243  0.0
H  H52  1  0.55115324  0.36256941  0.58767404  1  0.135061  -0.002343  0.120942  0.09543  -0.001469  0.990784  -0.002
H  H53  1  0.44876397  0.36256977  0.91233268  1  0.134895  0.002335  0.120969  0.095506  0.001468  0.990838  0.002
H  H54  1  0.44897659  0.13740520  0.08769575  1  0.134055  -0.0024  0.120866  0.095359  -0.001509  0.990746  -0.002
H  H55  1  0.55105501  0.13740614  0.41231225  1  0.134625  0.002375  0.120946  0.095548  0.00149  0.990799  0.002
H  H56  1  0.44902844  0.63739724  0.41229554  1  0.134034  -0.002401  0.120832  0.095302  -0.001505  0.990857  -0.002
H  H57  1  0.55109316  0.63741201  0.08768946  1  0.134751  -0.002365  0.120919  0.095483  -0.001487  0.990886  -0.002
H  H58  1  0.55111839  0.86257720  0.91232920  1  0.134985  0.002369  0.120923  0.095535  0.00149  0.990658  0.002
H  H59  1  0.44874471  0.86256115  0.58766296  1  0.13474  0.002319  0.120955  0.095494  0.001453  0.990892  0.002
H  H60  1  0.39743688  0.07514619  0.64796441  1  0.109211  -0.001024  0.114312  0.127331  -0.000676  0.992729  -0.001
H  H61  1  0.60256835  0.07515615  0.85202165  1  0.10884  0.001026  0.114362  0.127437  0.000683  0.992692  0.001
H  H62  1  0.60263591  0.42486254  0.14796094  1  0.108757  -0.001053  0.114349  0.12733  -0.0007  0.992679  -0.001
H  H63  1  0.39734282  0.42485246  0.35202970  1  0.108783  0.001036  0.114405  0.127308  0.000684  0.992768  0.001
H  H64  1  0.60263466  0.92486773  0.35204083  1  0.108639  -0.001047  0.114336  0.127272  -0.000691  0.992641  -0.001
H  H65  1  0.39736025  0.92484580  0.14798031  1  0.108837  -0.001036  0.114411  0.127409  -0.000689  0.99267  -0.001
H  H66  1  0.39742158  0.57514824  0.85204243  1  0.10908  0.001037  0.114329  0.127351  0.00069  0.99274  0.001
H  H67  1  0.60257758  0.57515832  0.64798258  1  0.108805  0.001012  0.114411  0.127456  0.000668  0.992817  0.001
H  H68  1  0.57428070  0.10553917  0.55568606  1  0.136112  -0.002262  0.123219  0.104716  -0.001424  0.993459  -0.002
H  H69  1  0.42571062  0.10553054  0.94429692  1  0.136472  0.002254  0.123204  0.104761  0.001421  0.993542  0.002
H  H70  1  0.42580206  0.39441490  0.05567141  1  0.137398  -0.002318  0.123367  0.104688  -0.001464  0.993589  -0.002
H  H71  1  0.57419760  0.39442242  0.44431528  1  0.137062  0.002297  0.123273  0.104574  0.001447  0.993556  0.002
H  H72  1  0.42581662  0.89440479  0.44433139  1  0.137226  -0.002319  0.123301  0.104585  -0.001462  0.993464  -0.002
H  H73  1  0.57422735  0.89443863  0.05570128  1  0.136855  -0.002286  0.123381  0.104813  -0.001443  0.993408  -0.002
H  H74  1  0.57425425  0.60556120  0.94432820  1  0.136762  0.002286  0.123284  0.104641  0.001443  0.99345  0.002
H  H75  1  0.42568530  0.60551650  0.55571202  1  0.136326  0.002236  0.123212  0.104831  0.001406  0.993507  0.002
C  C76  1  0.87436467  0.85847462  0.94087761  1  1.477565  0.000695  0.200818  0.55135  0.000214  4.175908  0.002
C  C77  1  0.12544381  0.85839148  0.55915722  1  1.476413  0.000676  0.20088  0.551556  0.000209  4.17526  0.002
C  C78  1  0.12581280  0.64150015  0.44090325  1  1.479309  -0.000703  0.200486  0.55097  -0.000212  4.175973  -0.002
C  C79  1  0.87439622  0.64156874  0.05911885  1  1.476712  -0.000692  0.200719  0.551567  -0.000212  4.176018  -0.002
C  C80  1  0.12576311  0.14152228  0.05909666  1  1.479256  -0.000702  0.200663  0.551078  -0.00021  4.175694  -0.002
C  C81  1  0.87431021  0.14153673  0.44088322  1  1.479436  0.000696  0.200828  0.551432  0.000212  4.175728  0.002
C  C82  1  0.87446379  0.35842741  0.55913813  1  1.477329  -0.000683  0.20046  0.551344  -0.000209  4.176248  -0.002
C  C83  1  0.12546325  0.35841115  0.94083993  1  1.476066  0.00068  0.200766  0.551661  0.000206  4.175074  0.002
C  C84  1  0.95272849  0.92680748  0.90566113  1  -0.003504  0.002323  -0.021035  -0.044529  0.001864  3.999887  0.003
C  C85  1  0.04717437  0.92677386  0.59437087  1  -0.003059  0.002299  -0.020822  -0.044068  0.001855  3.999822  0.002
C  C86  1  0.04740190  0.57317760  0.40569797  1  -0.006415  -0.002263  -0.020821  -0.04421  -0.001813  3.99958  -0.002
C  C87  1  0.95275141  0.57322081  0.09433072  1  -0.003105  -0.002321  -0.021085  -0.045007  -0.001865  4.000324  -0.003
C  C88  1  0.04737820  0.07319320  0.09430470  1  -0.006748  -0.002281  -0.02088  -0.044221  -0.001828  3.99945  -0.002
C  C89  1  0.95269565  0.07319973  0.40567520  1  -0.004903  0.002299  -0.020918  -0.044576  0.001847  4.0001  0.002
C  C90  1  0.95279150  0.42677708  0.59435092  1  -0.003073  -0.002312  -0.020963  -0.044219  -0.001862  4.000139  -0.002
C  C91  1  0.04716196  0.42677988  0.90562900  1  -0.002901  0.002311  -0.020623  -0.044061  0.001861  4.000188  0.002
C  C92  1  0.92714089  0.01108503  0.92298821  1  -0.083708  -0.000545  -0.078745  -0.08088  -0.000535  3.969645  -0.001
C  C93  1  0.07284682  0.01102960  0.57702841  1  -0.081211  -0.000596  -0.078615  -0.081256  -0.00058  3.970369  -0.001
C  C94  1  0.07292890  0.48888848  0.42302357  1  -0.084602  0.000609  -0.07887  -0.081201  0.000602  3.96965  0.001
C  C95  1  0.92714468  0.48895435  0.07698955  1  -0.082828  0.000549  -0.07875  -0.080954  0.000539  3.969097  0.001
C  C96  1  0.07292948  0.98890872  0.07697480  1  -0.084741  0.000558  -0.078761  -0.080956  0.000549  3.969165  0.001
C  C97  1  0.92713099  0.98892256  0.42301250  1  -0.084222  -0.000598  -0.078709  -0.08082  -0.00059  3.96922  -0.001
C  C98  1  0.92714616  0.51104099  0.57701405  1  -0.08209  0.000595  -0.078733  -0.081203  0.000583  3.969898  0.001
C  C99  1  0.07281087  0.51103814  0.92297158  1  -0.081032  -0.000548  -0.078607  -0.08113  -0.000532  3.970075  -0.001
C  C100  1  0.09197360  0.05726944  0.83748300  1  0.001717  0.000426  0.000716  0.028184  0.000366  4.017708  0.0
C  C101  1  0.90804298  0.05730793  0.66251421  1  0.000743  0.000431  0.001  0.02883  0.000372  4.016813  0.0
C  C102  1  0.90803942  0.44274781  0.33750858  1  0.002631  -0.000468  0.001084  0.028787  -0.000403  4.017351  0.0
C  C103  1  0.09196428  0.44273564  0.16248922  1  0.001217  -0.000423  0.000776  0.02861  -0.000363  4.017625  0.0
C  C104  1  0.90806631  0.94274259  0.16248611  1  0.002258  -0.000439  0.001094  0.029108  -0.00038  4.017319  0.0
C  C105  1  0.09197584  0.94273310  0.33750511  1  0.001109  0.000455  0.000875  0.028598  0.000392  4.01761  0.0
C  C106  1  0.09195128  0.55727241  0.66251121  1  0.002095  -0.000441  0.000815  0.028394  -0.00038  4.017234  0.0
C  C107  1  0.90802056  0.55729152  0.83747332  1  0.000512  0.000409  0.00092  0.028798  0.000354  4.017408  0.0
C  C108  1  0.16277095  0.12319839  0.79958456  1  0.965092  -6.5e-05  0.224612  0.268859  -5.9e-05  4.038483  0.0
C  C109  1  0.83723247  0.12325277  0.70040604  1  0.967014  1.8e-05  0.224542  0.268603  3e-06  4.038784  0.0
C  C110  1  0.83723363  0.37683040  0.29960635  1  0.966792  -1.7e-05  0.224645  0.268676  -1e-06  4.03911  0.0
C  C111  1  0.16276095  0.37680006  0.20038867  1  0.966219  6.6e-05  0.224508  0.268526  5.9e-05  4.0389  0.0
C  C112  1  0.83725958  0.87682373  0.20038737  1  0.966859  5.1e-05  0.22454  0.268583  7.9e-05  4.03917  0.0
C  C113  1  0.16278165  0.87680464  0.29960859  1  0.966281  1e-06  0.224631  0.26867  2e-05  4.038955  0.0
C  C114  1  0.16274184  0.62320811  0.70041015  1  0.965817  -1e-06  0.224764  0.269118  -2.1e-05  4.038059  0.0
C  C115  1  0.83721920  0.62323844  0.79958231  1  0.966689  -5e-05  0.224663  0.268827  -7.8e-05  4.038881  0.0
C  C116  1  0.28177026  0.19038449  0.72802647  1  0.944777  -0.000406  0.204231  0.238513  -0.000344  4.094744  0.0
C  C117  1  0.71821519  0.19042202  0.77197255  1  0.94378  0.000394  0.203994  0.238386  0.000342  4.094447  0.0
C  C118  1  0.71827958  0.30964598  0.22804724  1  0.944463  -0.000402  0.204336  0.238649  -0.000349  4.09534  0.0
C  C119  1  0.28172243  0.30961653  0.27195579  1  0.945369  0.000411  0.204131  0.238414  0.000348  4.0952  0.0
C  C120  1  0.71830362  0.80964646  0.27194827  1  0.989274  -0.000367  0.204249  0.238486  -0.000299  4.095502  0.0
C  C121  1  0.28174738  0.80961460  0.22804631  1  0.944589  -0.000369  0.204082  0.23843  -0.000293  4.09475  0.0
C  C122  1  0.28174978  0.69038811  0.77196974  1  0.944581  0.000368  0.204088  0.238407  0.000293  4.094519  0.0
C  C123  1  0.71821319  0.69042260  0.72802082  1  0.944019  0.000353  0.203893  0.238224  0.00029  4.09459  0.0
C  C124  1  0.04955701  0.90815837  0.85427430  1  -0.036931  -0.000756  -0.082887  -0.090185  -0.000813  3.977331  -0.001
C  C125  1  0.95034439  0.90817390  0.64576884  1  -0.036115  -0.000771  -0.083209  -0.090287  -0.000826  3.978074  -0.001
C  C126  1  0.95055665  0.59184628  0.35431969  1  -0.013327  0.000781  -0.082781  -0.090264  0.000833  3.977083  0.001
C  C127  1  0.04956998  0.59185352  0.14571851  1  -0.01401  0.000759  -0.08287  -0.090027  0.000815  3.977497  0.001
C  C128  1  0.95053913  0.09184862  0.14568730  1  -0.013419  0.000757  -0.082722  -0.090066  0.000813  3.976895  0.001
C  C129  1  0.04952211  0.09184507  0.35429084  1  -0.013495  -0.000784  -0.08285  -0.08993  -0.000835  3.977215  -0.001
C  C130  1  0.04962151  0.40815315  0.64573859  1  -0.036591  0.000778  -0.083014  -0.090127  0.000832  3.977915  0.001
C  C131  1  0.95034807  0.40816986  0.85423136  1  -0.035722  -0.000751  -0.083142  -0.090147  -0.000809  3.977757  -0.001
C  C132  1  0.37512359  0.20692215  0.67223653  1  0.030896  0.003202  0.01872  0.07845  0.002735  3.982462  0.002
C  C133  1  0.62485652  0.20693742  0.82776635  1  0.034491  -0.003181  0.018893  0.078778  -0.002719  3.98232  -0.002
C  C134  1  0.62497160  0.29308560  0.17225568  1  0.030615  0.003244  0.018614  0.078061  0.002773  3.983056  0.002
C  C135  1  0.37503107  0.29307468  0.32775052  1  0.030787  -0.003236  0.01858  0.078275  -0.002764  3.982497  -0.002
C  C136  1  0.62499951  0.79309051  0.32773774  1  -0.014692  0.003263  0.018501  0.077789  0.002788  3.983174  0.002
C  C137  1  0.37506505  0.79307272  0.17224969  1  0.030724  0.003219  0.018623  0.078181  0.002752  3.982668  0.002
C  C138  1  0.37510462  0.70692265  0.82775988  1  0.031346  -0.003216  0.018682  0.078244  -0.00275  3.982359  -0.002
C  C139  1  0.62486004  0.70693987  0.67222609  1  0.030861  -0.003179  0.018897  0.078832  -0.002718  3.982548  -0.002
C  C140  1  0.99692482  0.07603640  0.88949772  1  0.045032  -0.000428  -0.081965  -0.106031  -0.000325  3.944679  0.0
C  C141  1  0.00311077  0.07602704  0.61049726  1  0.042967  -0.000344  -0.081968  -0.105829  -0.000233  3.944847  0.0
C  C142  1  0.00308383  0.42396256  0.38952320  1  0.044234  0.000354  -0.081926  -0.105873  0.000236  3.944502  0.0
C  C143  1  0.99691960  0.42398629  0.11047260  1  0.044178  0.00043  -0.081929  -0.105984  0.000328  3.944329  0.0
C  C144  1  0.00311274  0.92397059  0.11046857  1  0.044328  0.000453  -0.081901  -0.106123  0.000347  3.944491  0.0
C  C145  1  0.99693734  0.92397365  0.38952253  1  0.045155  -0.00033  -0.082073  -0.106232  -0.000215  3.944888  0.0
C  C146  1  0.99689047  0.57601985  0.61049330  1  0.042676  0.000331  -0.081963  -0.105935  0.000218  3.944464  0.0
C  C147  1  0.00306875  0.57602511  0.88949463  1  0.043597  -0.000444  -0.081969  -0.105953  -0.000343  3.944566  0.0
C  C148  1  0.11776625  0.97288095  0.82009350  1  -0.02517  -0.000227  -0.080384  -0.103701  -8.9e-05  3.949021  0.0
C  C149  1  0.88219244  0.97292676  0.67992753  1  -0.067303  -0.000254  -0.080495  -0.104475  -0.000112  3.949553  0.0
C  C150  1  0.88229331  0.52714220  0.32013276  1  -0.048747  0.000284  -0.080667  -0.104104  0.000136  3.948606  0.0
C  C151  1  0.11776901  0.52711619  0.17989093  1  -0.048823  0.000226  -0.080265  -0.103669  8.9e-05  3.948654  0.0
C  C152  1  0.88229826  0.02713297  0.17986950  1  -0.048612  0.000256  -0.080704  -0.10439  0.000112  3.949008  0.0
C  C153  1  0.11775139  0.02712121  0.32011197  1  -0.048653  -0.000259  -0.080428  -0.10389  -0.000119  3.94879  0.0
C  C154  1  0.11778994  0.47289252  0.67990861  1  -0.025444  0.00025  -0.080428  -0.104158  0.00011  3.949463  0.0
C  C155  1  0.88218771  0.47291476  0.82006269  1  -0.067481  -0.000233  -0.080529  -0.104527  -9.3e-05  3.949938  0.0
C  C156  1  0.41789165  0.28888812  0.65457401  1  0.021444  -0.004823  -0.076084  -0.154866  -0.004258  3.938629  -0.004
C  C157  1  0.58206768  0.28889737  0.84543598  1  0.022327  0.004791  -0.076069  -0.154866  0.004232  3.93878  0.004
C  C158  1  0.58221632  0.21111376  0.15460572  1  -0.023527  -0.004952  -0.075851  -0.154197  -0.004348  3.937779  -0.004
C  C159  1  0.41779307  0.21110611  0.34540746  1  -0.023429  0.004919  -0.075793  -0.154404  0.004319  3.938056  0.004
C  C160  1  0.58224785  0.71111509  0.34538759  1  -0.023696  -0.004961  -0.075793  -0.15427  -0.004357  3.937642  -0.004
C  C161  1  0.41782811  0.71110331  0.15458851  1  -0.024301  -0.004875  -0.075859  -0.15432  -0.004282  3.938003  -0.004
C  C162  1  0.41787162  0.78889260  0.84542064  1  0.021285  0.004849  -0.076045  -0.154845  0.004283  3.938567  0.004
C  C163  1  0.58206757  0.78889773  0.65455649  1  0.021911  0.004764  -0.076117  -0.154835  0.004208  3.938892  0.004
C  C164  1  0.51340114  0.30010213  0.60266970  1  0.406386  0.000759  0.044615  0.087362  -8.3e-05  3.946352  0.001
C  C165  1  0.48653586  0.30010491  0.89733473  1  0.406683  -0.000754  0.044495  0.087214  8.3e-05  3.946311  -0.001
C  C166  1  0.48671120  0.19987770  0.10268951  1  0.408593  0.000753  0.044621  0.087222  -0.000107  3.945396  0.001
C  C167  1  0.51330529  0.19987397  0.39731655  1  0.407628  -0.000757  0.044545  0.087055  9.7e-05  3.945903  -0.001
C  C168  1  0.48674890  0.69987208  0.39730410  1  0.409637  0.000753  0.044603  0.087273  -0.000109  3.94533  0.001
C  C169  1  0.51334821  0.69988002  0.10268178  1  0.407934  0.000754  0.044538  0.087014  -9.2e-05  3.946061  0.001
C  C170  1  0.51336620  0.80011353  0.89733216  1  0.406596  -0.000753  0.044707  0.087424  9e-05  3.946172  -0.001
C  C171  1  0.48652138  0.80009899  0.60266053  1  0.407258  -0.000756  0.044633  0.087263  7.8e-05  3.946505  -0.001
C  C172  1  0.42936455  0.13946166  0.63551414  1  -0.00287  -0.005642  -0.075352  -0.146822  -0.004857  3.92118  -0.005
C  C173  1  0.57062653  0.13946835  0.86447845  1  -0.00757  0.005613  -0.075372  -0.146923  0.004832  3.921103  0.005
C  C174  1  0.57073979  0.36053368  0.13551584  1  0.005704  -0.005737  -0.075318  -0.146647  -0.004957  3.920715  -0.005
C  C175  1  0.42925542  0.36053032  0.36447907  1  0.00607  0.005701  -0.075289  -0.146466  0.004923  3.92084  0.005
C  C176  1  0.57075620  0.86053272  0.36448219  1  0.005959  -0.005763  -0.075263  -0.1464  -0.004977  3.920426  -0.005
C  C177  1  0.42928566  0.86053171  0.13552773  1  0.005502  -0.005667  -0.075288  -0.146626  -0.004894  3.920993  -0.005
C  C178  1  0.42933761  0.63946763  0.86448659  1  0.004894  0.005668  -0.075351  -0.14677  0.004896  3.92088  0.005
C  C179  1  0.57063217  0.63946722  0.63552007  1  -0.003705  0.005597  -0.075433  -0.147057  0.004815  3.921262  0.004
C  C180  1  0.52569392  0.15585307  0.58460378  1  0.425271  5.1e-05  0.044947  0.081009  -0.001046  3.937842  0.0
C  C181  1  0.47428129  0.15584952  0.91538563  1  0.426358  -5.1e-05  0.044914  0.080813  0.001045  3.937777  0.0
C  C182  1  0.47440308  0.34411835  0.08460106  1  0.417101  3.3e-05  0.044818  0.080865  -0.001064  3.937632  0.0
C  C183  1  0.52559629  0.34411823  0.41539046  1  0.41743  -3.6e-05  0.044866  0.080928  0.001056  3.937914  0.0
C  C184  1  0.47442214  0.84410916  0.41539818  1  0.417214  4e-05  0.044848  0.080923  -0.001059  3.937511  0.0
C  C185  1  0.52562973  0.84412974  0.08461915  1  0.444609  4e-05  0.044717  0.080782  -0.001051  3.937701  0.0
C  C186  1  0.52565792  0.65586720  0.91540277  1  0.416977  -3e-05  0.044891  0.08116  0.001056  3.936986  0.0
C  C187  1  0.47426787  0.65583960  0.58461666  1  0.426099  -5.6e-05  0.045018  0.080963  0.001032  3.937449  0.0
N  N188  1  0.56852425  0.23486792  0.56860204  1  -1.194473  -0.077689  -0.338102  -0.223004  -0.066369  3.654535  -0.064
N  N189  1  0.43142465  0.23486337  0.93139352  1  -1.195045  0.077174  -0.338136  -0.222921  0.065928  3.654198  0.064
N  N190  1  0.43158788  0.26509891  0.06861049  1  -1.194852  -0.079393  -0.338054  -0.2229  -0.067811  3.653445  -0.065
N  N191  1  0.56842608  0.26510330  0.43138615  1  -1.194909  0.078864  -0.338132  -0.222942  0.067362  3.653785  0.065
N  N192  1  0.43161876  0.76508928  0.43138631  1  -1.195677  -0.079718  -0.338027  -0.2229  -0.068083  3.653522  -0.066
N  N193  1  0.56846997  0.76511211  0.06861642  1  -1.221454  -0.078234  -0.338104  -0.222979  -0.066823  3.653778  -0.064
N  N194  1  0.56847077  0.73488476  0.93140273  1  -1.194504  0.078263  -0.33812  -0.223152  0.066853  3.654261  0.065
N  N195  1  0.43140761  0.73485452  0.56860783  1  -1.195282  0.076835  -0.338188  -0.222967  0.065641  3.654103  0.063
N  N196  1  0.24086031  0.11097064  0.74602642  1  -1.149362  0.000247  -0.330541  -0.416913  0.000191  3.19264  0.0
N  N197  1  0.75916556  0.11101297  0.75396927  1  -1.14896  -3.9e-05  -0.33049  -0.416727  -2.9e-05  3.192752  0.0
N  N198  1  0.75921307  0.38905248  0.24603132  1  -1.150626  3.5e-05  -0.330734  -0.417084  2.6e-05  3.192967  0.0
N  N199  1  0.24076610  0.38902158  0.25396801  1  -1.149643  -0.000249  -0.330577  -0.416841  -0.000192  3.193222  0.0
N  N200  1  0.75922880  0.88904896  0.25395865  1  -1.149647  0.000183  -0.330776  -0.417105  0.000139  3.19335  0.0
N  N201  1  0.24077944  0.88902427  0.24602988  1  -1.149129  0.000378  -0.33063  -0.416912  0.00029  3.193051  0.0
N  N202  1  0.24084675  0.61097720  0.75396454  1  -1.149457  -0.000376  -0.330701  -0.417045  -0.000288  3.192712  0.0
N  N203  1  0.75917421  0.61100999  0.74601236  1  -1.149002  -0.000185  -0.330513  -0.416918  -0.00014  3.192796  0.0
N  N204  1  0.23357777  0.25141758  0.76745754  1  -0.646115  0.00096  -0.223753  -0.248853  0.000773  3.094272  0.001
N  N205  1  0.76635875  0.25146511  0.73254047  1  -0.646106  -0.000764  -0.223648  -0.248736  -0.000617  3.094136  -0.001
N  N206  1  0.76638209  0.24862155  0.26749485  1  -0.646504  0.000773  -0.224033  -0.249358  0.000624  3.095291  0.001
N  N207  1  0.23365479  0.24858495  0.23250543  1  -0.64738  -0.000968  -0.223754  -0.249094  -0.000779  3.09447  -0.001
N  N208  1  0.76641527  0.74861589  0.23250828  1  -0.646176  0.000826  -0.223903  -0.249005  0.000652  3.095333  0.001
N  N209  1  0.23367881  0.74858726  0.26750326  1  -0.646644  0.001016  -0.223633  -0.249039  0.000804  3.093978  0.001
N  N210  1  0.23354299  0.75142956  0.73254887  1  -0.646618  -0.001012  -0.223579  -0.248553  -0.0008  3.094303  -0.001
N  N211  1  0.76632419  0.75145733  0.76746649  1  -0.646104  -0.000812  -0.223641  -0.248709  -0.00064  3.094149  -0.001
N  N212  1  0.15810898  0.20745836  0.81231080  1  -0.821883  -5.9e-05  -0.258962  -0.140918  -3.9e-05  3.657376  0.0
N  N213  1  0.84184178  0.20751560  0.68768223  1  -0.822236  0.000222  -0.259203  -0.141576  0.000172  3.658377  0.0
N  N214  1  0.84183006  0.29257625  0.31234988  1  -0.821687  -0.000218  -0.258751  -0.140029  -0.000168  3.658107  0.0
N  N215  1  0.15819844  0.29254213  0.18764600  1  -0.820986  5.2e-05  -0.258867  -0.140735  3.4e-05  3.657741  0.0
N  N216  1  0.84186648  0.79256565  0.18765033  1  -0.822091  0.000921  -0.258821  -0.14045  0.000739  3.658176  0.001
N  N217  1  0.15821805  0.79255063  0.31235962  1  -0.821447  0.00108  -0.258927  -0.140363  0.000869  3.65763  0.001
N  N218  1  0.15806455  0.70747423  0.68769384  1  -0.821584  -0.001082  -0.259005  -0.141325  -0.000871  3.657401  -0.001
N  N219  1  0.84180046  0.70749764  0.81232170  1  -0.821521  -0.000916  -0.25916  -0.141473  -0.000735  3.658593  -0.001
O  O220  1  0.77406730  0.87656080  0.98342502  1  -1.131552  -0.01168  -0.307704  -0.52269  -0.00966  2.266537  -0.011
O  O221  1  0.22576614  0.87643871  0.51660572  1  -1.129662  -0.009039  -0.308111  -0.523247  -0.007435  2.266364  -0.009
O  O222  1  0.22617604  0.62340376  0.48342341  1  -1.131759  0.014255  -0.307424  -0.522294  0.011826  2.26665  0.013
O  O223  1  0.77404318  0.62349075  0.01659294  1  -1.131966  0.011648  -0.307507  -0.522576  0.009629  2.266803  0.011
O  O224  1  0.22610735  0.12343043  0.01656897  1  -1.131732  0.013679  -0.307515  -0.522527  0.01134  2.266695  0.013
O  O225  1  0.77396915  0.12345356  0.48341126  1  -1.13236  -0.012721  -0.307649  -0.522691  -0.010533  2.266722  -0.012
O  O226  1  0.77412984  0.37649292  0.51659779  1  -1.130993  0.010582  -0.30763  -0.522798  0.008731  2.266607  0.01
O  O227  1  0.22579638  0.37646519  0.98338415  1  -1.129469  -0.00961  -0.30803  -0.523332  -0.007917  2.266208  -0.009
O  O228  1  0.90305237  0.78052750  0.92849398  1  -1.138815  -0.067879  -0.309808  -0.53878  -0.057354  2.233862  -0.058
O  O229  1  0.09666162  0.78046621  0.57154270  1  -1.139551  -0.0687  -0.309538  -0.538697  -0.05803  2.233953  -0.059
O  O230  1  0.09709807  0.71945847  0.42853370  1  -1.138833  0.067027  -0.309557  -0.538338  0.056641  2.233959  0.057
O  O231  1  0.90313748  0.71951495  0.07148750  1  -1.138781  0.067872  -0.309811  -0.538785  0.057346  2.234069  0.058
O  O232  1  0.09705081  0.21947633  0.07147419  1  -1.138471  0.067217  -0.309662  -0.538439  0.056796  2.2338  0.057
O  O233  1  0.90301859  0.21948910  0.42850760  1  -1.138733  -0.067533  -0.309712  -0.538529  -0.057062  2.234043  -0.058
O  O234  1  0.90320195  0.28048989  0.57151800  1  -1.139344  0.068227  -0.309465  -0.538692  0.057638  2.234134  0.058
O  O235  1  0.09669973  0.28048006  0.92846002  1  -1.139103  -0.068548  -0.309661  -0.538851  -0.057904  2.233658  -0.058
