# generated using pymatgen
data_ZnH19C32SNO7
_symmetry_space_group_name_H-M   'P 1'
_cell_length_a   12.69794018
_cell_length_b   13.65635700
_cell_length_c   17.16302131
_cell_angle_alpha   89.32940957
_cell_angle_beta   87.25997251
_cell_angle_gamma   85.67551584
_symmetry_Int_Tables_number   1
_chemical_formula_structural   ZnH19C32SNO7
_chemical_formula_sum   'Zn2 H38 C64 S2 N2 O14'
_cell_volume   2964.23423858
_cell_formula_units_Z   2
loop_
 _symmetry_equiv_pos_site_id
 _symmetry_equiv_pos_as_xyz
  1  'x, y, z'
loop_
 _atom_site_type_symbol
 _atom_site_label
 _atom_site_symmetry_multiplicity
 _atom_site_fract_x
 _atom_site_fract_y
 _atom_site_fract_z
 _atom_site_occupancy
 _atom_site_pbe_bader_charge
 _atom_site_pbe_bader_spin_density
 _atom_site_pbe_cm5_charge
 _atom_site_pbe_ddec_charge
 _atom_site_pbe_ddec_spin_density
 _atom_site_pbe_ddec_sum_bond_order
 _atom_site_pbe_magmom
Zn  Zn0  1  0.39223252  0.48391250  0.50003178  1  1.322444  0  0.694198  0.889535  0  2.430346  0
Zn  Zn1  1  0.61013693  0.50480287  0.50505324  1  1.328855  0  0.695789  0.889962  0  2.458937  0
H  H2  1  0.68012895  0.47571750  0.25548791  1  0.100752  0  0.109062  0.121554  0  0.989255  0
H  H3  1  0.31839240  0.57962360  0.73794496  1  0.090144  0  0.111322  0.121122  0  0.979109  0
H  H4  1  0.62482893  0.55873059  0.99738695  1  0.104437  0  0.100344  0.097801  0  1.031093  0
H  H5  1  0.38225995  0.58944895  0.00538788  1  0.041491  0  0.100205  0.098169  0  1.028191  0
H  H6  1  0.31600194  0.61831771  0.88031932  1  0.048725  0  0.104769  0.107182  0  0.991539  0
H  H7  1  0.69346926  0.50322864  0.11101528  1  0.07748  0  0.102025  0.104814  0  1.008886  0
H  H8  1  0.74952435  0.48295047  0.73117960  1  0.055529  0  0.093248  0.09273  0  1.017808  0
H  H9  1  0.88218750  0.36315270  0.66760326  1  0.064728  0  0.090781  0.084477  0  1.015334  0
H  H10  1  0.83631952  0.19213626  0.64380366  1  0.053402  0  0.097043  0.090756  0  1.001058  0
H  H11  1  0.65783616  0.14133053  0.68671163  1  0.083269  0  0.097728  0.090118  0  1.004892  0
H  H12  1  0.52672849  0.26095660  0.75228275  1  0.059133  0  0.101375  0.102398  0  0.991894  0
H  H13  1  0.43249044  0.79526123  0.29897474  1  0.028971  0  0.097351  0.096742  0  0.999423  0
H  H14  1  0.27768152  0.87912530  0.37126480  1  0.077169  0  0.095053  0.090376  0  1.024101  0
H  H15  1  0.11136877  0.79520104  0.39224449  1  0.048481  0  0.095681  0.09048  0  1.010691  0
H  H16  1  0.10103137  0.62621105  0.34073381  1  0.04122  0  0.085325  0.079118  0  1.039516  0
H  H17  1  0.25788232  0.54082456  0.27228994  1  0.05486  0  0.093731  0.093118  0  1.005589  0
H  H18  1  0.24231318  0.63451692  0.13678688  1  0.089971  0  0.099363  0.099071  0  1.01281  0
H  H19  1  0.12628418  0.76274818  0.07362155  1  0.032976  0  0.100474  0.095517  0  0.993846  0
H  H20  1  0.20115148  0.91371915  0.01833233  1  0.043489  0  0.099901  0.095081  0  0.997546  0
H  H21  1  0.39384264  0.93432949  0.02638297  1  0.077662  0  0.10023  0.095797  0  0.994087  0
H  H22  1  0.51014600  0.80433274  0.08811004  1  0.075869  0  0.099807  0.10004  0  0.997003  0
H  H23  1  0.49762852  0.33448868  0.97396465  1  0.046633  0  0.101312  0.101814  0  0.99327  0
H  H24  1  0.61756314  0.23948964  0.06209129  1  0.067667  0  0.101704  0.097085  0  0.99155  0
H  H25  1  0.81015789  0.26491914  0.05624941  1  0.054212  0  0.100918  0.095597  0  0.996044  0
H  H26  1  0.88162052  0.38443125  0.96020876  1  0.058305  0  0.101447  0.097207  0  0.993263  0
H  H27  1  0.76161974  0.47822193  0.87196250  1  0.072076  0  0.099956  0.099591  0  1.007778  0
H  H28  1  0.27488262  0.95455766  0.55697035  1  0.097031  0  0.105458  0.107722  0  0.99766  0
H  H29  1  0.10528557  0.05686996  0.54938057  1  0.068905  0  0.102126  0.097224  0  0.994141  0
H  H30  1  0.08938663  0.19589661  0.45473559  1  0.108328  0  0.092633  0.091979  0  1.032583  0
H  H31  1  0.24827083  0.23311516  0.36840503  1  0.010836  0  0.090981  0.073565  0  1.022347  0
H  H32  1  0.41575576  0.13333669  0.37795033  1  0.076014  0  0.106388  0.109868  0  0.994087  0
H  H33  1  0.72712756  0.03935929  0.55661441  1  0.063588  0  0.100591  0.101131  0  1.017855  0
H  H34  1  0.89629543  0.93472541  0.55814713  1  0.053591  0  0.097325  0.093686  0  1.002404  0
H  H35  1  0.92470944  0.78837493  0.47239878  1  0.058637  0  0.093632  0.091349  0  1.023521  0
H  H36  1  0.78166275  0.74592136  0.38614907  1  0.059172  0  0.104955  0.107492  0  0.981914  0
H  H37  1  0.61270449  0.84833732  0.38671531  1  0.070802  0  0.104145  0.106147  0  1.003224  0
H  H38  1  0.86751308  0.66558903  0.64994204  1  0.666428  0  0.370314  0.41955  0  0.80893  0
H  H39  1  0.12836620  0.34236841  0.34184123  1  0.655894  0  0.355925  0.404107  0  0.847613  0
C  C40  1  0.45868359  0.68210339  0.50592586  1  1.647029  0  0.217731  0.655061  0  4.256913  0
C  C41  1  0.54932197  0.30835102  0.49443942  1  1.659383  0  0.22034  0.660916  0  4.249061  0
C  C42  1  0.56541191  0.20322414  0.48786611  1  0.15894  0  -0.030214  -0.156737  0  3.914454  0
C  C43  1  0.44433320  0.78754767  0.50100002  1  -0.088495  0  -0.028925  -0.154595  0  3.911837  0
C  C44  1  0.55738159  0.01285172  0.47388025  1  0.060121  0  0.019574  0.048702  0  4.005528  0
C  C45  1  0.45786724  0.97606876  0.47538508  1  0.174557  0  0.018063  0.046388  0  4.004181  0
C  C46  1  0.44984663  0.87513744  0.48840988  1  -0.159065  0  -0.026066  -0.049851  0  4.148138  0
C  C47  1  0.56399460  0.11473827  0.47969922  1  -0.458318  0  -0.026442  -0.04674  0  4.143139  0
C  C48  1  0.03686246  0.48047903  0.47229324  1  0.074211  0  0.015027  -0.139403  0  3.982507  0
C  C49  1  0.96473479  0.52312852  0.52692478  1  0.064267  0  0.0144  -0.138599  0  3.983699  0
C  C50  1  0.85577581  0.52621094  0.51918062  1  0.850574  0  0.218486  0.285178  0  4.05648  0
C  C51  1  0.14576116  0.47338444  0.48105050  1  0.831162  0  0.220576  0.290723  0  4.043763  0
C  C52  1  0.47547080  0.48746196  0.65245223  1  1.585485  0  0.217706  0.596899  0  4.186634  0
C  C53  1  0.51945518  0.52148364  0.35352789  1  1.570016  0  0.214714  0.593323  0  4.17477  0
C  C54  1  0.46812015  0.49474763  0.73955394  1  0.059396  0  -0.00076  -0.039366  0  3.912654  0
C  C55  1  0.52665568  0.55239786  0.26946679  1  -0.043868  0  -0.007483  -0.057022  0  3.910141  0
C  C56  1  0.54876610  0.45082693  0.78524783  1  -0.019245  0  0.006015  0.011197  0  3.925502  0
C  C57  1  0.44731491  0.61422820  0.23434494  1  -0.027239  0  0.008844  0.019375  0  3.907743  0
C  C58  1  0.54600322  0.46936258  0.86579546  1  -0.00839  0  0.003941  -0.015864  0  3.884846  0
C  C59  1  0.45758424  0.63501782  0.15377449  1  0.008953  0  0.002452  -0.021833  0  3.89147  0
C  C60  1  0.46442841  0.53589480  0.89941445  1  -0.026776  0  -0.005191  0.069099  0  4.00523  0
C  C61  1  0.54298689  0.58798809  0.10813903  1  -0.02878  0  -0.002079  0.077552  0  4.002491  0
C  C62  1  0.38069440  0.57147303  0.85316812  1  -0.032994  0  -0.085722  -0.126366  0  3.993127  0
C  C63  1  0.62592324  0.53541242  0.14610863  1  -0.058977  0  -0.088106  -0.129203  0  3.989538  0
C  C64  1  0.38203090  0.55099605  0.77425040  1  -0.087048  0  -0.082363  -0.095151  0  3.999048  0
C  C65  1  0.61783139  0.51818049  0.22562772  1  -0.014924  0  -0.08372  -0.090374  0  4.004233  0
C  C66  1  0.46116650  0.56902213  0.97972401  1  0.036352  0  -0.079338  -0.107016  0  3.951515  0
C  C67  1  0.54610146  0.57660604  0.02400921  1  -0.066584  0  -0.078161  -0.104848  0  3.956279  0
C  C68  1  0.63019363  0.37943719  0.74769905  1  -0.003506  0  -0.009082  0.073679  0  3.997971  0
C  C69  1  0.73046154  0.40737030  0.72301941  1  -0.048487  0  -0.092385  -0.121317  0  3.98664  0
C  C70  1  0.80432127  0.34029512  0.68627999  1  -0.028293  0  -0.097796  -0.078976  0  4.031629  0
C  C71  1  0.77880435  0.24425087  0.67325024  1  -0.096198  0  -0.095337  -0.087219  0  4.03597  0
C  C72  1  0.67898027  0.21586426  0.69720704  1  -0.029867  0  -0.09511  -0.079228  0  4.040979  0
C  C73  1  0.60502887  0.28310345  0.73414045  1  -0.056631  0  -0.090444  -0.128244  0  3.966128  0
C  C74  1  0.35533181  0.66256950  0.28056845  1  -0.026027  0  -0.007837  0.07885  0  3.994342  0
C  C75  1  0.35992842  0.75789091  0.30865015  1  -0.031133  0  -0.091353  -0.128706  0  3.965618  0
C  C76  1  0.27264651  0.80529240  0.34894070  1  -0.09104  0  -0.093887  -0.074186  0  4.025347  0
C  C77  1  0.17951903  0.75809336  0.36095639  1  -0.052659  0  -0.097279  -0.085381  0  4.024656  0
C  C78  1  0.17417832  0.66303671  0.33272118  1  0.024047  0  -0.104897  -0.094444  0  4.050761  0
C  C79  1  0.26155245  0.61551492  0.29325769  1  -0.002148  0  -0.093143  -0.116377  0  3.990915  0
C  C80  1  0.38441911  0.71019672  0.11658774  1  -0.041625  0  -0.007194  0.076474  0  4.006509  0
C  C81  1  0.27572328  0.69997693  0.11233954  1  -0.105587  0  -0.090988  -0.13336  0  3.988428  0
C  C82  1  0.21046077  0.77237732  0.07678701  1  -0.010726  0  -0.094357  -0.081626  0  4.041455  0
C  C83  1  0.25241978  0.85693645  0.04568329  1  -0.080425  0  -0.097719  -0.096574  0  4.045994  0
C  C84  1  0.36038574  0.86831773  0.05004177  1  -0.058596  0  -0.096502  -0.085332  0  4.049072  0
C  C85  1  0.42584061  0.79527990  0.08472299  1  0.010023  0  -0.091655  -0.13383  0  3.980184  0
C  C86  1  0.62129568  0.41282424  0.91669032  1  0.014212  0  -0.006144  0.075904  0  4.004172  0
C  C87  1  0.58206801  0.34499349  0.97084578  1  -0.045145  0  -0.088968  -0.128127  0  3.971629  0
C  C88  1  0.64945949  0.29185269  0.02046156  1  -0.008469  0  -0.094136  -0.084009  0  4.041007  0
C  C89  1  0.75748002  0.30593439  0.01713039  1  -0.093484  0  -0.095498  -0.094134  0  4.041247  0
C  C90  1  0.79746194  0.37287198  0.96329387  1  -0.05942  0  -0.094229  -0.084996  0  4.043407  0
C  C91  1  0.73002446  0.42545584  0.91325172  1  -0.063346  0  -0.091733  -0.135945  0  3.989767  0
C  C92  1  0.35763471  0.03805191  0.46928765  1  -0.029315  0  -0.003642  0.071189  0  3.98468  0
C  C93  1  0.26836253  0.01647017  0.51631651  1  -0.03566  0  -0.082474  -0.117964  0  3.952437  0
C  C94  1  0.17323552  0.07366393  0.51162385  1  -0.027532  0  -0.091673  -0.077085  0  4.028718  0
C  C95  1  0.16453008  0.15219053  0.45870732  1  -0.095865  0  -0.097391  -0.094578  0  4.030774  0
C  C96  1  0.25240513  0.17271763  0.41083442  1  -0.057423  0  -0.096901  -0.082647  0  4.053263  0
C  C97  1  0.34819843  0.11667369  0.41590091  1  -0.034277  0  -0.080772  -0.107947  0  3.951686  0
C  C98  1  0.65763034  0.94981913  0.47294945  1  -0.029967  0  -0.006203  0.071538  0  3.985685  0
C  C99  1  0.73927592  0.97416412  0.52014243  1  -0.054528  0  -0.089254  -0.124389  0  3.965469  0
C  C100  1  0.83400053  0.91556855  0.52069482  1  0.010654  0  -0.100663  -0.094794  0  4.060082  0
C  C101  1  0.84968818  0.83304622  0.47272873  1  -0.088374  0  -0.100361  -0.101209  0  4.04316  0
C  C102  1  0.76979893  0.80937662  0.42445184  1  -0.041224  0  -0.091276  -0.075596  0  4.015545  0
C  C103  1  0.67436321  0.86701322  0.42473697  1  0.012864  0  -0.080004  -0.107891  0  3.950772  0
S  S104  1  0.00970989  0.58153370  0.61209931  1  3.132312  0  0.558033  1.139944  0  6.044398  0
S  S105  1  0.98973221  0.42652871  0.38586046  1  3.140057  0  0.559208  1.140818  0  6.033696  0
N  N106  1  0.23697022  0.46469713  0.48712392  1  -1.062314  0  -0.25589  -0.245335  0  3.0572  0
N  N107  1  0.76433122  0.52954049  0.51480485  1  -1.137718  0  -0.25725  -0.246586  0  3.073764  0
O  O108  1  0.37856473  0.63335694  0.52092127  1  -1.134077  0  -0.309793  -0.532798  0  2.241476  0
O  O109  1  0.62724506  0.35554644  0.51232072  1  -1.13327  0  -0.306136  -0.529072  0  2.263222  0
O  O110  1  0.55435255  0.64863568  0.49293787  1  -1.129586  0  -0.308034  -0.54003  0  2.287869  0
O  O111  1  0.45583876  0.34325947  0.48106359  1  -1.136402  0  -0.30916  -0.54332  0  2.273277  0
O  O112  1  0.39583924  0.46109142  0.61823156  1  -1.150286  0  -0.311957  -0.532045  0  2.273576  0
O  O113  1  0.60656708  0.50013597  0.38596745  1  -1.151384  0  -0.316995  -0.544497  0  2.300879  0
O  O114  1  0.56133288  0.51365378  0.62019107  1  -1.156241  0  -0.307699  -0.5471  0  2.346451  0
O  O115  1  0.42751013  0.51683570  0.38556154  1  -1.152357  0  -0.304431  -0.541648  0  2.371958  0
O  O116  1  0.07272664  0.50920241  0.65349335  1  -1.239527  0  -0.267953  -0.453432  0  2.103373  0
O  O117  1  0.04705615  0.67397497  0.58707312  1  -1.254941  0  -0.281415  -0.490317  0  2.111314  0
O  O118  1  0.90086845  0.60050354  0.66265442  1  -1.208784  0  -0.330456  -0.503708  0  2.171599  0
O  O119  1  0.95207101  0.33315414  0.40791936  1  -1.258844  0  -0.278962  -0.485445  0  2.111886  0
O  O120  1  0.92602935  0.50157258  0.34775958  1  -1.249428  0  -0.26872  -0.458164  0  2.11214  0
O  O121  1  0.09721595  0.40951088  0.33351700  1  -1.21096  0  -0.332012  -0.501304  0  2.182042  0
