# generated using pymatgen
data_ZnH13C10N5O4
_symmetry_space_group_name_H-M   'P 1'
_cell_length_a   7.18514868
_cell_length_b   9.13761195
_cell_length_c   19.02520000
_cell_angle_alpha   90.00000000
_cell_angle_beta   90.89610484
_cell_angle_gamma   90.00000000
_symmetry_Int_Tables_number   1
_chemical_formula_structural   ZnH13C10N5O4
_chemical_formula_sum   'Zn4 H52 C40 N20 O16'
_cell_volume   1248.94864912
_cell_formula_units_Z   4
loop_
 _symmetry_equiv_pos_site_id
 _symmetry_equiv_pos_as_xyz
  1  'x, y, z'
loop_
 _atom_site_type_symbol
 _atom_site_label
 _atom_site_symmetry_multiplicity
 _atom_site_fract_x
 _atom_site_fract_y
 _atom_site_fract_z
 _atom_site_occupancy
 _atom_site_hle17_bader_spin_density
 _atom_site_hle17_ddec_charge
 _atom_site_hle17_ddec_spin_density
 _atom_site_hle17_ddec_sum_bond_order
 _atom_site_hle17_magmom
 _atom_site_hse06_10hf_bader_spin_density
 _atom_site_hse06_10hf_ddec_charge
 _atom_site_hse06_10hf_ddec_spin_density
 _atom_site_hse06_10hf_ddec_sum_bond_order
 _atom_site_hse06_10hf_magmom
 _atom_site_hse06_bader_spin_density
 _atom_site_hse06_ddec_charge
 _atom_site_hse06_ddec_spin_density
 _atom_site_hse06_ddec_sum_bond_order
 _atom_site_hse06_magmom
 _atom_site_pbe_bader_charge
 _atom_site_pbe_bader_spin_density
 _atom_site_pbe_cm5_charge
 _atom_site_pbe_ddec_charge
 _atom_site_pbe_ddec_spin_density
 _atom_site_pbe_ddec_sum_bond_order
 _atom_site_pbe_magmom
Zn  Zn0  1  0.66176105  0.29704150  0.83950196  1  0  0.950179  0  1.898155  0  0  0.75644  0  2.371812  0  0  0.797442  0  2.326041  0  1.205893  0  0.700081  0.727876  0  2.402536  0
Zn  Zn1  1  0.33823757  0.79703866  0.16049808  1  0  0.950166  0  1.89813  0  0  0.756433  0  2.371785  0  0  0.797437  0  2.326012  0  1.205793  0  0.700072  0.727868  0  2.402507  0
Zn  Zn2  1  0.39908300  0.79253092  0.66534835  1  0  0.948215  0  1.901273  0  0  0.753375  0  2.379349  0  0  0.794937  0  2.332321  0  1.198664  0  0.69996  0.724299  0  2.411115  0
Zn  Zn3  1  0.60091423  0.29252829  0.33465116  1  0  0.948219  0  1.90129  0  0  0.753372  0  2.379364  0  0  0.794936  0  2.332336  0  1.198552  0  0.699972  0.724301  0  2.411133  0
H  H4  1  0.78172035  0.30570132  0.67563456  1  0  0.099576  0  0.979594  0  0  0.111171  0  1.041847  0  0  0.113409  0  1.040847  0  0.106284  0  0.111377  0.109443  0  1.042872  0
H  H5  1  0.21827966  0.80570066  0.32436707  1  0  0.099612  0  0.979536  0  0  0.111159  0  1.041852  0  0  0.113398  0  1.040855  0  0.106253  0  0.111402  0.109433  0  1.042877  0
H  H6  1  0.49019177  0.60685112  0.79958862  1  0  0.082594  0  1.0011  0  0  0.088466  0  1.073005  0  0  0.091428  0  1.069355  0  0.158934  0  0.118517  0.086375  0  1.075543  0
H  H7  1  0.50980963  0.10684630  0.20041092  1  0  0.082557  0  1.001157  0  0  0.088428  0  1.073071  0  0  0.091389  0  1.069424  0  0.159091  0  0.118524  0.086339  0  1.075606  0
H  H8  1  0.74371927  0.43834210  0.54992549  1  0  0.097242  0  0.924413  0  0  0.113191  0  0.982246  0  0  0.115083  0  0.981047  0  0.043271  0  0.097978  0.111418  0  0.984018  0
H  H9  1  0.25627935  0.93833926  0.45007455  1  0  0.097211  0  0.924406  0  0  0.113162  0  0.982241  0  0  0.115057  0  0.98104  0  0.043501  0  0.097955  0.111387  0  0.984014  0
H  H10  1  0.68274857  0.62696031  0.54952070  1  0  0.101299  0  0.93788  0  0  0.113681  0  1.002031  0  0  0.115339  0  1.001438  0  0.078403  0  0.097386  0.11237  0  1.002649  0
H  H11  1  0.31724727  0.12696096  0.45047933  1  0  0.101283  0  0.937877  0  0  0.113677  0  1.002024  0  0  0.115338  0  1.00143  0  0.078251  0  0.097376  0.112361  0  1.002642  0
H  H12  1  0.35244639  0.57501019  0.54053859  1  0  0.078786  0  0.933611  0  0  0.084796  0  0.998735  0  0  0.088122  0  0.99531  0  0.109905  0  0.116192  0.083546  0  0.999208  0
H  H13  1  0.64754944  0.07500975  0.45946091  1  0  0.07883  0  0.933591  0  0  0.084846  0  0.998711  0  0  0.088159  0  0.995299  0  0.109865  0  0.116197  0.083607  0  0.999178  0
H  H14  1  0.23539065  0.39897842  0.73171694  1  0  0.29654  0  0.888273  0  0  0.281845  0  0.947981  0  0  0.287884  0  0.944915  0  0.482962  0  0.319306  0.277271  0  0.950746  0
H  H15  1  0.76461492  0.89897886  0.26828420  1  0  0.296487  0  0.888364  0  0  0.281875  0  0.947981  0  0  0.287886  0  0.94495  0  0.482975  0  0.319306  0.277298  0  0.950748  0
H  H16  1  0.92117363  0.35987192  0.93163190  1  0  0.296029  0  0.88125  0  0  0.293019  0  0.924736  0  0  0.297477  0  0.922893  0  0.441538  0  0.303255  0.289696  0  0.926406  0
H  H17  1  0.07882360  0.85987127  0.06836814  1  0  0.296068  0  0.881225  0  0  0.293048  0  0.92473  0  0  0.297506  0  0.922883  0  0.441545  0  0.30325  0.289723  0  0.926404  0
H  H18  1  0.93919634  0.18599170  0.90987787  1  0  0.305794  0  0.932256  0  0  0.291984  0  0.993741  0  0  0.298873  0  0.988404  0  0.49146  0  0.288576  0.287194  0  0.997347  0
H  H19  1  0.06080228  0.68599105  0.09012218  1  0  0.305754  0  0.93229  0  0  0.291975  0  0.993727  0  0  0.298863  0  0.988392  0  0.491459  0  0.288583  0.287186  0  0.997331  0
H  H20  1  0.21275231  0.30164665  0.86916706  1  0  0.099035  0  0.942976  0  0  0.110996  0  1.006442  0  0  0.113039  0  1.005989  0  0.083506  0  0.110521  0.109491  0  1.006978  0
H  H21  1  0.78724631  0.80164490  0.13083351  1  0  0.099022  0  0.943029  0  0  0.111022  0  1.006423  0  0  0.113067  0  1.005967  0  0.083505  0  0.11053  0.109518  0  1.006961  0
H  H22  1  0.07602025  0.44726784  0.83384471  1  0  0.111228  0  0.960438  0  0  0.122811  0  1.023029  0  0  0.125991  0  1.020725  0  0.108733  0  0.115661  0.120228  0  1.025322  0
H  H23  1  0.92397698  0.94726610  0.16615585  1  0  0.111261  0  0.960425  0  0  0.12282  0  1.023029  0  0  0.125996  0  1.020737  0  0.108766  0  0.115661  0.120241  0  1.025315  0
H  H24  1  0.44944998  0.26265834  0.57026865  1  0  0.302265  0  0.934703  0  0  0.283166  0  1.002314  0  0  0.291193  0  0.996747  0  0.516991  0  0.301474  0.27825  0  1.005622  0
H  H25  1  0.55055142  0.76266097  0.42972983  1  0  0.302243  0  0.934745  0  0  0.283135  0  1.002359  0  0  0.291151  0  0.996799  0  0.51701  0  0.301484  0.278218  0  1.005666  0
H  H26  1  0.03777837  0.19006060  0.64091128  1  0  0.097552  0  0.91499  0  0  0.112521  0  0.972121  0  0  0.114867  0  0.96965  0  0.069799  0  0.117507  0.110619  0  0.974292  0
H  H27  1  0.96222860  0.69006213  0.35908934  1  0  0.097615  0  0.91495  0  0  0.11257  0  0.972052  0  0  0.114916  0  0.96958  0  0.069748  0  0.11754  0.110668  0  0.974225  0
H  H28  1  0.28191452  0.15427663  0.64877053  1  0  0.090731  0  0.954642  0  0  0.100461  0  1.023086  0  0  0.102141  0  1.021964  0  0.089244  0  0.108286  0.099073  0  1.02418  0
H  H29  1  0.71809524  0.65427817  0.35123011  1  0  0.090744  0  0.954611  0  0  0.100468  0  1.023023  0  0  0.102131  0  1.02192  0  0.089246  0  0.108287  0.099078  0  1.024125  0
H  H30  1  0.60053423  0.10169834  0.70478800  1  0  0.079058  0  0.986372  0  0  0.085451  0  1.058763  0  0  0.088175  0  1.054949  0  0.148392  0  0.119913  0.083533  0  1.061416  0
H  H31  1  0.39946857  0.60169769  0.29521207  1  0  0.079011  0  0.986393  0  0  0.085416  0  1.058762  0  0  0.088138  0  1.05495  0  0.148417  0  0.119906  0.083501  0  1.06141  0
H  H32  1  0.29353853  0.95003925  0.94693382  1  0  0.094704  0  0.944001  0  0  0.108014  0  1.007329  0  0  0.109883  0  1.006202  0  0.079261  0  0.095797  0.10637  0  1.009066  0
H  H33  1  0.70645870  0.45004100  0.05306517  1  0  0.094715  0  0.943989  0  0  0.108005  0  1.007334  0  0  0.109875  0  1.006208  0  0.079263  0  0.095809  0.106361  0  1.009068  0
H  H34  1  0.34737420  0.13823524  0.94529018  1  0  0.103939  0  0.951865  0  0  0.115552  0  1.018835  0  0  0.117448  0  1.017852  0  0.096625  0  0.099344  0.114292  0  1.019316  0
H  H35  1  0.65262581  0.63823349  0.05470934  1  0  0.103957  0  0.951814  0  0  0.115551  0  1.018789  0  0  0.117445  0  1.017806  0  0.096631  0  0.099358  0.114292  0  1.01927  0
H  H36  1  0.66824605  0.10105376  0.97687496  1  0  0.07187  0  0.932506  0  0  0.079704  0  0.997864  0  0  0.082722  0  0.994753  0  0.100004  0  0.115487  0.078562  0  0.998297  0
H  H37  1  0.33175396  0.60105529  0.02312562  1  0  0.071856  0  0.932501  0  0  0.079692  0  0.997859  0  0  0.08271  0  0.994748  0  0.100033  0  0.115473  0.07855  0  0.99829  0
H  H38  1  0.29966858  0.80234530  0.82645881  1  0  0.096978  0  0.998191  0  0  0.107287  0  1.062948  0  0  0.109468  0  1.062215  0  0.086915  0  0.110404  0.105617  0  1.063767  0
H  H39  1  0.70033143  0.30234267  0.17354125  1  0  0.097006  0  0.99813  0  0  0.107313  0  1.062896  0  0  0.109495  0  1.06216  0  0.086877  0  0.110422  0.105642  0  1.063715  0
H  H40  1  0.09622272  0.81194518  0.59284437  1  0  0.292821  0  0.871608  0  0  0.29622  0  0.904007  0  0  0.300414  0  0.90258  0  0.412071  0  0.309524  0.293239  0  0.905086  0
H  H41  1  0.90377451  0.31194693  0.40715567  1  0  0.292806  0  0.871603  0  0  0.296204  0  0.904006  0  0  0.300397  0  0.90258  0  0.412067  0  0.3095  0.293223  0  0.905086  0
H  H42  1  0.09741421  0.65434055  0.63393954  1  0  0.316114  0  0.930323  0  0  0.300006  0  0.995911  0  0  0.30756  0  0.989604  0  0.488637  0  0.291033  0.294797  0  1.000173  0
H  H43  1  0.90258858  0.15434230  0.36606053  1  0  0.31613  0  0.930342  0  0  0.300019  0  0.995925  0  0  0.307574  0  0.989617  0  0.488643  0  0.291056  0.294812  0  1.000185  0
H  H44  1  0.83453017  0.80051003  0.67047637  1  0  0.089139  0  0.922724  0  0  0.104095  0  0.983948  0  0  0.105937  0  0.983254  0  0.078414  0  0.110674  0.102713  0  0.984688  0
H  H45  1  0.16546845  0.30051178  0.32952368  1  0  0.08916  0  0.922699  0  0  0.104089  0  0.983956  0  0  0.10593  0  0.983263  0  0.07844  0  0.110681  0.102705  0  0.984698  0
H  H46  1  0.99099422  0.94319501  0.69474954  1  0  0.095702  0  0.954076  0  0  0.108276  0  1.018843  0  0  0.110798  0  1.017114  0  0.113576  0  0.111605  0.106295  0  1.020523  0
H  H47  1  0.00900300  0.44319457  0.30524997  1  0  0.09567  0  0.954062  0  0  0.108251  0  1.018832  0  0  0.110775  0  1.017099  0  0.11364  0  0.11158  0.10627  0  1.020512  0
H  H48  1  0.89415209  0.93663969  0.80696691  1  0  0.302961  0  0.907357  0  0  0.284561  0  0.973278  0  0  0.291527  0  0.968996  0  0.500833  0  0.311329  0.279447  0  0.976648  0
H  H49  1  0.10584652  0.43663925  0.19303314  1  0  0.302956  0  0.907374  0  0  0.28455  0  0.973292  0  0  0.291518  0  0.96901  0  0.500834  0  0.311336  0.279433  0  0.976661  0
H  H50  1  0.60908485  0.78593839  0.94002552  1  0  0.305847  0  0.931163  0  0  0.285079  0  0.999506  0  0  0.29353  0  0.993377  0  0.52759  0  0.303525  0.279693  0  1.003286  0
H  H51  1  0.39091376  0.28593904  0.05997400  1  0  0.305857  0  0.931148  0  0  0.285082  0  0.9995  0  0  0.293531  0  0.993372  0  0.527599  0  0.303535  0.279696  0  1.00328  0
H  H52  1  0.07304152  0.74242702  0.90262324  1  0  0.088213  0  0.917353  0  0  0.101515  0  0.979569  0  0  0.103521  0  0.977192  0  0.076671  0  0.110778  0.099764  0  0.981833  0
H  H53  1  0.92695849  0.24242658  0.09737681  1  0  0.088219  0  0.917348  0  0  0.101519  0  0.979562  0  0  0.103527  0  0.977186  0  0.07667  0  0.110779  0.099768  0  0.981827  0
H  H54  1  0.84197004  0.67314634  0.89013272  1  0  0.102006  0  0.930208  0  0  0.114488  0  0.99125  0  0  0.1166  0  0.98963  0  0.08484  0  0.114236  0.112833  0  0.992663  0
H  H55  1  0.15802858  0.17314590  0.10986732  1  0  0.102025  0  0.930192  0  0  0.114499  0  0.991242  0  0  0.116614  0  0.989619  0  0.084846  0  0.114242  0.112843  0  0.992655  0
C  C56  1  0.69921510  0.40055104  0.68889586  1  0  -0.062959  0  3.718213  0  0  -0.104184  0  3.981293  0  0  -0.103956  0  4.002868  0  0.356442  0  -0.019842  -0.104165  0  3.966744  0
C  C57  1  0.30078352  0.90055148  0.31110576  1  0  -0.062881  0  3.718155  0  0  -0.104066  0  3.981247  0  0  -0.103841  0  4.002823  0  0.356529  0  -0.019862  -0.104051  0  3.966699  0
C  C58  1  0.63015867  0.50907283  0.64543403  1  0  0.167603  0  3.769175  0  0  0.169595  0  4.02425  0  0  0.172766  0  4.049142  0  0.368722  0  0.062105  0.167248  0  4.007455  0
C  C59  1  0.36983855  0.00907458  0.35456600  1  0  0.167435  0  3.769255  0  0  0.169422  0  4.024333  0  0  0.172594  0  4.049228  0  0.368695  0  0.062056  0.167074  0  4.007536  0
C  C60  1  0.54665123  0.55425532  0.75351417  1  0  0.184811  0  3.765355  0  0  0.131167  0  4.031696  0  0  0.144977  0  4.044983  0  0.936611  0  0.105797  0.121987  0  4.022572  0
C  C61  1  0.45334739  0.05425269  0.24648588  1  0  0.184791  0  3.765246  0  0  0.131136  0  4.031627  0  0  0.144947  0  4.044905  0  0.936469  0  0.105763  0.121955  0  4.022505  0
C  C62  1  0.47394656  0.46861040  0.45249658  1  0  0.644837  0  3.875976  0  0  0.595378  0  4.17705  0  0  0.628321  0  4.169029  0  1.590151  0  0.210161  0.573048  0  4.182044  0
C  C63  1  0.52605067  0.96861522  0.54750241  1  0  0.644714  0  3.876358  0  0  0.595269  0  4.177405  0  0  0.628214  0  4.169384  0  1.589852  0  0.210088  0.57295  0  4.182385  0
C  C64  1  0.63950827  0.51797231  0.56737654  1  0  -0.199587  0  3.68492  0  0  -0.246991  0  3.932977  0  0  -0.248223  0  3.944234  0  -0.009073  0  -0.154176  -0.24596  0  3.92607  0
C  C65  1  0.36048618  0.01797297  0.43262348  1  0  -0.199476  0  3.684746  0  0  -0.246902  0  3.93281  0  0  -0.24814  0  3.944078  0  -0.008827  0  -0.154108  -0.245854  0  3.925892  0
C  C66  1  0.44783117  0.48361104  0.53174228  1  0  0.044082  0  3.616184  0  0  0.026997  0  3.852126  0  0  0.026873  0  3.863479  0  0.315638  0  0.010216  0.026745  0  3.844122  0
C  C67  1  0.55216327  0.98361257  0.46825616  1  0  0.04403  0  3.616055  0  0  0.026923  0  3.852033  0  0  0.026795  0  3.863382  0  0.315277  0  0.010176  0.026643  0  3.844029  0
C  C68  1  0.07795503  0.32885835  0.84405209  1  0  -0.085327  0  3.631563  0  0  -0.140369  0  3.885997  0  0  -0.141262  0  3.893167  0  0.264279  0  -0.073446  -0.139873  0  3.881496  0
C  C69  1  0.92204498  0.82885770  0.15594848  1  0  -0.085409  0  3.631657  0  0  -0.140452  0  3.886034  0  0  -0.141348  0  3.893201  0  0.264285  0  -0.073489  -0.139963  0  3.881545  0
C  C70  1  0.06330219  0.24803855  0.77436786  1  0  0.5721  0  3.790505  0  0  0.526882  0  4.084573  0  0  0.555487  0  4.084519  0  1.403986  0  0.244754  0.507658  0  4.083785  0
C  C71  1  0.93669782  0.74803789  0.22563167  1  0  0.571984  0  3.790673  0  0  0.526849  0  4.084644  0  0  0.555457  0  4.084585  0  1.404088  0  0.244741  0.507626  0  4.083854  0
C  C72  1  0.17443109  0.23951772  0.65253353  1  0  -0.074116  0  3.633532  0  0  -0.13614  0  3.893032  0  0  -0.133777  0  3.898047  0  0.295512  0  -0.053528  -0.137563  0  3.889507  0
C  C73  1  0.82557588  0.73951926  0.34746603  1  0  -0.074169  0  3.633547  0  0  -0.136066  0  3.892881  0  0  -0.133689  0  3.897902  0  0.295567  0  -0.053536  -0.137501  0  3.889367  0
C  C74  1  0.20978750  0.36451646  0.60111610  1  0  0.556003  0  3.80893  0  0  0.513501  0  4.107033  0  0  0.542181  0  4.105838  0  1.40877  0  0.237853  0.494236  0  4.107357  0
C  C75  1  0.79021530  0.86451800  0.39888449  1  0  0.555945  0  3.808865  0  0  0.513414  0  4.106973  0  0  0.542077  0  4.105777  0  1.408792  0  0.237853  0.49415  0  4.107294  0
C  C76  1  0.53522766  0.05226639  0.74987880  1  0  0.204034  0  3.75739  0  0  0.147866  0  4.027959  0  0  0.162389  0  4.041086  0  0.969523  0  0.112206  0.138192  0  4.018849  0
C  C77  1  0.46477374  0.55226464  0.25012126  1  0  0.204128  0  3.757285  0  0  0.147954  0  4.027856  0  0  0.162481  0  4.040978  0  0.969548  0  0.112227  0.138279  0  4.018746  0
C  C78  1  0.43523838  0.01260942  0.85624425  1  0  0.168592  0  3.77956  0  0  0.170467  0  4.033532  0  0  0.173597  0  4.058638  0  0.359255  0  0.059851  0.168194  0  4.016729  0
C  C79  1  0.56476441  0.51260877  0.14375529  1  0  0.168498  0  3.779785  0  0  0.170404  0  4.033667  0  0  0.173535  0  4.058773  0  0.359695  0  0.059789  0.168131  0  4.016864  0
C  C80  1  0.40134628  0.02929321  0.93266613  1  0  -0.210562  0  3.703702  0  0  -0.255473  0  3.949501  0  0  -0.257014  0  3.960708  0  -0.06197  0  -0.159217  -0.254287  0  3.942505  0
C  C81  1  0.59865234  0.52929256  0.06733339  1  0  -0.210481  0  3.703624  0  0  -0.255407  0  3.949489  0  0  -0.256945  0  3.960692  0  -0.061968  0  -0.159203  -0.254221  0  3.942493  0
C  C82  1  0.57736416  0.00492251  0.97950502  1  0  0.04853  0  3.626169  0  0  0.025397  0  3.870003  0  0  0.025877  0  3.880814  0  0.308286  0  0.00988  0.024812  0  3.861924  0
C  C83  1  0.42263306  0.50492186  0.02049449  1  0  0.048454  0  3.626269  0  0  0.025343  0  3.87004  0  0  0.025822  0  3.880847  0  0.308241  0  0.00984  0.02476  0  3.86196  0
C  C84  1  0.50853741  0.99049730  0.05472820  1  0  0.644354  0  3.874142  0  0  0.593464  0  4.178749  0  0  0.625934  0  4.171216  0  1.604896  0  0.212531  0.571546  0  4.183319  0
C  C85  1  0.49145843  0.49050124  0.94527131  1  0  0.644415  0  3.874226  0  0  0.59353  0  4.178801  0  0  0.626001  0  4.17127  0  1.604705  0  0.212627  0.571611  0  4.183371  0
C  C86  1  0.37701674  0.89991893  0.81326008  1  0  -0.076164  0  3.735389  0  0  -0.11579  0  3.99501  0  0  -0.116065  0  4.01748  0  0.388193  0  -0.025267  -0.115588  0  3.979967  0
C  C87  1  0.62298745  0.39991740  0.18673999  1  0  -0.07618  0  3.735407  0  0  -0.115808  0  3.995002  0  0  -0.116083  0  4.017471  0  0.387783  0  -0.025289  -0.115603  0  3.979958  0
C  C88  1  0.97703874  0.82395379  0.68973156  1  0  -0.060271  0  3.635516  0  0  -0.119916  0  3.895558  0  0  -0.120084  0  3.903281  0  0.233458  0  -0.067348  -0.119818  0  3.890373  0
C  C89  1  0.02295988  0.32395444  0.31026796  1  0  -0.060184  0  3.635465  0  0  -0.119814  0  3.895512  0  0  -0.119981  0  3.903232  0  0.233375  0  -0.06731  -0.119715  0  3.890324  0
C  C90  1  0.99874031  0.75284112  0.76165346  1  0  0.561517  0  3.810125  0  0  0.519543  0  4.102661  0  0  0.547589  0  4.103131  0  1.397296  0  0.240445  0.500625  0  4.10152  0
C  C91  1  0.00125970  0.25284177  0.23834606  1  0  0.561353  0  3.810071  0  0  0.519335  0  4.10267  0  0  0.547387  0  4.103139  0  1.397294  0  0.240365  0.500414  0  4.101522  0
C  C92  1  0.85864257  0.89245090  0.93476266  1  0  0.557836  0  3.805373  0  0  0.514453  0  4.104637  0  0  0.543313  0  4.103101  0  1.402178  0  0.240218  0.494959  0  4.105186  0
C  C93  1  0.14135605  0.39245155  0.06523791  1  0  0.557882  0  3.805442  0  0  0.514519  0  4.104667  0  0  0.543383  0  4.103127  0  1.402163  0  0.240222  0.495024  0  4.10522  0
C  C94  1  0.92951686  0.77156483  0.88691581  1  0  -0.071904  0  3.640197  0  0  -0.134876  0  3.904127  0  0  -0.132112  0  3.908565  0  0.294347  0  -0.05449  -0.136529  0  3.901027  0
C  C95  1  0.07048315  0.27156548  0.11308371  1  0  -0.071927  0  3.640227  0  0  -0.134908  0  3.904139  0  0  -0.132146  0  3.908587  0  0.294332  0  -0.054478  -0.136565  0  3.901038  0
N  N96  1  0.64684234  0.42967900  0.75701051  1  0  -0.414517  0  3.351234  0  0  -0.324047  0  3.651584  0  0  -0.345045  0  3.66565  0  -1.269722  0  -0.38413  -0.30994  0  3.641892  0
N  N97  1  0.35315627  0.92967616  0.24299059  1  0  -0.414468  0  3.351131  0  0  -0.324002  0  3.651459  0  0  -0.345  0  3.665532  0  -1.269806  0  -0.384073  -0.309895  0  3.641768  0
N  N98  1  0.53182718  0.60585085  0.68718237  1  0  -0.470425  0  3.283405  0  0  -0.384764  0  3.579065  0  0  -0.406405  0  3.591708  0  -1.261922  0  -0.380741  -0.369461  0  3.569825  0
N  N99  1  0.46817422  0.10584713  0.31281822  1  0  -0.470378  0  3.283402  0  0  -0.384706  0  3.579047  0  0  -0.406352  0  3.591701  0  -1.26189  0  -0.380744  -0.369406  0  3.569808  0
N  N100  1  0.17063808  0.30128550  0.72309488  1  0  -0.396359  0  3.304362  0  0  -0.342186  0  3.556989  0  0  -0.363111  0  3.566858  0  -1.218863  0  -0.41303  -0.327759  0  3.549796  0
N  N101  1  0.82936611  0.80128594  0.27690519  1  0  -0.396291  0  3.304524  0  0  -0.342319  0  3.557147  0  0  -0.363213  0  3.56704  0  -1.219164  0  -0.413032  -0.327875  0  3.549944  0
N  N102  1  0.92052777  0.29011190  0.88946874  1  0  -0.599419  0  3.12861  0  0  -0.539917  0  3.388617  0  0  -0.557258  0  3.383528  0  -1.173456  0  -0.617144  -0.527922  0  3.392026  0
N  N103  1  0.07947084  0.79011125  0.11053131  1  0  -0.599388  0  3.12863  0  0  -0.539911  0  3.388622  0  0  -0.557248  0  3.38353  0  -1.173457  0  -0.617139  -0.527915  0  3.392032  0
N  N104  1  0.36772978  0.35497568  0.56432270  1  0  -0.438904  0  3.329967  0  0  -0.38531  0  3.570856  0  0  -0.407738  0  3.581984  0  -1.25464  0  -0.414338  -0.370836  0  3.562996  0
N  N105  1  0.63227162  0.85497721  0.43567789  1  0  -0.438851  0  3.32993  0  0  -0.385252  0  3.570844  0  0  -0.407633  0  3.581932  0  -1.254638  0  -0.414325  -0.370766  0  3.562977  0
N  N106  1  0.53777350  0.10832152  0.81546371  1  0  -0.463596  0  3.27437  0  0  -0.378819  0  3.57038  0  0  -0.400111  0  3.582441  0  -1.255757  0  -0.380322  -0.363921  0  3.561702  0
N  N107  1  0.46222929  0.60831868  0.18453583  1  0  -0.463595  0  3.274449  0  0  -0.378812  0  3.570431  0  0  -0.400106  0  3.582492  0  -1.255645  0  -0.380255  -0.363914  0  3.561751  0
N  N108  1  0.43854700  0.92615993  0.74598007  1  0  -0.419661  0  3.356305  0  0  -0.328108  0  3.658957  0  0  -0.349411  0  3.672387  0  -1.291477  0  -0.386201  -0.313788  0  3.649726  0
N  N109  1  0.56145441  0.42615839  0.25401999  1  0  -0.419707  0  3.356288  0  0  -0.328166  0  3.658958  0  0  -0.349472  0  3.672391  0  -1.291501  0  -0.386238  -0.313848  0  3.64973  0
N  N110  1  0.11722555  0.76572742  0.64128749  1  0  -0.607427  0  3.128285  0  0  -0.548769  0  3.388413  0  0  -0.56618  0  3.382355  0  -1.133722  0  -0.617606  -0.536587  0  3.392003  0
N  N111  1  0.88277446  0.26572807  0.35871256  1  0  -0.607468  0  3.12835  0  0  -0.548798  0  3.388472  0  0  -0.566209  0  3.382414  0  -1.133716  0  -0.617616  -0.536618  0  3.392061  0
N  N112  1  0.92391712  0.82835757  0.81512633  1  0  -0.419446  0  3.294855  0  0  -0.365383  0  3.548495  0  0  -0.387361  0  3.558586  0  -1.204839  0  -0.418853  -0.350078  0  3.541093  0
N  N113  1  0.07608150  0.32835822  0.18487319  1  0  -0.419367  0  3.294846  0  0  -0.36526  0  3.548462  0  0  -0.387248  0  3.558565  0  -1.204851  0  -0.418819  -0.349939  0  3.541046  0
N  N114  1  0.68074419  0.88013477  0.95395454  1  0  -0.427799  0  3.333307  0  0  -0.372121  0  3.577555  0  0  -0.394558  0  3.588482  0  -1.254295  0  -0.409556  -0.357414  0  3.569661  0
N  N115  1  0.31925443  0.38013433  0.04604550  1  0  -0.42782  0  3.333359  0  0  -0.372156  0  3.577603  0  0  -0.394591  0  3.588526  0  -1.254291  0  -0.409569  -0.357448  0  3.56971  0
O  O116  1  0.52145312  0.33987655  0.43168935  1  0  -0.643408  0  2.083004  0  0  -0.568244  0  2.363347  0  0  -0.595678  0  2.347761  0  -1.188816  0  -0.332097  -0.548794  0  2.372001  0
O  O117  1  0.47854271  0.83988355  0.56831068  1  0  -0.643346  0  2.083137  0  0  -0.568195  0  2.363463  0  0  -0.595632  0  2.347884  0  -1.188793  0  -0.33208  -0.548742  0  2.372106  0
O  O118  1  0.45581250  0.57930563  0.41404874  1  0  -0.619608  0  1.966963  0  0  -0.573643  0  2.194576  0  0  -0.596335  0  2.184811  0  -1.197775  0  -0.320428  -0.558474  0  2.201324  0
O  O119  1  0.54419030  0.07930847  0.58595238  1  0  -0.619558  0  1.967174  0  0  -0.57359  0  2.194766  0  0  -0.596287  0  2.185003  0  -1.197512  0  -0.320362  -0.558423  0  2.201508  0
O  O120  1  0.95812241  0.14026531  0.76611942  1  0  -0.590325  0  1.963213  0  0  -0.538498  0  2.19314  0  0  -0.560585  0  2.186846  0  -1.176342  0  -0.299124  -0.523109  0  2.197542  0
O  O121  1  0.04188039  0.64026575  0.23387855  1  0  -0.590215  0  1.963263  0  0  -0.538427  0  2.193171  0  0  -0.560513  0  2.186877  0  -1.176212  0  -0.299108  -0.523047  0  2.197581  0
O  O122  1  0.09942973  0.46989848  0.59732791  1  0  -0.578901  0  1.955724  0  0  -0.538562  0  2.181617  0  0  -0.559213  0  2.174587  0  -1.169409  0  -0.313267  -0.524631  0  2.18611  0
O  O123  1  0.90057446  0.96990002  0.40267637  1  0  -0.578895  0  1.955638  0  0  -0.538528  0  2.181506  0  0  -0.55918  0  2.174488  0  -1.169413  0  -0.313278  -0.524597  0  2.185996  0
O  O124  1  0.48922438  0.85885022  0.07732663  1  0  -0.644961  0  2.093682  0  0  -0.568859  0  2.372504  0  0  -0.595828  0  2.358102  0  -1.193279  0  -0.329356  -0.549745  0  2.380171  0
O  O125  1  0.51077145  0.35885306  0.92267287  1  0  -0.644983  0  2.093667  0  0  -0.568845  0  2.372447  0  0  -0.595812  0  2.358041  0  -1.193219  0  -0.329353  -0.549732  0  2.380115  0
O  O126  1  0.07829188  0.63270579  0.76930743  1  0  -0.567171  0  1.931482  0  0  -0.519056  0  2.154391  0  0  -0.540106  0  2.148779  0  -1.169117  0  -0.300312  -0.504228  0  2.158259  0
O  O127  1  0.92170813  0.13270645  0.23069210  1  0  -0.567112  0  1.9314  0  0  -0.518977  0  2.154331  0  0  -0.540031  0  2.148715  0  -1.16912  0  -0.300274  -0.504152  0  2.158198  0
O  O128  1  0.96087147  0.99928735  0.95067353  1  0  -0.592596  0  1.920088  0  0  -0.546833  0  2.137848  0  0  -0.567433  0  2.130328  0  -1.187154  0  -0.318782  -0.532888  0  2.142748  0
O  O129  1  0.03912854  0.49928800  0.04932652  1  0  -0.592588  0  1.92011  0  0  -0.546846  0  2.137863  0  0  -0.567448  0  2.130343  0  -1.187172  0  -0.318786  -0.532902  0  2.142763  0
O  O130  1  0.46498949  0.10497929  0.08695842  1  0  -0.615328  0  1.98524  0  0  -0.566023  0  2.215448  0  0  -0.589268  0  2.206989  0  -1.205233  0  -0.313164  -0.550201  0  2.221089  0
O  O131  1  0.53500774  0.60498192  0.91304214  1  0  -0.615309  0  1.985313  0  0  -0.566065  0  2.215578  0  0  -0.589301  0  2.207097  0  -1.205113  0  -0.313218  -0.550242  0  2.22122  0
