# generated using pymatgen
data_Zn4H22C60I3N19O6
_symmetry_space_group_name_H-M   'P 1'
_cell_length_a   18.21290878
_cell_length_b   19.89820159
_cell_length_c   19.27150351
_cell_angle_alpha   115.23743071
_cell_angle_beta   99.42409296
_cell_angle_gamma   112.40053445
_symmetry_Int_Tables_number   1
_chemical_formula_structural   Zn4H22C60I3N19O6
_chemical_formula_sum   'Zn4 H22 C60 I3 N19 O6'
_cell_volume   5378.03799551
_cell_formula_units_Z   1
loop_
 _symmetry_equiv_pos_site_id
 _symmetry_equiv_pos_as_xyz
  1  'x, y, z'
loop_
 _atom_site_type_symbol
 _atom_site_label
 _atom_site_symmetry_multiplicity
 _atom_site_fract_x
 _atom_site_fract_y
 _atom_site_fract_z
 _atom_site_occupancy
 _atom_site_pbe_bader_charge
 _atom_site_pbe_bader_spin_density
 _atom_site_pbe_cm5_charge
 _atom_site_pbe_ddec_charge
 _atom_site_pbe_ddec_spin_density
 _atom_site_pbe_ddec_sum_bond_order
 _atom_site_pbe_magmom
Zn  Zn0  1  0.99310026  0.60633313  0.11890521  1  1.242665  0  0.722421  0.624422  0  2.476668  0
Zn  Zn1  1  0.99790879  0.39716097  0.89905810  1  1.191581  0  0.743758  0.606087  0  2.469581  0
Zn  Zn2  1  0.11312934  0.61101314  0.98155502  1  1.239689  0  0.726954  0.644796  0  2.396999  0
Zn  Zn3  1  0.86877091  0.39060829  0.99874058  1  1.197739  0  0.746052  0.622482  0  2.462849  0
H  H4  1  0.83576915  0.60685780  0.01380867  1  0.12243  0  0.128975  0.125229  0  0.990589  0
H  H5  1  0.89425254  0.39500466  0.74738678  1  0.097209  0  0.125033  0.119935  0  0.996874  0
H  H6  1  0.69668428  0.36287099  0.04967867  1  0.11017  0  0.118974  0.112464  0  0.995997  0
H  H7  1  0.01760423  0.32711462  0.71288608  1  0.10614  0  0.126621  0.118532  0  0.981121  0
H  H8  1  0.84756693  0.64137079  0.18488470  1  0.12604  0  0.1274  0.122887  0  0.981675  0
H  H9  1  0.13675499  0.62018748  0.26125022  1  0.13577  0  0.127802  0.120058  0  0.977649  0
H  H10  1  0.13892703  0.37666994  0.00070091  1  0.076132  0  0.124215  0.114375  0  0.990228  0
H  H11  1  0.27941484  0.83097823  0.12706884  1  0.141298  0  0.131951  0.127494  0  0.974758  0
H  H12  1  0.79484419  0.18781987  0.95504838  1  0.105394  0  0.128573  0.120156  0  0.977654  0
H  H13  1  0.98455609  0.20892164  0.84394755  1  0.106615  0  0.128338  0.120409  0  0.980832  0
H  H14  1  0.97980033  0.34281241  0.09380577  1  0.07594  0  0.120817  0.11197  0  1.004836  0
H  H15  1  0.28295735  0.65368764  0.11620801  1  0.121787  0  0.122547  0.112962  0  0.990162  0
H  H16  1  0.61770834  0.22536675  0.47017325  1  0.097184  0  0.10945  0.114761  0  0.983384  0
H  H17  1  0.48480385  0.10018500  0.34727030  1  0.067914  0  0.108563  0.111024  0  0.98502  0
H  H18  1  0.34906620  0.08453191  0.50845688  1  0.083687  0  0.113446  0.119572  0  0.975799  0
H  H19  1  0.48207572  0.20978619  0.63165765  1  0.078057  0  0.105553  0.10752  0  0.999357  0
H  H20  1  0.24918658  0.58526294  0.48225209  1  0.106732  0  0.12143  0.138645  0  0.979701  0
H  H21  1  0.05772631  0.31257429  0.45781057  1  0.067129  0  0.110964  0.116892  0  0.97991  0
H  H22  1  0.04890029  0.31717230  0.33041662  1  0.07548  0  0.11101  0.115145  0  0.980492  0
H  H23  1  0.75264063  0.81433706  0.94028024  1  0.065974  0  0.1125  0.117411  0  0.982336  0
H  H24  1  0.76092638  0.93554437  0.92698313  1  0.063267  0  0.110528  0.11514  0  0.980098  0
H  H25  1  0.94904925  0.81713405  0.84095502  1  0.142513  0  0.111303  0.135533  0  0.984822  0
C  C26  1  0.88565210  0.61516674  0.98892191  1  0.416743  0  0.025484  -0.04302  0  3.873247  0
C  C27  1  0.85803212  0.39107811  0.78634433  1  0.463741  0  0.020111  -0.030452  0  3.914999  0
C  C28  1  0.15093630  0.53609611  0.82011656  1  0.274358  0  0.052996  0.086624  0  3.936846  0
C  C29  1  0.74561104  0.42994719  0.07976853  1  0.457899  0  0.010872  -0.053524  0  3.995572  0
C  C30  1  0.05765166  0.39645895  0.75530636  1  0.45655  0  0.018481  -0.046586  0  3.968162  0
C  C31  1  0.82237800  0.57246840  0.14782633  1  0.441994  0  0.022712  -0.035513  0  3.930536  0
C  C32  1  0.76089737  0.37304871  0.84273501  1  0.292182  0  0.049976  0.082338  0  3.937833  0
C  C33  1  0.97660885  0.64529511  0.92989059  1  0.802833  0  0.188436  0.093366  0  3.946793  0
C  C34  1  0.90413112  0.65225707  0.94131916  1  0.16526  0  0.000496  0.038513  0  4.134897  0
C  C35  1  0.77039164  0.36618346  0.76871371  1  0.09393  0  -0.030043  0.014234  0  4.176654  0
C  C36  1  0.11791437  0.45665712  0.74409179  1  0.141395  0  -0.032069  0.008708  0  4.193324  0
C  C37  1  0.74067012  0.50421380  0.12584592  1  0.104273  0  -0.030029  0.026776  0  4.216045  0
C  C38  1  0.09124807  0.55436705  0.21013848  1  0.420713  0  0.028339  -0.026565  0  3.906515  0
C  C39  1  0.16106667  0.44376301  0.02233349  1  0.507835  0  0.022479  -0.036739  0  3.920097  0
C  C40  1  0.22969060  0.80646669  0.14822188  1  0.432823  0  0.027088  -0.048024  0  3.895692  0
C  C41  1  0.84308010  0.20677417  0.93033194  1  0.449876  0  0.024115  -0.044162  0  3.955171  0
C  C42  1  0.94031446  0.21761854  0.87363830  1  0.419455  0  0.023057  -0.04362  0  3.943238  0
C  C43  1  0.14481636  0.78545014  0.21489663  1  0.829381  0  0.18502  0.081489  0  3.993628  0
C  C44  1  0.01054866  0.41229104  0.12467211  1  0.461525  0  0.017195  -0.042779  0  3.933343  0
C  C45  1  0.23477471  0.58575438  0.08194420  1  0.423997  0  0.020543  -0.036809  0  3.930637  0
C  C46  1  0.07700702  0.47679493  0.20411131  1  0.128949  0  -0.025172  0.041207  0  4.183025  0
C  C47  1  0.24449787  0.51624903  0.07497954  1  0.077734  0  -0.025691  0.030711  0  4.203292  0
C  C48  1  0.22263108  0.85019399  0.22462144  1  0.080679  0  -0.002515  0.035742  0  4.156114  0
C  C49  1  0.88458441  0.16295007  0.89321229  1  0.144944  0  -0.027356  0.038616  0  4.204491  0
C  C50  1  0.66873481  0.50848964  0.13861738  1  -0.27674  0  -0.030909  -0.061378  0  4.079884  0
C  C51  1  0.60307173  0.51137435  0.14242048  1  0.041008  0  -0.049959  -0.063494  0  4.34059  0
C  C52  1  0.53037449  0.51389419  0.14099412  1  0.069235  0  -0.029738  -0.021419  0  4.257359  0
C  C53  1  0.46243323  0.51551388  0.13451376  1  -0.102741  0  -0.030702  -0.02068  0  4.256786  0
C  C54  1  0.38848550  0.51670735  0.12169933  1  -0.003649  0  -0.049048  -0.062348  0  4.337417  0
C  C55  1  0.32068003  0.51726621  0.10427451  1  -0.194766  0  -0.027592  -0.058651  0  4.07427  0
C  C56  1  0.48460723  0.12508375  0.40970575  1  -0.042975  0  -0.078012  -0.115425  0  3.964973  0
C  C57  1  0.40853766  0.08281206  0.41970901  1  0.132266  0  -0.0028  0.121877  0  4.127619  0
C  C58  1  0.40785229  0.11624014  0.50058275  1  -0.076721  0  -0.074951  -0.111561  0  3.950208  0
C  C59  1  0.48192963  0.18596466  0.56913031  1  -0.007577  0  -0.079322  -0.118112  0  3.946304  0
C  C60  1  0.55964254  0.22485434  0.55962999  1  0.112087  0  0.004478  0.146329  0  4.100048  0
C  C61  1  0.55869783  0.19484445  0.47828840  1  0.000179  0  -0.081673  -0.126107  0  3.962384  0
C  C62  1  0.33781793  0.00501159  0.35102258  1  0.07619  0  -0.024842  -0.067915  0  4.09233  0
C  C63  1  0.63705951  0.28658617  0.63099848  1  -0.219963  0  -0.044004  -0.109386  0  4.110029  0
C  C64  1  0.70270123  0.32959566  0.69405220  1  -0.092206  0  -0.052292  -0.086064  0  4.165743  0
C  C65  1  0.28081642  0.93376640  0.29215323  1  -0.323608  0  -0.050059  -0.103009  0  4.17556  0
C  C66  1  0.21392270  0.52014026  0.54568308  1  0.226284  0  0.081678  0.033795  0  3.884199  0
C  C67  1  0.15875062  0.44501569  0.54266547  1  0.083573  0  0.010357  0.1028  0  4.091247  0
C  C68  1  0.10073485  0.37154987  0.46236161  1  -0.047088  0  -0.077987  -0.117707  0  3.962827  0
C  C69  1  0.09524504  0.37437994  0.39122321  1  0.013603  0  -0.074915  -0.114848  0  3.950649  0
C  C70  1  0.14657329  0.45191701  0.39627784  1  0.118597  0  0.004992  0.154152  0  4.114483  0
C  C71  1  0.20752471  0.52445443  0.47513936  1  0.036542  0  -0.069945  -0.161907  0  3.905507  0
C  C72  1  0.15255508  0.44423319  0.61419984  1  -0.121249  0  -0.047294  -0.10508  0  4.140096  0
C  C73  1  0.13219299  0.45855181  0.32572088  1  0.119236  0  -0.053931  -0.129101  0  4.128271  0
C  C74  1  0.11080569  0.46649078  0.26742206  1  -0.455731  0  -0.043382  -0.079821  0  4.156222  0
C  C75  1  0.13656743  0.44527692  0.67368704  1  -0.148969  0  -0.045149  -0.067531  0  4.145162  0
C  C76  1  0.80174943  0.90901364  0.90813273  1  -0.021785  0  -0.078384  -0.110901  0  3.957167  0
C  C77  1  0.86005635  0.94676273  0.87769379  1  0.09473  0  -0.003717  0.110967  0  4.103064  0
C  C78  1  0.91197007  0.91091522  0.85207235  1  -0.227289  0  -0.040991  0.025108  0  3.875993  0
C  C79  1  0.90779114  0.84319578  0.85922854  1  0.023837  0  -0.082176  -0.149031  0  3.907291  0
C  C80  1  0.85118172  0.80827830  0.89242881  1  0.108857  0  0.002389  0.140748  0  4.108455  0
C  C81  1  0.79708935  0.84144426  0.91553912  1  0.02386  0  -0.082098  -0.126466  0  3.974131  0
C  C82  1  0.86694770  0.01937081  0.87703153  1  0.093083  0  -0.055596  -0.116192  0  4.171869  0
C  C83  1  0.85541979  0.74509632  0.90561360  1  0.040903  0  -0.024804  -0.068167  0  4.078807  0
C  C84  1  0.87086802  0.69652712  0.91975814  1  -0.340197  0  -0.048604  -0.098764  0  4.154864  0
C  C85  1  0.87427965  0.08521471  0.88242903  1  -0.443932  0  -0.044815  -0.080412  0  4.154246  0
I  I86  1  0.99894504  0.96183248  0.80463628  1  0.108154  0  0.049103  -0.05046  0  1.291253  0
I  I87  1  0.25201719  0.65367606  0.85597270  1  0.220069  0  0.118904  0.040997  0  1.462092  0
I  I88  1  0.64788988  0.34553071  0.86299128  1  0.172698  0  0.118719  0.011982  0  1.427478  0
N  N89  1  0.94318841  0.59054948  0.00418858  1  -0.703204  0  -0.241727  -0.13624  0  3.548038  0
N  N90  1  0.89573943  0.40935311  0.86317719  1  -0.796831  0  -0.277058  -0.176812  0  3.604951  0
N  N91  1  0.11131125  0.52378917  0.87012953  1  -0.772863  0  -0.265686  -0.212126  0  3.502326  0
N  N92  1  0.82279652  0.45261608  0.07410444  1  -0.817545  0  -0.278686  -0.179515  0  3.592339  0
N  N93  1  0.05450707  0.43664416  0.83018022  1  -0.799046  0  -0.269742  -0.16786  0  3.555348  0
N  N94  1  0.87049967  0.54099705  0.11634078  1  -0.780975  0  -0.26403  -0.17292  0  3.512417  0
N  N95  1  0.83601045  0.39843599  0.89815549  1  -0.770347  0  -0.277597  -0.215551  0  3.601953  0
N  N96  1  0.99802610  0.60784725  0.96722530  1  -0.743114  0  -0.251868  -0.208788  0  3.588387  0
N  N97  1  0.03627313  0.53634925  0.14068101  1  -0.773808  0  -0.277349  -0.169328  0  3.625731  0
N  N98  1  0.10781990  0.46897436  0.99943596  1  -0.798003  0  -0.277428  -0.169537  0  3.627178  0
N  N99  1  0.16291413  0.72458016  0.10033414  1  -0.71979  0  -0.223064  -0.11069  0  3.507797  0
N  N100  1  0.87189162  0.28077703  0.93257093  1  -0.790258  0  -0.269752  -0.173646  0  3.562011  0
N  N101  1  0.93227042  0.28764594  0.89739530  1  -0.800172  0  -0.268967  -0.172288  0  3.555562  0
N  N102  1  0.11088721  0.71135263  0.14095653  1  -0.736415  0  -0.244506  -0.221656  0  3.499827  0
N  N103  1  0.98670622  0.44916472  0.08807116  1  -0.827022  0  -0.27861  -0.197406  0  3.626437  0
N  N104  1  0.15292516  0.55612440  0.03619168  1  -0.793736  0  -0.276811  -0.195154  0  3.608093  0
N  N105  1  0.09916389  0.78814788  0.26752865  1  0.251987  0  0.048656  0.49845  0  4.198996  0
N  N106  1  0.27955613  0.59868676  0.62582233  1  0.396295  0  0.055679  0.52082  0  4.1996  0
N  N107  1  0.03344150  0.68295267  0.89832871  1  0.285303  0  0.049961  0.510092  0  4.198278  0
O  O108  1  0.12805355  0.85433607  0.33626203  1  -0.407579  0  -0.115886  -0.29556  0  1.857654  0
O  O109  1  0.02734459  0.71961605  0.24020884  1  -0.54228  0  -0.167807  -0.36989  0  2.011809  0
O  O110  1  0.29926287  0.66910694  0.63310189  1  -0.460959  0  -0.155285  -0.353663  0  1.852715  0
O  O111  1  0.31179613  0.58951879  0.68062460  1  -0.449471  0  -0.137388  -0.340116  0  1.941786  0
O  O112  1  0.01241880  0.71256044  0.85893643  1  -0.42504  0  -0.117578  -0.301064  0  1.874721  0
O  O113  1  0.10581517  0.68671412  0.91518544  1  -0.526538  0  -0.158106  -0.382806  0  2.079398  0
