# generated using pymatgen
data_FeH20C22(N5O3)2
_symmetry_space_group_name_H-M   'P 1'
_cell_length_a   7.16200768
_cell_length_b   11.25467325
_cell_length_c   15.20141548
_cell_angle_alpha   90.00018868
_cell_angle_beta   103.52901830
_cell_angle_gamma   89.99959354
_symmetry_Int_Tables_number   1
_chemical_formula_structural   FeH20C22(N5O3)2
_chemical_formula_sum   'Fe2 H40 C44 N20 O12'
_cell_volume   1191.32526785
_cell_formula_units_Z   2
loop_
 _symmetry_equiv_pos_site_id
 _symmetry_equiv_pos_as_xyz
  1  'x, y, z'
loop_
 _atom_site_type_symbol
 _atom_site_label
 _atom_site_symmetry_multiplicity
 _atom_site_fract_x
 _atom_site_fract_y
 _atom_site_fract_z
 _atom_site_occupancy
 _atom_site_hle17_bader_spin_density
 _atom_site_hle17_ddec_charge
 _atom_site_hle17_ddec_spin_density
 _atom_site_hle17_ddec_sum_bond_order
 _atom_site_hle17_magmom
 _atom_site_hse06_10hf_bader_spin_density
 _atom_site_hse06_10hf_ddec_charge
 _atom_site_hse06_10hf_ddec_spin_density
 _atom_site_hse06_10hf_ddec_sum_bond_order
 _atom_site_hse06_10hf_magmom
 _atom_site_hse06_bader_spin_density
 _atom_site_hse06_ddec_charge
 _atom_site_hse06_ddec_spin_density
 _atom_site_hse06_ddec_sum_bond_order
 _atom_site_hse06_magmom
 _atom_site_pbe_bader_spin_density
 _atom_site_pbe_cm5_charge
 _atom_site_pbe_ddec_charge
 _atom_site_pbe_ddec_spin_density
 _atom_site_pbe_ddec_sum_bond_order
 _atom_site_pbe_magmom
Fe  Fe0  1  0.50000038  0.34618095  0.24999954  1  0  0.70978  0  2.863747  0  0  0.687577  0  3.342273  0  0  0.73775  0  3.278131  0  0  0.72206  0.66272  0  3.377324  0
Fe  Fe1  1  0.49999982  0.65381693  0.75000162  1  0  0.709702  0  2.863667  0  0  0.687523  0  3.342178  0  0  0.737706  0  3.278035  0  0  0.722031  0.66268  0  3.377261  0
H  H2  1  0.68175034  0.53050692  0.37785267  1  0  0.089218  0  0.933424  0  0  0.099367  0  0.992753  0  0  0.100985  0  0.990585  0  0  0.123014  0.097804  0  0.995126  0
H  H3  1  0.31823423  0.53050540  0.12215039  1  0  0.089305  0  0.933367  0  0  0.099362  0  0.99278  0  0  0.100973  0  0.990623  0  0  0.123017  0.097801  0  0.995152  0
H  H4  1  0.31824417  0.46949007  0.62215051  1  0  0.089209  0  0.933409  0  0  0.099265  0  0.992836  0  0  0.100884  0  0.990666  0  0  0.122984  0.097708  0  0.995201  0
H  H5  1  0.68176602  0.46949159  0.87785341  1  0  0.08928  0  0.933394  0  0  0.099365  0  0.992798  0  0  0.100964  0  0.990653  0  0  0.123009  0.097803  0  0.995173  0
H  H6  1  0.56897910  0.92413837  0.39671052  1  0  0.118028  0  0.976053  0  0  0.126596  0  1.039263  0  0  0.128847  0  1.038863  0  0  0.108847  0.125177  0  1.039474  0
H  H7  1  0.43102413  0.92413803  0.10328561  1  0  0.117999  0  0.976079  0  0  0.126584  0  1.039291  0  0  0.128837  0  1.038888  0  0  0.10884  0.125166  0  1.039501  0
H  H8  1  0.43102108  0.07585507  0.60328932  1  0  0.118001  0  0.976087  0  0  0.126488  0  1.039408  0  0  0.128737  0  1.039005  0  0  0.108825  0.125074  0  1.039614  0
H  H9  1  0.56897461  0.07585541  0.89671408  1  0  0.11807  0  0.976079  0  0  0.126579  0  1.039361  0  0  0.12883  0  1.038961  0  0  0.108851  0.125162  0  1.039567  0
H  H10  1  0.68833504  0.75002817  0.38416169  1  0  0.115218  0  0.953578  0  0  0.121973  0  1.018024  0  0  0.124441  0  1.017833  0  0  0.109193  0.120075  0  1.018553  0
H  H11  1  0.31166148  0.75002755  0.11583791  1  0  0.115347  0  0.953421  0  0  0.122023  0  1.017957  0  0  0.12449  0  1.017762  0  0  0.109192  0.120121  0  1.018492  0
H  H12  1  0.31166806  0.24996882  0.61584109  1  0  0.115292  0  0.953539  0  0  0.122038  0  1.01798  0  0  0.124507  0  1.017788  0  0  0.109207  0.120138  0  1.018512  0
H  H13  1  0.68834163  0.24996945  0.88416553  1  0  0.115362  0  0.953307  0  0  0.12203  0  1.017848  0  0  0.124498  0  1.017658  0  0  0.109216  0.120133  0  1.018366  0
H  H14  1  0.56896044  0.14247994  0.38992046  1  0  0.076922  0  0.972808  0  0  0.084283  0  1.041268  0  0  0.085686  0  1.039572  0  0  0.119796  0.08306  0  1.042938  0
H  H15  1  0.43104525  0.14247964  0.11007470  1  0  0.076927  0  0.972782  0  0  0.084307  0  1.041242  0  0  0.085695  0  1.039559  0  0  0.119808  0.083085  0  1.04291  0
H  H16  1  0.43103399  0.85751527  0.61007877  1  0  0.076854  0  0.972826  0  0  0.084198  0  1.041305  0  0  0.08561  0  1.039596  0  0  0.119774  0.082981  0  1.04297  0
H  H17  1  0.56895061  0.85751380  0.88992469  1  0  0.076936  0  0.972768  0  0  0.084333  0  1.041183  0  0  0.085714  0  1.039512  0  0  0.11983  0.083117  0  1.042849  0
H  H18  1  0.31826201  0.32554845  0.38434871  1  0  0.388282  0  0.917559  0  0  0.351275  0  1.006006  0  0  0.360278  0  0.993361  0  0  0.29  0.345045  0  1.014674  0
H  H19  1  0.68173894  0.32555059  0.11564902  1  0  0.38833  0  0.917502  0  0  0.351296  0  1.005981  0  0  0.360298  0  0.993339  0  0  0.289984  0.345067  0  1.014647  0
H  H20  1  0.68173525  0.67444676  0.61564885  1  0  0.388356  0  0.917494  0  0  0.351322  0  1.005952  0  0  0.360324  0  0.993311  0  0  0.290012  0.345097  0  1.014614  0
H  H21  1  0.31826413  0.67444374  0.88435245  1  0  0.388383  0  0.917454  0  0  0.351346  0  1.00592  0  0  0.360348  0  0.993277  0  0  0.290024  0.345125  0  1.014577  0
H  H22  1  0.54927918  0.31816355  0.43090087  1  0  0.369976  0  0.944163  0  0  0.327797  0  1.045858  0  0  0.338755  0  1.030859  0  0  0.281945  0.320174  0  1.05316  0
H  H23  1  0.45072188  0.31816475  0.06909817  1  0  0.370019  0  0.944119  0  0  0.327847  0  1.045792  0  0  0.338805  0  1.030792  0  0  0.281971  0.320224  0  1.053113  0
H  H24  1  0.45071952  0.68183789  0.56909684  1  0  0.370047  0  0.944046  0  0  0.327827  0  1.045814  0  0  0.338785  0  1.030816  0  0  0.281949  0.32021  0  1.053111  0
H  H25  1  0.54928266  0.68183580  0.93090476  1  0  0.370034  0  0.944075  0  0  0.327817  0  1.045834  0  0  0.338777  0  1.030831  0  0  0.281933  0.320201  0  1.053144  0
H  H26  1  0.12333858  0.51862407  0.30365576  1  0  0.111406  0  0.955349  0  0  0.121959  0  1.015713  0  0  0.12446  0  1.015413  0  0  0.10915  0.119993  0  1.016256  0
H  H27  1  0.87665325  0.51862213  0.19634607  1  0  0.11143  0  0.955185  0  0  0.121977  0  1.015565  0  0  0.124478  0  1.015269  0  0  0.109165  0.120014  0  1.016105  0
H  H28  1  0.87666015  0.48138359  0.69634393  1  0  0.111357  0  0.955287  0  0  0.12193  0  1.015642  0  0  0.12443  0  1.015345  0  0  0.109152  0.119965  0  1.016187  0
H  H29  1  0.12334554  0.48138109  0.80365626  1  0  0.111388  0  0.955307  0  0  0.121945  0  1.015677  0  0  0.124445  0  1.01538  0  0  0.109159  0.119977  0  1.016225  0
H  H30  1  0.31678132  0.52770820  0.46036785  1  0  0.077897  0  0.946726  0  0  0.087637  0  1.010722  0  0  0.090986  0  1.00744  0  0  0.112916  0.085044  0  1.013166  0
H  H31  1  0.68321469  0.52770556  0.03963247  1  0  0.077884  0  0.946823  0  0  0.087639  0  1.010782  0  0  0.090996  0  1.007497  0  0  0.112933  0.085051  0  1.013232  0
H  H32  1  0.68321886  0.47229679  0.53963199  1  0  0.07784  0  0.946858  0  0  0.087599  0  1.010815  0  0  0.090947  0  1.007539  0  0  0.112923  0.085011  0  1.013254  0
H  H33  1  0.31678695  0.47229410  0.96036884  1  0  0.077842  0  0.946875  0  0  0.087596  0  1.010832  0  0  0.090951  0  1.00755  0  0  0.112907  0.085006  0  1.013284  0
H  H34  1  0.02469790  0.89733635  0.32243188  1  0  0.1183  0  0.95849  0  0  0.126178  0  1.020497  0  0  0.129282  0  1.019265  0  0  0.109133  0.123996  0  1.021524  0
H  H35  1  0.97529137  0.89733477  0.17756928  1  0  0.118333  0  0.958445  0  0  0.126219  0  1.020442  0  0  0.129329  0  1.019212  0  0  0.109158  0.124039  0  1.021467  0
H  H36  1  0.97530229  0.10266953  0.67756928  1  0  0.118381  0  0.958394  0  0  0.126251  0  1.020392  0  0  0.12936  0  1.019161  0  0  0.10918  0.124066  0  1.021419  0
H  H37  1  0.02470451  0.10267022  0.82243076  1  0  0.118375  0  0.958429  0  0  0.126254  0  1.020425  0  0  0.129363  0  1.019195  0  0  0.109159  0.124066  0  1.021454  0
H  H38  1  0.22421654  0.89088914  0.47679520  1  0  0.083978  0  0.94708  0  0  0.086266  0  1.022089  0  0  0.08896  0  1.01929  0  0  0.114908  0.084386  0  1.024025  0
H  H39  1  0.77578276  0.89088600  0.02320241  1  0  0.083954  0  0.947084  0  0  0.086241  0  1.022104  0  0  0.088937  0  1.019299  0  0  0.114913  0.084361  0  1.024037  0
H  H40  1  0.77578649  0.10911674  0.52320429  1  0  0.083912  0  0.947181  0  0  0.086264  0  1.022127  0  0  0.088959  0  1.019325  0  0  0.114924  0.084386  0  1.024061  0
H  H41  1  0.22421309  0.10911544  0.97679632  1  0  0.083908  0  0.947143  0  0  0.086257  0  1.02209  0  0  0.088953  0  1.019284  0  0  0.114915  0.084376  0  1.024023  0
C  C42  1  0.60112630  0.58290832  0.32157527  1  0  0.123851  0  3.667999  0  0  0.091791  0  3.926868  0  0  0.102589  0  3.942253  0  0  0.045942  0.083263  0  3.918564  0
C  C43  1  0.39886486  0.58290846  0.17842665  1  0  0.123704  0  3.668069  0  0  0.091752  0  3.926859  0  0  0.102552  0  3.942247  0  0  0.04593  0.083223  0  3.918558  0
C  C44  1  0.39887394  0.41708867  0.67842787  1  0  0.123885  0  3.668005  0  0  0.091903  0  3.926865  0  0  0.1027  0  3.942247  0  0  0.04598  0.083382  0  3.918557  0
C  C45  1  0.60113538  0.41708942  0.82157649  1  0  0.123785  0  3.668023  0  0  0.091767  0  3.92688  0  0  0.102579  0  3.942265  0  0  0.045974  0.083248  0  3.918569  0
C  C46  1  0.49999957  0.77136877  0.24999931  1  0  0.095095  0  3.747371  0  0  0.104999  0  3.980395  0  0  0.111999  0  4.000128  0  0  0.010391  0.09873  0  3.968098  0
C  C47  1  0.50000351  0.22862733  0.75000282  1  0  0.095003  0  3.7474  0  0  0.1049  0  3.980355  0  0  0.111872  0  4.000122  0  0  0.010364  0.098628  0  3.968055  0
C  C48  1  0.50000603  0.90266712  0.24999818  1  0  0.089456  0  3.757583  0  0  0.100956  0  3.989519  0  0  0.103158  0  4.012317  0  0  0.009863  0.100328  0  3.973739  0
C  C49  1  0.49999987  0.09732899  0.75000096  1  0  0.089481  0  3.75755  0  0  0.101099  0  3.989284  0  0  0.103314  0  4.012085  0  0  0.009915  0.10047  0  3.973502  0
C  C50  1  0.53798854  0.96745719  0.33094498  1  0  -0.148647  0  3.674357  0  0  -0.168923  0  3.921869  0  0  -0.176794  0  3.94496  0  0  -0.080446  -0.163738  0  3.905886  0
C  C51  1  0.46201853  0.96745611  0.16905101  1  0  -0.148577  0  3.674283  0  0  -0.168887  0  3.921823  0  0  -0.176754  0  3.944903  0  0  -0.080429  -0.1637  0  3.905838  0
C  C52  1  0.46201309  0.03253625  0.66905568  1  0  -0.148627  0  3.674524  0  0  -0.168914  0  3.922052  0  0  -0.176781  0  3.945138  0  0  -0.080459  -0.163723  0  3.906058  0
C  C53  1  0.53797876  0.03253644  0.83094787  1  0  -0.148742  0  3.674555  0  0  -0.169022  0  3.92208  0  0  -0.176893  0  3.94516  0  0  -0.080486  -0.163827  0  3.906084  0
C  C54  1  0.60368678  0.70606427  0.32412217  1  0  -0.150279  0  3.700021  0  0  -0.171424  0  3.954096  0  0  -0.179597  0  3.97412  0  0  -0.079652  -0.166086  0  3.94204  0
C  C55  1  0.39630591  0.70606442  0.17587757  1  0  -0.150416  0  3.699971  0  0  -0.171498  0  3.954009  0  0  -0.179666  0  3.974024  0  0  -0.07968  -0.166159  0  3.941954  0
C  C56  1  0.39631631  0.29393094  0.67587995  1  0  -0.150397  0  3.70005  0  0  -0.171517  0  3.954067  0  0  -0.179681  0  3.974095  0  0  -0.079664  -0.166174  0  3.942005  0
C  C57  1  0.60369573  0.29393169  0.82412374  1  0  -0.150388  0  3.699909  0  0  -0.171434  0  3.953956  0  0  -0.179597  0  3.973977  0  0  -0.079683  -0.166089  0  3.941888  0
C  C58  1  0.53803462  0.09080357  0.32795226  1  0  0.144208  0  3.682287  0  0  0.111122  0  3.939741  0  0  0.117913  0  3.960148  0  0  0.052308  0.106627  0  3.926239  0
C  C59  1  0.46197738  0.09080428  0.17204476  1  0  0.14422  0  3.6822  0  0  0.11111  0  3.939684  0  0  0.117916  0  3.960093  0  0  0.052325  0.106614  0  3.926179  0
C  C60  1  0.46196558  0.90919254  0.67204890  1  0  0.144368  0  3.682203  0  0  0.111358  0  3.939613  0  0  0.118147  0  3.960013  0  0  0.052404  0.106865  0  3.926108  0
C  C61  1  0.53802134  0.90919093  0.82795427  1  0  0.144287  0  3.682346  0  0  0.111203  0  3.939822  0  0  0.118015  0  3.960236  0  0  0.052342  0.106708  0  3.926321  0
C  C62  1  0.91561280  0.30192128  0.34563007  1  0  0.4636  0  3.901456  0  0  0.424604  0  4.21456  0  0  0.452172  0  4.218498  0  0  0.293339  0.406702  0  4.212005  0
C  C63  1  0.08439418  0.30192007  0.15437022  1  0  0.463673  0  3.901538  0  0  0.424698  0  4.214617  0  0  0.452256  0  4.218559  0  0  0.293447  0.406797  0  4.212063  0
C  C64  1  0.08438452  0.69808105  0.65437013  1  0  0.463506  0  3.901572  0  0  0.424501  0  4.214708  0  0  0.452064  0  4.218648  0  0  0.293338  0.406607  0  4.212156  0
C  C65  1  0.91560307  0.69807693  0.84562668  1  0  0.463605  0  3.901591  0  0  0.424596  0  4.214712  0  0  0.452154  0  4.218657  0  0  0.293403  0.406705  0  4.212164  0
C  C66  1  0.13771002  0.60303616  0.33954186  1  0  -0.152086  0  3.701663  0  0  -0.170104  0  3.947776  0  0  -0.177041  0  3.970078  0  0  -0.082479  -0.165457  0  3.932689  0
C  C67  1  0.86227946  0.60303679  0.16045862  1  0  -0.152108  0  3.701549  0  0  -0.170141  0  3.947677  0  0  -0.177075  0  3.969957  0  0  -0.082501  -0.165493  0  3.932591  0
C  C68  1  0.86228726  0.39697061  0.66045702  1  0  -0.152038  0  3.701498  0  0  -0.170075  0  3.947687  0  0  -0.17701  0  3.969985  0  0  -0.082491  -0.165431  0  3.932607  0
C  C69  1  0.13771787  0.39696731  0.83954224  1  0  -0.152087  0  3.701581  0  0  -0.170125  0  3.9477  0  0  -0.177063  0  3.969998  0  0  -0.082511  -0.16548  0  3.932623  0
C  C70  1  0.24761690  0.60790342  0.42779885  1  0  0.120766  0  3.723505  0  0  0.094486  0  3.969644  0  0  0.100474  0  3.986571  0  0  0.042701  0.090539  0  3.958559  0
C  C71  1  0.75237825  0.60789971  0.07220092  1  0  0.120786  0  3.723671  0  0  0.094494  0  3.969805  0  0  0.100476  0  3.986741  0  0  0.042645  0.090539  0  3.958731  0
C  C72  1  0.75238468  0.39210246  0.57219983  1  0  0.120713  0  3.723742  0  0  0.094452  0  3.969881  0  0  0.100439  0  3.986807  0  0  0.042639  0.090497  0  3.958804  0
C  C73  1  0.24762195  0.39210261  0.92780024  1  0  0.120776  0  3.723658  0  0  0.094499  0  3.969794  0  0  0.100481  0  3.986727  0  0  0.042637  0.090542  0  3.958723  0
C  C74  1  0.08711146  0.81265144  0.34882974  1  0  -0.153098  0  3.682676  0  0  -0.171992  0  3.933249  0  0  -0.179401  0  3.955519  0  0  -0.080398  -0.166957  0  3.917733  0
C  C75  1  0.91287869  0.81265092  0.15117065  1  0  -0.153123  0  3.682702  0  0  -0.172044  0  3.933217  0  0  -0.179467  0  3.955494  0  0  -0.080427  -0.167007  0  3.917701  0
C  C76  1  0.91288729  0.18735444  0.65117061  1  0  -0.153084  0  3.682442  0  0  -0.171938  0  3.933023  0  0  -0.179357  0  3.955299  0  0  -0.08037  -0.166905  0  3.91751  0
C  C77  1  0.08711719  0.18735230  0.84882939  1  0  -0.153141  0  3.682578  0  0  -0.172056  0  3.933127  0  0  -0.179474  0  3.955396  0  0  -0.080393  -0.167024  0  3.917613  0
C  C78  1  0.05629688  0.70786115  0.29735232  1  0  0.081786  0  3.777786  0  0  0.094158  0  4.008286  0  0  0.097373  0  4.030668  0  0  0.009143  0.092416  0  3.99231  0
C  C79  1  0.94369151  0.70785982  0.20264829  1  0  0.081748  0  3.777814  0  0  0.094239  0  4.008175  0  0  0.09747  0  4.030526  0  0  0.009205  0.092497  0  3.992199  0
C  C80  1  0.94370327  0.29214384  0.70264620  1  0  0.081915  0  3.777477  0  0  0.094235  0  4.00808  0  0  0.097451  0  4.030462  0  0  0.009183  0.092491  0  3.992104  0
C  C81  1  0.05630438  0.29214428  0.79735241  1  0  0.08176  0  3.777647  0  0  0.094241  0  4.008069  0  0  0.097467  0  4.030427  0  0  0.009203  0.092499  0  3.992091  0
C  C82  1  0.19928556  0.80936741  0.43686170  1  0  0.131226  0  3.699792  0  0  0.097484  0  3.964051  0  0  0.102365  0  3.983482  0  0  0.046187  0.094587  0  3.950533  0
C  C83  1  0.80071176  0.80936168  0.06313748  1  0  0.131341  0  3.699813  0  0  0.097603  0  3.964082  0  0  0.102489  0  3.983512  0  0  0.046216  0.094709  0  3.950561  0
C  C84  1  0.80071602  0.19063935  0.56313698  1  0  0.131237  0  3.69989  0  0  0.097464  0  3.964133  0  0  0.102347  0  3.983564  0  0  0.046139  0.094564  0  3.950618  0
C  C85  1  0.19928554  0.19063976  0.93686206  1  0  0.13137  0  3.699884  0  0  0.0976  0  3.964146  0  0  0.102485  0  3.983577  0  0  0.046207  0.094701  0  3.950625  0
N  N86  1  0.49999521  0.52065248  0.25000183  1  0  -0.231931  0  3.358114  0  0  -0.179873  0  3.634116  0  0  -0.205937  0  3.652739  0  0  -0.338164  -0.164155  0  3.622221  0
N  N87  1  0.50000216  0.47934363  0.75000100  1  0  -0.231967  0  3.358137  0  0  -0.179921  0  3.634185  0  0  -0.205983  0  3.652803  0  0  -0.338206  -0.164212  0  3.622304  0
N  N88  1  0.50000567  0.15223218  0.24999789  1  0  -0.24988  0  3.253687  0  0  -0.195749  0  3.518092  0  0  -0.221544  0  3.541092  0  0  -0.301604  -0.178436  0  3.501572  0
N  N89  1  0.49999451  0.84776303  0.75000195  1  0  -0.249926  0  3.253617  0  0  -0.195898  0  3.51811  0  0  -0.221696  0  3.541112  0  0  -0.301661  -0.178596  0  3.501613  0
N  N90  1  0.76331893  0.33309347  0.30403004  1  0  -0.484332  0  3.134813  0  0  -0.466121  0  3.460073  0  0  -0.484093  0  3.457451  0  0  -0.399113  -0.456616  0  3.460688  0
N  N91  1  0.23667764  0.33308820  0.19596790  1  0  -0.484336  0  3.135047  0  0  -0.466112  0  3.460244  0  0  -0.484085  0  3.457625  0  0  -0.399169  -0.456613  0  3.460863  0
N  N92  1  0.23667840  0.66690530  0.69597081  1  0  -0.484255  0  3.134787  0  0  -0.466038  0  3.460033  0  0  -0.484012  0  3.457418  0  0  -0.399096  -0.45653  0  3.460667  0
N  N93  1  0.76332684  0.66690968  0.80403240  1  0  -0.484273  0  3.135077  0  0  -0.466058  0  3.460307  0  0  -0.48403  0  3.457687  0  0  -0.399167  -0.456548  0  3.460943  0
N  N94  1  0.08849650  0.27724994  0.39354150  1  0  -0.436711  0  2.951848  0  0  -0.418511  0  3.223375  0  0  -0.433535  0  3.219701  0  0  -0.240445  -0.408627  0  3.226621  0
N  N95  1  0.91150352  0.27724656  0.10645601  1  0  -0.436748  0  2.951535  0  0  -0.418563  0  3.223071  0  0  -0.433569  0  3.219384  0  0  -0.240515  -0.408684  0  3.226318  0
N  N96  1  0.91149938  0.72274794  0.60645854  1  0  -0.43657  0  2.951919  0  0  -0.418377  0  3.223428  0  0  -0.43338  0  3.219746  0  0  -0.240454  -0.408488  0  3.226673  0
N  N97  1  0.08849953  0.72274510  0.89354413  1  0  -0.436632  0  2.951624  0  0  -0.418437  0  3.223149  0  0  -0.433446  0  3.219467  0  0  -0.240435  -0.408547  0  3.226398  0
N  N98  1  0.11328180  0.15864143  0.41693585  1  0  0.603445  0  4.047146  0  0  0.641971  0  4.336492  0  0  0.665517  0  4.344254  0  0  0.122025  0.624626  0  4.331567  0
N  N99  1  0.88671806  0.15863806  0.08306334  1  0  0.603259  0  4.047047  0  0  0.641828  0  4.336379  0  0  0.665354  0  4.344144  0  0  0.122016  0.624484  0  4.331448  0
N  N100  1  0.88671113  0.84135645  0.58305993  1  0  0.602965  0  4.047388  0  0  0.641561  0  4.336678  0  0  0.665082  0  4.344437  0  0  0.12192  0.624207  0  4.331753  0
N  N101  1  0.11329359  0.84135449  0.91693707  1  0  0.602994  0  4.047439  0  0  0.641557  0  4.336743  0  0  0.665084  0  4.344509  0  0  0.121866  0.624206  0  4.331813  0
N  N102  1  0.28050310  0.70892815  0.47610234  1  0  -0.315372  0  3.183144  0  0  -0.250809  0  3.431776  0  0  -0.26533  0  3.44948  0  0  -0.310184  -0.241211  0  3.419493  0
N  N103  1  0.71949242  0.70892438  0.02389772  1  0  -0.315453  0  3.183254  0  0  -0.250932  0  3.431946  0  0  -0.265455  0  3.44965  0  0  -0.310171  -0.241339  0  3.419673  0
N  N104  1  0.71949706  0.29107684  0.52389684  1  0  -0.315373  0  3.183243  0  0  -0.250897  0  3.431947  0  0  -0.265417  0  3.449648  0  0  -0.310192  -0.2413  0  3.419666  0
N  N105  1  0.28050776  0.29107617  0.97610279  1  0  -0.315439  0  3.18323  0  0  -0.250955  0  3.431937  0  0  -0.265475  0  3.449639  0  0  -0.310196  -0.241356  0  3.419655  0
O  O106  1  0.44682441  0.35648286  0.38067465  1  0  -0.753214  0  2.053113  0  0  -0.720786  0  2.312529  0  0  -0.75397  0  2.285174  0  0  -0.548291  -0.694789  0  2.326219  0
O  O107  1  0.55317624  0.35648648  0.11932444  1  0  -0.753296  0  2.053029  0  0  -0.720858  0  2.31245  0  0  -0.754043  0  2.285091  0  0  -0.548293  -0.694862  0  2.326156  0
O  O108  1  0.55317428  0.64351325  0.61932240  1  0  -0.753333  0  2.052913  0  0  -0.720847  0  2.312356  0  0  -0.754033  0  2.284999  0  0  -0.548278  -0.69489  0  2.326127  0
O  O109  1  0.44682830  0.64351229  0.88067915  1  0  -0.753342  0  2.052919  0  0  -0.720859  0  2.312364  0  0  -0.754045  0  2.284998  0  0  -0.54828  -0.694891  0  2.32612  0
O  O110  1  0.27449866  0.13219083  0.46535409  1  0  -0.418278  0  1.758932  0  0  -0.407732  0  1.969261  0  0  -0.414239  0  1.962259  0  0  -0.164174  -0.403541  0  1.974597  0
O  O111  1  0.72550288  0.13218797  0.03464324  1  0  -0.418198  0  1.75891  0  0  -0.407659  0  1.969213  0  0  -0.414161  0  1.96221  0  0  -0.164175  -0.403471  0  1.97455  0
O  O112  1  0.72549141  0.86780083  0.53464205  1  0  -0.418082  0  1.758966  0  0  -0.407576  0  1.96927  0  0  -0.414073  0  1.96227  0  0  -0.164135  -0.403377  0  1.974603  0
O  O113  1  0.27450733  0.86779747  0.96535701  1  0  -0.418114  0  1.759096  0  0  -0.407578  0  1.969392  0  0  -0.414081  0  1.962389  0  0  -0.164094  -0.403375  0  1.974725  0
O  O114  1  0.98076719  0.08564662  0.38988363  1  0  -0.412353  0  1.757799  0  0  -0.401505  0  1.962481  0  0  -0.409805  0  1.957676  0  0  -0.156681  -0.3961  0  1.966355  0
O  O115  1  0.01923346  0.08564107  0.11011612  1  0  -0.412267  0  1.757875  0  0  -0.401449  0  1.962541  0  0  -0.409752  0  1.957754  0  0  -0.156658  -0.396049  0  1.966412  0
O  O116  1  0.01922566  0.91435393  0.61010754  1  0  -0.412186  0  1.757912  0  0  -0.401352  0  1.962559  0  0  -0.409651  0  1.957767  0  0  -0.156621  -0.39594  0  1.966425  0
O  O117  1  0.98078530  0.91435504  0.88988109  1  0  -0.412175  0  1.75784  0  0  -0.401316  0  1.962478  0  0  -0.40962  0  1.957686  0  0  -0.156582  -0.395899  0  1.966343  0
