# generated using pymatgen
data_H14PbC12(IN)2
_symmetry_space_group_name_H-M   'P 1'
_cell_length_a   4.42971895
_cell_length_b   9.54250547
_cell_length_c   10.47352999
_cell_angle_alpha   115.46877834
_cell_angle_beta   89.90631736
_cell_angle_gamma   94.32670912
_symmetry_Int_Tables_number   1
_chemical_formula_structural   H14PbC12(IN)2
_chemical_formula_sum   'H14 Pb1 C12 I2 N2'
_cell_volume   398.32613609
_cell_formula_units_Z   1
loop_
 _symmetry_equiv_pos_site_id
 _symmetry_equiv_pos_as_xyz
  1  'x, y, z'
loop_
 _atom_site_type_symbol
 _atom_site_label
 _atom_site_symmetry_multiplicity
 _atom_site_fract_x
 _atom_site_fract_y
 _atom_site_fract_z
 _atom_site_occupancy
 _atom_site_hle17_bader_spin_density
 _atom_site_hle17_ddec_charge
 _atom_site_hle17_ddec_spin_density
 _atom_site_hle17_ddec_sum_bond_order
 _atom_site_hle17_magmom
 _atom_site_hse06_10hf_bader_spin_density
 _atom_site_hse06_10hf_ddec_charge
 _atom_site_hse06_10hf_ddec_spin_density
 _atom_site_hse06_10hf_ddec_sum_bond_order
 _atom_site_hse06_10hf_magmom
 _atom_site_hse06_bader_spin_density
 _atom_site_hse06_ddec_charge
 _atom_site_hse06_ddec_spin_density
 _atom_site_hse06_ddec_sum_bond_order
 _atom_site_hse06_magmom
 _atom_site_pbe_bader_spin_density
 _atom_site_pbe_cm5_charge
 _atom_site_pbe_ddec_charge
 _atom_site_pbe_ddec_spin_density
 _atom_site_pbe_ddec_sum_bond_order
 _atom_site_pbe_magmom
H  H0  1  0.23921450  0.65233633  0.98513292  1  0  0.062309  0  0.972751  0  0  0.066732  0  1.046711  0  0  0.069607  0  1.044073  0  0  0.096786  0.06451  0  1.048906  0
H  H1  1  0.76059437  0.34770176  0.01491177  1  0  0.062608  0  0.972694  0  0  0.066884  0  1.046781  0  0  0.06979  0  1.044119  0  0  0.096908  0.064681  0  1.048925  0
H  H2  1  0.25720749  0.36616457  0.83365073  1  0  0.104694  0  0.959279  0  0  0.112111  0  1.024782  0  0  0.115641  0  1.023746  0  0  0.096969  0.109583  0  1.025767  0
H  H3  1  0.74284156  0.63389420  0.16638384  1  0  0.104787  0  0.959326  0  0  0.112072  0  1.024969  0  0  0.115602  0  1.023935  0  0  0.096969  0.10954  0  1.025958  0
H  H4  1  0.68679434  0.41709453  0.52578766  1  0  0.103813  0  0.94821  0  0  0.118038  0  1.003449  0  0  0.120618  0  1.003717  0  0  0.103595  0.116092  0  1.003687  0
H  H5  1  0.31330566  0.58287966  0.47418368  1  0  0.103859  0  0.948162  0  0  0.118091  0  1.003405  0  0  0.120674  0  1.003672  0  0  0.103595  0.116145  0  1.003643  0
H  H6  1  0.68748841  0.70040810  0.69055695  1  0  0.058963  0  0.975225  0  0  0.063738  0  1.051072  0  0  0.06686  0  1.047671  0  0  0.095991  0.061472  0  1.053419  0
H  H7  1  0.31230050  0.29954254  0.30944508  1  0  0.058799  0  0.975345  0  0  0.063587  0  1.0512  0  0  0.066731  0  1.047717  0  0  0.096019  0.061324  0  1.053547  0
H  H8  1  0.10709369  0.18204453  0.47309028  1  0  0.108169  0  0.963879  0  0  0.124949  0  1.035994  0  0  0.126419  0  1.035513  0  0  0.081675  0.12387  0  1.036254  0
H  H9  1  0.89271283  0.81792582  0.52685836  1  0  0.108033  0  0.9641  0  0  0.124738  0  1.036371  0  0  0.126213  0  1.035885  0  0  0.081532  0.123653  0  1.036633  0
H  H10  1  0.09830723  0.13750997  0.62167421  1  0  0.113192  0  0.97705  0  0  0.130498  0  1.044516  0  0  0.13264  0  1.043675  0  0  0.077901  0.128992  0  1.044983  0
H  H11  1  0.90193856  0.86252717  0.37832025  1  0  0.113084  0  0.976929  0  0  0.13039  0  1.044508  0  0  0.132543  0  1.043652  0  0  0.077892  0.128869  0  1.044999  0
H  H12  1  0.75659241  0.14112127  0.53385146  1  0  0.11701  0  0.953175  0  0  0.136372  0  1.01729  0  0  0.138086  0  1.016686  0  0  0.084082  0.135017  0  1.017849  0
H  H13  1  0.24342737  0.85887608  0.46629184  1  0  0.11683  0  0.953257  0  0  0.136168  0  1.017422  0  0  0.137904  0  1.016799  0  0  0.084029  0.13481  0  1.017979  0
Pb  Pb14  1  0.00016348  0.99998448  0.99992795  1  0  0.862105  0  1.871104  0  0  0.675548  0  2.325507  0  0  0.731225  0  2.295081  0  0  0.344159  0.637284  0  2.344959  0
C  C15  1  0.11814431  0.59513882  0.88248232  1  0  0.12568  0  3.750268  0  0  0.097674  0  4.000121  0  0  0.104886  0  4.01955  0  0  0.037871  0.093364  0  3.987227  0
C  C16  1  0.88171900  0.40488110  0.11754311  1  0  0.125563  0  3.750388  0  0  0.097692  0  4.00017  0  0  0.104875  0  4.019586  0  0  0.037972  0.093389  0  3.987286  0
C  C17  1  0.12819737  0.43641502  0.79781964  1  0  -0.18231  0  3.706751  0  0  -0.195542  0  3.94568  0  0  -0.204396  0  3.967707  0  0  -0.089778  -0.190042  0  3.931627  0
C  C18  1  0.87179176  0.56361646  0.20220409  1  0  -0.182427  0  3.707142  0  0  -0.195617  0  3.945963  0  0  -0.204473  0  3.968004  0  0  -0.089916  -0.190119  0  3.931907  0
C  C19  1  0.97440321  0.36716201  0.66575682  1  0  0.206427  0  3.72926  0  0  0.228538  0  3.960105  0  0  0.234269  0  3.982275  0  0  0.012439  0.224414  0  3.945352  0
C  C20  1  0.02565082  0.63284560  0.33424929  1  0  0.206434  0  3.729458  0  0  0.228795  0  3.959961  0  0  0.234524  0  3.982128  0  0  0.012542  0.224675  0  3.945196  0
C  C21  1  0.81196026  0.46448399  0.62712416  1  0  -0.185103  0  3.715747  0  0  -0.20006  0  3.956942  0  0  -0.208626  0  3.979585  0  0  -0.090137  -0.194729  0  3.942278  0
C  C22  1  0.18805948  0.53550119  0.37286641  1  0  -0.185503  0  3.715936  0  0  -0.20058  0  3.957139  0  0  -0.209148  0  3.979774  0  0  -0.090282  -0.195249  0  3.942473  0
C  C23  1  0.81254735  0.62189710  0.71780494  1  0  0.11976  0  3.762962  0  0  0.088849  0  4.019767  0  0  0.095954  0  4.038989  0  0  0.035998  0.085017  0  4.006225  0
C  C24  1  0.18731688  0.37807628  0.28219954  1  0  0.120017  0  3.762713  0  0  0.089145  0  4.019446  0  0  0.096265  0  4.038678  0  0  0.035916  0.085307  0  4.005909  0
C  C25  1  0.98532833  0.19819094  0.56957949  1  0  -0.351678  0  3.721158  0  0  -0.427912  0  3.951295  0  0  -0.431038  0  3.959098  0  0  -0.249096  -0.425666  0  3.945736  0
C  C26  1  0.01473635  0.80181448  0.43044013  1  0  -0.351123  0  3.721285  0  0  -0.42737  0  3.951238  0  0  -0.430545  0  3.959061  0  0  -0.248996  -0.425106  0  3.94568  0
I  I27  1  0.50761731  0.03302347  0.79217350  1  0  -0.486835  0  1.049712  0  0  -0.410525  0  1.363466  0  0  -0.434012  0  1.345353  0  0  -0.152316  -0.393624  0  1.375028  0
I  I28  1  0.49275583  0.96696085  0.20767775  1  0  -0.486792  0  1.049423  0  0  -0.41058  0  1.363294  0  0  -0.434059  0  1.345146  0  0  -0.152455  -0.393671  0  1.374852  0
N  N29  1  0.96414154  0.68760747  0.84372591  1  0  -0.345136  0  3.234649  0  0  -0.271152  0  3.489283  0  0  -0.292452  0  3.513009  0  0  -0.313944  -0.256836  0  3.47239  0
N  N30  1  0.03564787  0.31238272  0.15629246  1  0  -0.345229  0  3.234325  0  0  -0.271272  0  3.488916  0  0  -0.292579  0  3.51265  0  0  -0.313918  -0.256965  0  3.472034  0
