# generated using pymatgen
data_ZnH10C12N2O5
_symmetry_space_group_name_H-M   'P 1'
_cell_length_a   8.00001406
_cell_length_b   9.91370660
_cell_length_c   16.99251758
_cell_angle_alpha   83.49587478
_cell_angle_beta   76.64576999
_cell_angle_gamma   66.20982332
_symmetry_Int_Tables_number   1
_chemical_formula_structural   ZnH10C12N2O5
_chemical_formula_sum   'Zn4 H40 C48 N8 O20'
_cell_volume   1199.50997905
_cell_formula_units_Z   4
loop_
 _symmetry_equiv_pos_site_id
 _symmetry_equiv_pos_as_xyz
  1  'x, y, z'
loop_
 _atom_site_type_symbol
 _atom_site_label
 _atom_site_symmetry_multiplicity
 _atom_site_fract_x
 _atom_site_fract_y
 _atom_site_fract_z
 _atom_site_occupancy
 _atom_site_hle17_bader_spin_density
 _atom_site_hle17_ddec_charge
 _atom_site_hle17_ddec_spin_density
 _atom_site_hle17_ddec_sum_bond_order
 _atom_site_hle17_magmom
 _atom_site_hse06_10hf_bader_spin_density
 _atom_site_hse06_10hf_ddec_charge
 _atom_site_hse06_10hf_ddec_spin_density
 _atom_site_hse06_10hf_ddec_sum_bond_order
 _atom_site_hse06_10hf_magmom
 _atom_site_hse06_bader_spin_density
 _atom_site_hse06_ddec_charge
 _atom_site_hse06_ddec_spin_density
 _atom_site_hse06_ddec_sum_bond_order
 _atom_site_hse06_magmom
 _atom_site_pbe_bader_charge
 _atom_site_pbe_bader_spin_density
 _atom_site_pbe_cm5_charge
 _atom_site_pbe_ddec_charge
 _atom_site_pbe_ddec_spin_density
 _atom_site_pbe_ddec_sum_bond_order
 _atom_site_pbe_magmom
Zn  Zn0  1  0.96316148  0.81305969  0.71284791  1  0  1.097309  0  1.784014  0  0  0.919191  0  2.258861  0  0  0.967092  0  2.199385  0  1.300539  0  0.703837  0.885527  0  2.30021  0
Zn  Zn1  1  0.48901843  0.68716508  0.78617897  1  0  1.096879  0  1.787734  0  0  0.918751  0  2.263196  0  0  0.966502  0  2.203723  0  1.295641  0  0.704301  0.885394  0  2.304223  0
Zn  Zn2  1  0.03683620  0.18693983  0.28715177  1  0  1.097296  0  1.783978  0  0  0.919172  0  2.258825  0  0  0.967072  0  2.199349  0  1.300551  0  0.703833  0.885507  0  2.300171  0
Zn  Zn3  1  0.51097753  0.31283333  0.21381911  1  0  1.09683  0  1.787763  0  0  0.918671  0  2.263249  0  0  0.966425  0  2.203776  0  1.295601  0  0.704239  0.885314  0  2.304275  0
H  H4  1  0.85047571  0.26075491  0.86496799  1  0  0.322347  0  0.884801  0  0  0.303729  0  0.945878  0  0  0.311909  0  0.938702  0  0.541046  0  0.324511  0.297657  0  0.951356  0
H  H5  1  0.97683639  0.23950563  0.63507622  1  0  0.321964  0  0.884843  0  0  0.302731  0  0.946653  0  0  0.310897  0  0.939523  0  0.539956  0  0.324482  0.296981  0  0.951732  0
H  H6  1  0.14951224  0.73924571  0.13503184  1  0  0.322232  0  0.884917  0  0  0.303612  0  0.946009  0  0  0.311793  0  0.938832  0  0.541312  0  0.324449  0.297539  0  0.951487  0
H  H7  1  0.02316413  0.76049389  0.36492448  1  0  0.321985  0  0.884801  0  0  0.302759  0  0.946612  0  0  0.310924  0  0.939481  0  0.539971  0  0.324483  0.297009  0  0.95169  0
H  H8  1  0.25961595  0.60536347  0.96020271  1  0  0.108687  0  0.950065  0  0  0.116666  0  1.015192  0  0  0.12086  0  1.011884  0  0.107456  0  0.105267  0.113643  0  1.017658  0
H  H9  1  0.82474318  0.89461541  0.53984818  1  0  0.109282  0  0.949831  0  0  0.117263  0  1.014921  0  0  0.121483  0  1.011589  0  0.109309  0  0.105412  0.114162  0  1.017367  0
H  H10  1  0.74038456  0.39463605  0.03979799  1  0  0.108653  0  0.950089  0  0  0.116636  0  1.015214  0  0  0.120827  0  1.011905  0  0.107496  0  0.105259  0.113613  0  1.017679  0
H  H11  1  0.17525400  0.10539073  0.46015507  1  0  0.109299  0  0.949834  0  0  0.117294  0  1.014926  0  0  0.121516  0  1.011591  0  0.109755  0  0.105418  0.114198  0  1.017368  0
H  H12  1  0.28136582  0.17549978  0.04556142  1  0  0.117219  0  0.964739  0  0  0.123935  0  1.034537  0  0  0.127819  0  1.032052  0  0.09599  0  0.106655  0.121064  0  1.036588  0
H  H13  1  0.50168270  0.32492616  0.45448910  1  0  0.117386  0  0.964136  0  0  0.123433  0  1.0347  0  0  0.127354  0  1.032239  0  0.093717  0  0.106431  0.120768  0  1.036163  0
H  H14  1  0.71863533  0.82449754  0.95443462  1  0  0.117193  0  0.964628  0  0  0.123928  0  1.034405  0  0  0.127802  0  1.031945  0  0.095972  0  0.106671  0.121051  0  1.036471  0
H  H15  1  0.49832020  0.67508439  0.54551907  1  0  0.117351  0  0.964271  0  0  0.123354  0  1.034897  0  0  0.127293  0  1.032384  0  0.093345  0  0.1064  0.12069  0  1.036358  0
H  H16  1  0.11898434  0.34928382  0.81710238  1  0  0.116639  0  0.937341  0  0  0.125883  0  1.001658  0  0  0.129938  0  0.998343  0  0.087264  0  0.109142  0.122868  0  1.004166  0
H  H17  1  0.28665240  0.15040333  0.68221239  1  0  0.117065  0  0.936448  0  0  0.126297  0  1.000591  0  0  0.130392  0  0.997258  0  0.099598  0  0.109324  0.123323  0  1.0031  0
H  H18  1  0.88102153  0.65071900  0.18289388  1  0  0.116647  0  0.937349  0  0  0.125903  0  1.001634  0  0  0.129961  0  0.998321  0  0.087208  0  0.109145  0.122886  0  1.004147  0
H  H19  1  0.71335201  0.84959729  0.31779415  1  0  0.117024  0  0.936524  0  0  0.126296  0  1.000607  0  0  0.130392  0  0.997276  0  0.09962  0  0.109334  0.123321  0  1.003117  0
H  H20  1  0.37339665  0.95999738  0.97026603  1  0  0.083995  0  0.954625  0  0  0.097449  0  1.028765  0  0  0.097869  0  1.028687  0  0.068197  0  0.095691  0.097185  0  1.028952  0
H  H21  1  0.30381038  0.54020975  0.53000462  1  0  0.084997  0  0.954702  0  0  0.098035  0  1.029272  0  0  0.09843  0  1.029199  0  0.095338  0  0.096182  0.097883  0  1.028954  0
H  H22  1  0.62660337  0.04000214  0.02973131  1  0  0.084012  0  0.954601  0  0  0.09748  0  1.028728  0  0  0.097899  0  1.028654  0  0.068231  0  0.095688  0.097218  0  1.028915  0
H  H23  1  0.69618564  0.45979087  0.46999358  1  0  0.084995  0  0.954679  0  0  0.098057  0  1.029222  0  0  0.098453  0  1.02915  0  0.095241  0  0.09617  0.097905  0  1.028903  0
H  H24  1  0.20088769  0.91396371  0.94301238  1  0  0.103063  0  0.926501  0  0  0.123082  0  0.984423  0  0  0.123814  0  0.983691  0  0.096889  0  0.107516  0.122724  0  0.984734  0
H  H25  1  0.05852853  0.58631730  0.55674977  1  0  0.102347  0  0.926324  0  0  0.1221  0  0.984764  0  0  0.122805  0  0.984051  0  0.102566  0  0.106676  0.121406  0  0.985555  0
H  H26  1  0.79911409  0.08603581  0.05698319  1  0  0.103073  0  0.926422  0  0  0.12312  0  0.984319  0  0  0.123854  0  0.983583  0  0.0969  0  0.107511  0.122762  0  0.98463  0
H  H27  1  0.94147025  0.41367891  0.44324790  1  0  0.102363  0  0.926367  0  0  0.122121  0  0.984797  0  0  0.122823  0  0.984089  0  0.102615  0  0.106703  0.121426  0  0.985587  0
H  H28  1  0.13805688  0.02904616  0.02842264  1  0  0.079423  0  0.959436  0  0  0.094404  0  1.028146  0  0  0.094392  0  1.029122  0  0.049081  0  0.095038  0.094419  0  1.027567  0
H  H29  1  0.19521588  0.47154077  0.47132298  1  0  0.078802  0  0.960329  0  0  0.094014  0  1.028573  0  0  0.093986  0  1.029541  0  0.042092  0  0.094604  0.093836  0  1.028136  0
H  H30  1  0.86194221  0.97095888  0.97157154  1  0  0.07943  0  0.95951  0  0  0.094433  0  1.028166  0  0  0.094424  0  1.029137  0  0.048988  0  0.095046  0.094448  0  1.027586  0
H  H31  1  0.80478772  0.52844662  0.52867949  1  0  0.078837  0  0.960299  0  0  0.094053  0  1.02854  0  0  0.094022  0  1.029509  0  0.042257  0  0.094603  0.09387  0  1.028108  0
H  H32  1  0.55722291  0.02508542  0.81152279  1  0  0.111467  0  0.958194  0  0  0.12167  0  1.015006  0  0  0.123956  0  1.014657  0  0.108104  0  0.118077  0.119917  0  1.015632  0
H  H33  1  0.39512599  0.47321129  0.68824339  1  0  0.112196  0  0.958517  0  0  0.121926  0  1.015912  0  0  0.124222  0  1.015549  0  0.114183  0  0.118696  0.120293  0  1.016192  0
H  H34  1  0.44277021  0.97491300  0.18847427  1  0  0.111416  0  0.958254  0  0  0.121682  0  1.015002  0  0  0.123968  0  1.014653  0  0.108098  0  0.118083  0.119934  0  1.015615  0
H  H35  1  0.60487453  0.52678271  0.31175108  1  0  0.11218  0  0.95847  0  0  0.121958  0  1.015818  0  0  0.124254  0  1.015454  0  0.114152  0  0.118676  0.120325  0  1.016098  0
H  H36  1  0.52879773  0.27806440  0.88164422  1  0  0.102155  0  1.013402  0  0  0.110797  0  1.077191  0  0  0.111476  0  1.079733  0  0.151071  0  0.116634  0.110233  0  1.075577  0
H  H37  1  0.68969094  0.22048041  0.61857090  1  0  0.102516  0  1.013907  0  0  0.110824  0  1.078169  0  0  0.111535  0  1.08071  0  0.146396  0  0.116505  0.110263  0  1.076673  0
H  H38  1  0.47119261  0.72193623  0.11835194  1  0  0.102188  0  1.01342  0  0  0.110822  0  1.077211  0  0  0.111503  0  1.079755  0  0.151144  0  0.116617  0.11025  0  1.075596  0
H  H39  1  0.31031987  0.77951470  0.38142559  1  0  0.102521  0  1.013874  0  0  0.110829  0  1.078141  0  0  0.111542  0  1.080676  0  0.14642  0  0.116509  0.110275  0  1.076627  0
H  H40  1  0.09690979  0.02213691  0.78886784  1  0  0.103865  0  0.943444  0  0  0.111345  0  1.011167  0  0  0.114499  0  1.006632  0  0.1586  0  0.137747  0.109003  0  1.014468  0
H  H41  1  0.90821407  0.47900464  0.71086533  1  0  0.104648  0  0.944001  0  0  0.111939  0  1.011725  0  0  0.115141  0  1.007137  0  0.163449  0  0.138154  0.109407  0  1.01534  0
H  H42  1  0.90308379  0.97786150  0.21113392  1  0  0.103798  0  0.943537  0  0  0.111296  0  1.011231  0  0  0.114447  0  1.006693  0  0.158502  0  0.137699  0.108957  0  1.014525  0
H  H43  1  0.09177956  0.52099598  0.28913654  1  0  0.104634  0  0.944043  0  0  0.111923  0  1.01177  0  0  0.115125  0  1.00718  0  0.163549  0  0.138143  0.109393  0  1.01538  0
C  C44  1  0.18659226  0.48918326  0.88189209  1  0  -0.06482  0  3.812677  0  0  -0.038901  0  4.050937  0  0  -0.04699  0  4.074492  0  -0.044338  0  -0.021735  -0.033743  0  4.035118  0
C  C45  1  0.55802349  0.01068694  0.61772937  1  0  -0.066216  0  3.816524  0  0  -0.040358  0  4.054633  0  0  -0.04843  0  4.078232  0  0.01915  0  -0.022286  -0.035031  0  4.03842  0
C  C46  1  0.81341066  0.51081847  0.11810638  1  0  -0.064729  0  3.81258  0  0  -0.038819  0  4.050829  0  0  -0.046907  0  4.074386  0  -0.044032  0  -0.02172  -0.033664  0  4.035002  0
C  C47  1  0.44197366  0.98931920  0.38227521  1  0  -0.066488  0  3.816585  0  0  -0.040645  0  4.05476  0  0  -0.048713  0  4.078355  0  0.019262  0  -0.022341  -0.035317  0  4.03855  0
C  C48  1  0.24157970  0.50546287  0.95149137  1  0  -0.09098  0  3.715802  0  0  -0.131205  0  3.96857  0  0  -0.130106  0  3.987538  0  0.028122  0  -0.08598  -0.131694  0  3.955908  0
C  C49  1  0.69834868  0.99458768  0.54846784  1  0  -0.092587  0  3.718601  0  0  -0.132719  0  3.971295  0  0  -0.131687  0  3.990261  0  -0.003799  0  -0.086082  -0.133098  0  3.958132  0
C  C50  1  0.75842258  0.49453665  0.04850757  1  0  -0.090904  0  3.715798  0  0  -0.131121  0  3.96857  0  0  -0.130012  0  3.987525  0  0.027791  0  -0.085928  -0.131609  0  3.955904  0
C  C51  1  0.30165480  0.00542176  0.45153903  1  0  -0.092502  0  3.718622  0  0  -0.132618  0  3.971358  0  0  -0.13159  0  3.990324  0  -0.004735  0  -0.08608  -0.133003  0  3.958196  0
C  C52  1  0.27318118  0.39261598  0.01007254  1  0  -0.035345  0  3.761884  0  0  -0.008138  0  3.991883  0  0  -0.014556  0  4.013723  0  -0.043775  0  -0.015857  -0.004062  0  3.977353  0
C  C53  1  0.67538257  0.10762471  0.48997987  1  0  -0.03404  0  3.761508  0  0  -0.006621  0  3.99055  0  0  -0.013012  0  4.012431  0  -0.021335  0  -0.015233  -0.002856  0  3.976353  0
C  C54  1  0.72681826  0.60738353  0.98992538  1  0  -0.035428  0  3.761979  0  0  -0.008257  0  3.992002  0  0  -0.014673  0  4.013838  0  -0.043491  0  -0.015923  -0.00418  0  3.97747  0
C  C55  1  0.32462322  0.89238363  0.51002525  1  0  -0.033876  0  3.76149  0  0  -0.006616  0  3.990716  0  0  -0.013004  0  4.012606  0  -0.020875  0  -0.015158  -0.002858  0  3.976535  0
C  C56  1  0.25282026  0.26224459  0.99918147  1  0  -0.19185  0  3.695187  0  0  -0.224781  0  3.943135  0  0  -0.226498  0  3.960538  0  -0.030628  0  -0.097368  -0.223478  0  3.931855  0
C  C57  1  0.51399534  0.23800822  0.50074995  1  0  -0.192805  0  3.69543  0  0  -0.225198  0  3.943342  0  0  -0.226999  0  3.960606  0  -0.033646  0  -0.096934  -0.223447  0  3.931287  0
C  C58  1  0.74718651  0.73775051  0.00081650  1  0  -0.191719  0  3.695063  0  0  -0.224675  0  3.943  0  0  -0.226394  0  3.960401  0  -0.030655  0  -0.097359  -0.223373  0  3.931717  0
C  C59  1  0.48600979  0.76199901  0.49925768  1  0  -0.192762  0  3.695327  0  0  -0.22513  0  3.943264  0  0  -0.22693  0  3.960544  0  -0.032608  0  -0.096974  -0.223378  0  3.93121  0
C  C60  1  0.19742376  0.24685593  0.92947846  1  0  0.26004  0  3.813599  0  0  0.258292  0  4.069208  0  0  0.267508  0  4.084794  0  0.450072  0  0.083238  0.251573  0  4.058792  0
C  C61  1  0.37421363  0.25326457  0.57023178  1  0  0.260489  0  3.815382  0  0  0.25887  0  4.070565  0  0  0.268175  0  4.086079  0  0.452423  0  0.082901  0.252019  0  4.06019  0
C  C62  1  0.80258205  0.75314469  0.07051767  1  0  0.25981  0  3.813705  0  0  0.258154  0  4.069202  0  0  0.267364  0  4.084788  0  0.449542  0  0.083152  0.251436  0  4.058783  0
C  C63  1  0.62579099  0.74674377  0.42977452  1  0  0.260355  0  3.815473  0  0  0.258848  0  4.070497  0  0  0.268152  0  4.086012  0  0.451872  0  0.082885  0.251996  0  4.060123  0
C  C64  1  0.16262176  0.36108996  0.87118201  1  0  -0.160102  0  3.693997  0  0  -0.199345  0  3.953262  0  0  -0.19958  0  3.968984  0  0.030299  0  -0.089401  -0.19885  0  3.942706  0
C  C65  1  0.39566699  0.13884309  0.62837541  1  0  -0.159448  0  3.693781  0  0  -0.198563  0  3.952604  0  0  -0.198912  0  3.968397  0  -0.031456  0  -0.088738  -0.198065  0  3.94213  0
C  C66  1  0.83738625  0.63890846  0.12881562  1  0  -0.160112  0  3.693924  0  0  -0.19938  0  3.953144  0  0  -0.199618  0  3.968868  0  0.030961  0  -0.089417  -0.198889  0  3.942592  0
C  C67  1  0.60433923  0.86116194  0.37163225  1  0  -0.159301  0  3.693797  0  0  -0.198466  0  3.952555  0  0  -0.198798  0  3.96831  0  -0.031234  0  -0.088717  -0.197973  0  3.942093  0
C  C68  1  0.14890266  0.61117887  0.82027049  1  0  0.660587  0  3.875515  0  0  0.609275  0  4.161762  0  0  0.644109  0  4.154345  0  1.531086  0  0.217959  0.585551  0  4.166191  0
C  C69  1  0.58069361  0.88843172  0.67909521  1  0  0.661998  0  3.875192  0  0  0.61013  0  4.162265  0  0  0.644988  0  4.154871  0  1.522056  0  0.22009  0.586267  0  4.166822  0
C  C70  1  0.85109854  0.38882395  0.17972914  1  0  0.660758  0  3.87553  0  0  0.609448  0  4.161762  0  0  0.64428  0  4.154342  0  1.530804  0  0.218028  0.585737  0  4.166174  0
C  C71  1  0.41930857  0.11156449  0.32090422  1  0  0.662132  0  3.875159  0  0  0.610227  0  4.162278  0  0  0.645084  0  4.154879  0  1.522124  0  0.220052  0.586362  0  4.166836  0
C  C72  1  0.33500920  0.41157174  0.08351388  1  0  0.654768  0  3.905473  0  0  0.607305  0  4.194017  0  0  0.641015  0  4.18681  0  1.580589  0  0.207847  0.584302  0  4.198252  0
C  C73  1  0.82919978  0.08848371  0.41684346  1  0  0.656519  0  3.902547  0  0  0.609157  0  4.190717  0  0  0.642882  0  4.183464  0  1.577327  0  0.208398  0.586241  0  4.195127  0
C  C74  1  0.66498669  0.58842558  0.91648613  1  0  0.654654  0  3.905849  0  0  0.607243  0  4.194317  0  0  0.640955  0  4.187106  0  1.580202  0  0.207799  0.584241  0  4.198554  0
C  C75  1  0.17080254  0.91152353  0.58316183  1  0  0.656365  0  3.902617  0  0  0.609099  0  4.190708  0  0  0.642816  0  4.183468  0  1.57711  0  0.208448  0.586184  0  4.195114  0
C  C76  1  0.22511437  0.00025582  0.96763797  1  0  -0.074812  0  3.624181  0  0  -0.171294  0  3.889614  0  0  -0.164148  0  3.893282  0  0.36312  0  -0.143726  -0.176016  0  3.886592  0
C  C77  1  0.19329942  0.50002567  0.53224675  1  0  -0.074621  0  3.624203  0  0  -0.170471  0  3.889272  0  0  -0.163358  0  3.89301  0  0.335887  0  -0.143087  -0.17508  0  3.886543  0
C  C78  1  0.77488973  0.99974370  0.03235657  1  0  -0.074917  0  3.624165  0  0  -0.171429  0  3.889582  0  0  -0.164287  0  3.89325  0  0.363056  0  -0.143754  -0.176153  0  3.886561  0
C  C79  1  0.80670332  0.49997054  0.46775341  1  0  -0.074725  0  3.624204  0  0  -0.17059  0  3.889279  0  0  -0.163478  0  3.893016  0  0.33589  0  -0.143113  -0.175195  0  3.886554  0
C  C80  1  0.66436618  0.06197366  0.81699066  1  0  -0.019574  0  3.730734  0  0  -0.049403  0  3.990985  0  0  -0.049968  0  4.014014  0  0.338102  0  -0.007636  -0.049222  0  3.975972  0
C  C81  1  0.54441895  0.43695046  0.68278174  1  0  -0.023128  0  3.73391  0  0  -0.052754  0  3.994787  0  0  -0.053282  0  4.017767  0  0.381979  0  -0.009626  -0.052361  0  3.979291  0
C  C82  1  0.33562691  0.93802476  0.18300773  1  0  -0.019563  0  3.730709  0  0  -0.049463  0  3.990937  0  0  -0.050032  0  4.013969  0  0.338195  0  -0.007702  -0.049281  0  3.975925  0
C  C83  1  0.45558035  0.56304465  0.31721727  1  0  -0.023166  0  3.733858  0  0  -0.052838  0  3.994726  0  0  -0.053365  0  4.017705  0  0.381929  0  -0.009626  -0.052447  0  3.979234  0
C  C84  1  0.64715770  0.18602132  0.85233739  1  0  0.004684  0  3.689708  0  0  -0.031548  0  3.944143  0  0  -0.029637  0  3.965845  0  0.384741  0  0.004849  -0.032786  0  3.929516  0
C  C85  1  0.68660257  0.31296124  0.64769798  1  0  0.003621  0  3.690574  0  0  -0.032254  0  3.94442  0  0  -0.030447  0  3.966157  0  0.331029  0  0.004188  -0.033399  0  3.929969  0
C  C86  1  0.35283203  0.81398041  0.14766140  1  0  0.00456  0  3.689887  0  0  -0.031665  0  3.944335  0  0  -0.029756  0  3.96604  0  0.384685  0  0.004792  -0.032893  0  3.929701  0
C  C87  1  0.31340247  0.68703387  0.35230043  1  0  0.003667  0  3.690513  0  0  -0.032205  0  3.944383  0  0  -0.030396  0  3.966104  0  0.331106  0  0.004207  -0.033351  0  3.929935  0
C  C88  1  0.94663815  0.05570947  0.80441591  1  0  0.226164  0  3.65063  0  0  0.159179  0  3.93017  0  0  0.174668  0  3.940379  0  0.994636  0  0.144233  0.149042  0  3.922926  0
C  C89  1  0.80732945  0.44473300  0.69534120  1  0  0.225774  0  3.64425  0  0  0.159165  0  3.923846  0  0  0.174593  0  3.933952  0  0.993282  0  0.143801  0.149268  0  3.917036  0
C  C90  1  0.05335259  0.94428894  0.19558482  1  0  0.226223  0  3.65037  0  0  0.159217  0  3.929924  0  0  0.174714  0  3.940121  0  0.994716  0  0.14429  0.149079  0  3.922682  0
C  C91  1  0.19266868  0.55526321  0.30465969  1  0  0.225716  0  3.644404  0  0  0.159107  0  3.923998  0  0  0.174535  0  3.934103  0  0.993153  0  0.143772  0.149209  0  3.917188  0
N  N92  1  0.85206733  0.98211885  0.78685681  1  0  -0.418458  0  3.334946  0  0  -0.334607  0  3.638183  0  0  -0.356442  0  3.650822  0  -1.239764  0  -0.366744  -0.319689  0  3.629498  0
N  N93  1  0.62183396  0.51771668  0.71267976  1  0  -0.41554  0  3.333492  0  0  -0.331888  0  3.636824  0  0  -0.353648  0  3.649364  0  -1.215529  0  -0.36569  -0.317149  0  3.628128  0
N  N94  1  0.14792573  0.01787956  0.21314289  1  0  -0.418405  0  3.334552  0  0  -0.334546  0  3.637817  0  0  -0.356386  0  3.650463  0  -1.23969  0  -0.366698  -0.319632  0  3.629139  0
N  N95  1  0.37816255  0.48228063  0.28731834  1  0  -0.415529  0  3.333435  0  0  -0.331873  0  3.636783  0  0  -0.353631  0  3.649316  0  -1.21556  0  -0.365692  -0.317136  0  3.628091  0
N  N96  1  0.82531883  0.17909554  0.84408768  1  0  -0.277632  0  3.472945  0  0  -0.209208  0  3.705931  0  0  -0.224635  0  3.719841  0  -1.280284  0  -0.376344  -0.198652  0  3.696453  0
N  N97  1  0.84924975  0.32079561  0.65593099  1  0  -0.27681  0  3.472765  0  0  -0.207878  0  3.705782  0  0  -0.223231  0  3.719601  0  -1.292585  0  -0.375701  -0.197547  0  3.696172  0
N  N98  1  0.17467309  0.82090288  0.15591188  1  0  -0.27745  0  3.473186  0  0  -0.20902  0  3.706152  0  0  -0.22445  0  3.720063  0  -1.28074  0  -0.376217  -0.198463  0  3.696669  0
N  N99  1  0.15075187  0.67920060  0.34406771  1  0  -0.276751  0  3.472693  0  0  -0.207831  0  3.705709  0  0  -0.223185  0  3.719529  0  -1.29252  0  -0.375637  -0.1975  0  3.696103  0
O  O100  1  0.03963518  0.61841230  0.77421553  1  0  -0.605904  0  2.01285  0  0  -0.53239  0  2.270132  0  0  -0.559963  0  2.255491  0  -1.159926  0  -0.304413  -0.513297  0  2.279723  0
O  O101  1  0.43273578  0.88141442  0.72461388  1  0  -0.607136  0  2.011636  0  0  -0.53323  0  2.26917  0  0  -0.560808  0  2.254597  0  -1.158345  0  -0.30613  -0.514318  0  2.278746  0
O  O102  1  0.96036532  0.38158612  0.22578445  1  0  -0.606041  0  2.012891  0  0  -0.532526  0  2.270175  0  0  -0.560101  0  2.255537  0  -1.159958  0  -0.304452  -0.513436  0  2.27976  0
O  O103  1  0.56726921  0.11857849  0.27538442  1  0  -0.60712  0  2.011668  0  0  -0.533166  0  2.269157  0  0  -0.560764  0  2.254625  0  -1.158385  0  -0.306045  -0.514253  0  2.278733  0
O  O104  1  0.22027205  0.70698642  0.81633133  1  0  -0.664033  0  2.067104  0  0  -0.594142  0  2.349544  0  0  -0.620719  0  2.331167  0  -1.211993  0  -0.325339  -0.575903  0  2.361857  0
O  O105  1  0.74353303  0.79232976  0.68341733  1  0  -0.664216  0  2.067322  0  0  -0.594189  0  2.349482  0  0  -0.620843  0  2.331249  0  -1.195024  0  -0.325662  -0.575693  0  2.362141  0
O  O106  1  0.77972579  0.29301971  0.18366870  1  0  -0.664112  0  2.067198  0  0  -0.594218  0  2.349635  0  0  -0.620794  0  2.331255  0  -1.211944  0  -0.325352  -0.575984  0  2.361944  0
O  O107  1  0.25647083  0.20766424  0.31658153  1  0  -0.664226  0  2.067306  0  0  -0.594187  0  2.349478  0  0  -0.620838  0  2.331248  0  -1.195023  0  -0.325657  -0.575688  0  2.362134  0
O  O108  1  0.30066944  0.53797798  0.10541669  1  0  -0.625294  0  1.959223  0  0  -0.584004  0  2.196704  0  0  -0.607137  0  2.189212  0  -1.197709  0  -0.319847  -0.567654  0  2.201542  0
O  O109  1  0.94247360  0.96199649  0.39509186  1  0  -0.625268  0  1.959558  0  0  -0.583763  0  2.197046  0  0  -0.606835  0  2.189374  0  -1.200458  0  -0.319574  -0.567624  0  2.201832  0
O  O110  1  0.69931946  0.46201823  0.89458701  1  0  -0.625222  0  1.959362  0  0  -0.583976  0  2.196861  0  0  -0.6071  0  2.189351  0  -1.197427  0  -0.319791  -0.567629  0  2.201699  0
O  O111  1  0.05753373  0.03800523  0.60491378  1  0  -0.625215  0  1.959722  0  0  -0.583717  0  2.197192  0  0  -0.606785  0  2.189524  0  -1.200646  0  -0.319538  -0.567578  0  2.201978  0
O  O112  1  0.42725056  0.28974703  0.11902239  1  0  -0.658975  0  2.039462  0  0  -0.583609  0  2.313968  0  0  -0.612575  0  2.297556  0  -1.167415  0  -0.331591  -0.563285  0  2.324854  0
O  O113  1  0.83567101  0.21013419  0.38147688  1  0  -0.66036  0  2.03622  0  0  -0.585397  0  2.311553  0  0  -0.614376  0  2.295037  0  -1.162626  0  -0.332459  -0.565095  0  2.32223  0
O  O114  1  0.57275280  0.71024918  0.88097586  1  0  -0.658965  0  2.039657  0  0  -0.583606  0  2.314108  0  0  -0.612583  0  2.297718  0  -1.167426  0  -0.331582  -0.56327  0  2.324964  0
O  O115  1  0.16433072  0.78986974  0.61852552  1  0  -0.660388  0  2.036194  0  0  -0.585442  0  2.311491  0  0  -0.614424  0  2.294979  0  -1.162704  0  -0.332547  -0.56514  0  2.322168  0
O  O116  1  0.17568280  0.12402891  0.91250843  1  0  -0.264605  0  2.337139  0  0  -0.189569  0  2.575621  0  0  -0.207809  0  2.579233  0  -1.090721  0  -0.192551  -0.176473  0  2.572635  0
O  O117  1  0.21300134  0.37607505  0.58717080  1  0  -0.264271  0  2.338097  0  0  -0.189338  0  2.576264  0  0  -0.20761  0  2.579884  0  -1.099014  0  -0.192652  -0.176578  0  2.573394  0
O  O118  1  0.82432927  0.87596730  0.08748497  1  0  -0.264439  0  2.337154  0  0  -0.189452  0  2.575625  0  0  -0.20768  0  2.57923  0  -1.090623  0  -0.192452  -0.176356  0  2.572637  0
O  O119  1  0.78700033  0.62392888  0.41283424  1  0  -0.264203  0  2.338235  0  0  -0.18934  0  2.576409  0  0  -0.207612  0  2.580026  0  -1.099059  0  -0.192632  -0.176579  0  2.573538  0
