# generated using pymatgen
data_BaCuH16C11SN2O11
_symmetry_space_group_name_H-M   'P 1'
_cell_length_a   8.38466429
_cell_length_b   9.71235326
_cell_length_c   12.46260604
_cell_angle_alpha   111.07854183
_cell_angle_beta   91.38197966
_cell_angle_gamma   112.97270946
_symmetry_Int_Tables_number   1
_chemical_formula_structural   BaCuH16C11SN2O11
_chemical_formula_sum   'Ba2 Cu2 H32 C22 S2 N4 O22'
_cell_volume   855.74739035
_cell_formula_units_Z   2
loop_
 _symmetry_equiv_pos_site_id
 _symmetry_equiv_pos_as_xyz
  1  'x, y, z'
loop_
 _atom_site_type_symbol
 _atom_site_label
 _atom_site_symmetry_multiplicity
 _atom_site_fract_x
 _atom_site_fract_y
 _atom_site_fract_z
 _atom_site_occupancy
 _atom_site_hle17_ddec_charge
 _atom_site_hle17_ddec_spin_density
 _atom_site_hle17_ddec_sum_bond_order
 _atom_site_hle17_magmom
 _atom_site_hse06_10hf_ddec_charge
 _atom_site_hse06_10hf_ddec_spin_density
 _atom_site_hse06_10hf_ddec_sum_bond_order
 _atom_site_hse06_10hf_magmom
 _atom_site_hse06_ddec_charge
 _atom_site_hse06_ddec_spin_density
 _atom_site_hse06_ddec_sum_bond_order
 _atom_site_hse06_magmom
 _atom_site_pbe_cm5_charge
 _atom_site_pbe_ddec_charge
 _atom_site_pbe_ddec_spin_density
 _atom_site_pbe_ddec_sum_bond_order
 _atom_site_pbe_magmom
Ba  Ba0  1  0.37406995  0.11370753  0.39870925  1  1.658893  9.5e-05  1.092022  0.0  1.518494  -9.5e-05  1.48026  0.0  1.556966  -0.000105  1.4357  0.0  0.925102  1.490589  -5.6e-05  1.51165  0.0
Ba  Ba1  1  0.62593337  0.88629036  0.60128905  1  1.658868  -9.1e-05  1.09206  0.0  1.518501  0.000103  1.480265  0.0  1.556981  9.7e-05  1.435694  0.0  0.925119  1.49059  5.6e-05  1.511672  0.0
Cu  Cu2  1  0.95405687  0.57455489  0.17036264  1  0.833266  -0.735739  1.996663  -0.509  0.798286  -0.800447  2.412212  -0.605  0.875602  -0.870518  2.347092  -0.68  0.773423  0.752008  -0.750298  2.456591  -0.556
Cu  Cu3  1  0.04593865  0.42544429  0.82964227  1  0.833015  0.735716  1.996821  0.509  0.798129  0.800424  2.412139  0.605  0.875521  0.870522  2.347009  0.68  0.773309  0.751885  0.75029  2.45656  0.556
H  H4  1  0.80629140  0.89324712  0.04840295  1  0.111743  -6e-05  0.961974  0.0  0.119727  -0.000299  1.026537  0.0  0.124455  -0.000189  1.023933  0.0  0.104121  0.116478  -0.000252  1.028549  0.0
H  H5  1  0.19371061  0.10675568  0.95159989  1  0.111808  5.5e-05  0.961951  0.0  0.119744  0.000299  1.026549  0.0  0.124472  0.000189  1.023944  0.0  0.104148  0.1165  0.000252  1.028558  0.0
H  H6  1  0.60135320  0.80951560  0.86713732  1  0.099894  -0.000366  0.962314  -0.001  0.11048  -0.00013  1.023544  0.0  0.113674  -8.3e-05  1.020477  0.0  0.112767  0.1081  -0.00024  1.025717  0.0
H  H7  1  0.39865176  0.19048842  0.13286591  1  0.099884  0.000364  0.96231  0.001  0.110471  0.00013  1.023541  0.0  0.113663  8.3e-05  1.02048  0.0  0.112774  0.108088  0.00024  1.025722  0.0
H  H8  1  0.49155936  0.30655250  0.78219933  1  0.107137  -0.00035  0.949988  0.0  0.118668  -0.000183  1.011971  0.0  0.121817  -0.000131  1.009173  0.0  0.115909  0.11638  -0.000224  1.013838  0.0
H  H9  1  0.50844861  0.69345027  0.21780121  1  0.107165  0.000345  0.95  0.0  0.118682  0.000184  1.011995  0.0  0.121829  0.000131  1.009195  0.0  0.115913  0.116391  0.000224  1.013861  0.0
H  H10  1  0.60560147  0.22394308  0.89825839  1  0.092267  -0.00809  0.931453  -0.011  0.10393  -0.005122  0.992936  -0.007  0.105302  -0.003849  0.989348  -0.005  0.124431  0.102308  -0.006221  0.996232  -0.008
H  H11  1  0.39440351  0.77606091  0.10174002  1  0.09223  0.008085  0.931461  0.011  0.103912  0.005122  0.992925  0.007  0.105289  0.003849  0.989324  0.005  0.124408  0.102287  0.006221  0.996219  0.008
H  H12  1  0.83474880  0.15071944  0.00286659  1  0.11129  -0.000698  0.927024  -0.001  0.12771  -0.000487  0.984604  0.0  0.12935  -0.000393  0.983676  0.0  0.118455  0.126544  -0.000538  0.985158  0.0
H  H13  1  0.16523253  0.84927491  0.99713751  1  0.111248  0.000697  0.927048  0.001  0.127642  0.000487  0.984661  0.0  0.129277  0.000393  0.983744  0.0  0.118419  0.126478  0.000538  0.985202  0.0
H  H14  1  0.66120071  0.15242416  0.08170333  1  0.096719  -0.001352  0.90811  -0.001  0.117416  -0.001004  0.960036  -0.001  0.118008  -0.000786  0.959849  -0.001  0.118458  0.116497  -0.001171  0.961103  -0.001
H  H15  1  0.33878816  0.84757873  0.91830569  1  0.096686  0.001352  0.907992  0.001  0.117421  0.001004  0.959867  0.001  0.118016  0.000786  0.959675  0.001  0.118427  0.116492  0.001171  0.960934  0.001
H  H16  1  0.24080071  0.50470126  0.35521717  1  0.113898  -0.00188  0.95789  -0.003  0.126049  -0.00114  1.019047  -0.001  0.127602  -0.000894  1.017964  -0.001  0.120024  0.124813  -0.001275  1.020042  -0.002
H  H17  1  0.75920024  0.49529663  0.64477867  1  0.113878  0.001882  0.957932  0.003  0.126029  0.00114  1.019086  0.001  0.127584  0.000894  1.018001  0.001  0.120009  0.124793  0.001275  1.020081  0.002
H  H18  1  0.06587971  0.53335998  0.42221063  1  0.092758  -0.000684  0.907961  -0.001  0.109274  -0.000524  0.96625  -0.001  0.110869  -0.000446  0.963863  -0.001  0.114408  0.107892  -0.000614  0.968334  -0.001
H  H19  1  0.93412531  0.46664159  0.57779112  1  0.09278  0.000685  0.908083  0.001  0.109309  0.000524  0.96634  0.001  0.110903  0.000446  0.963956  0.001  0.114436  0.107929  0.000614  0.968418  0.001
H  H20  1  0.02517869  0.22396395  0.36916702  1  0.424777  0.000142  0.875448  0.0  0.388468  0.000104  0.947606  0.0  0.400369  8.3e-05  0.930173  0.0  0.297353  0.380076  0.000104  0.959892  0.0
H  H21  1  0.97482292  0.77603029  0.63083104  1  0.424778  -0.000145  0.875423  0.0  0.388483  -0.000104  0.94756  0.0  0.400382  -8.3e-05  0.930129  0.0  0.297377  0.380091  -0.000104  0.959845  0.0
H  H22  1  0.10413364  0.28290446  0.50739967  1  0.422004  1.8e-05  0.866238  0.0  0.391992  3e-06  0.933273  0.0  0.401796  9e-06  0.91878  0.0  0.305432  0.385026  -1e-06  0.943569  0.0
H  H23  1  0.89586973  0.71709099  0.49259875  1  0.421995  -2e-05  0.86622  0.0  0.39198  -3e-06  0.933285  0.0  0.401781  -9e-06  0.918798  0.0  0.305413  0.38501  1e-06  0.943587  0.0
H  H24  1  0.19887114  0.17620524  0.63305112  1  0.424527  1.4e-05  0.874362  0.0  0.39526  2e-06  0.935063  0.0  0.405009  7e-06  0.92078  0.0  0.30208  0.388319  -2e-06  0.945248  0.0
H  H25  1  0.80112509  0.82379024  0.36694636  1  0.424477  -1.5e-05  0.874429  0.0  0.395204  -3e-06  0.935139  0.0  0.404951  -7e-06  0.920858  0.0  0.302045  0.38826  2e-06  0.945328  0.0
H  H26  1  0.10419787  0.97986458  0.58254001  1  0.427255  4e-06  0.873395  0.0  0.399662  5e-06  0.930199  0.0  0.410512  4e-06  0.914391  0.0  0.300682  0.391926  3e-06  0.941492  0.0
H  H27  1  0.89579659  0.02012969  0.41745872  1  0.427189  -4e-06  0.873469  0.0  0.399567  -6e-06  0.930299  0.0  0.410415  -4e-06  0.914494  0.0  0.300654  0.391839  -3e-06  0.941579  0.0
H  H28  1  0.65137629  0.95915077  0.31844425  1  0.416695  -3e-06  0.889722  0.0  0.388927  -5e-06  0.949585  0.0  0.39977  -5e-06  0.933619  0.0  0.291662  0.381142  1e-06  0.961061  0.0
H  H29  1  0.34861878  0.04084466  0.68154598  1  0.416613  4e-06  0.889813  0.0  0.38884  5e-06  0.949696  0.0  0.399683  5e-06  0.933731  0.0  0.291611  0.381054  -0.0  0.961175  0.0
H  H30  1  0.69950767  0.06584594  0.24732705  1  0.414396  -0.000264  0.887415  0.0  0.38253  -0.000278  0.953687  0.0  0.392821  -0.000173  0.938717  0.0  0.288686  0.375217  -0.000351  0.964354  0.0
H  H31  1  0.30049857  0.93415559  0.75266830  1  0.414447  0.000262  0.887352  0.0  0.382537  0.000277  0.953687  0.0  0.392828  0.000172  0.938716  0.0  0.288705  0.375225  0.000351  0.964353  0.0
H  H32  1  0.04558474  0.90288786  0.16578315  1  0.418171  -0.000287  0.891848  0.0  0.387655  -0.000319  0.955603  0.0  0.399098  -0.000174  0.938922  0.0  0.288766  0.379682  -0.000475  0.967265  0.0
H  H33  1  0.95441494  0.09711251  0.83421977  1  0.41819  0.000289  0.89182  0.0  0.387662  0.000318  0.955592  0.0  0.399106  0.000175  0.938908  0.0  0.288766  0.379693  0.000475  0.967247  0.0
H  H34  1  0.07409944  0.08278428  0.19607880  1  0.415159  0.000132  0.88474  0.0  0.386597  4.4e-05  0.945636  0.0  0.39599  4.4e-05  0.932062  0.0  0.292686  0.380012  4.8e-05  0.955176  0.0
H  H35  1  0.92590559  0.91721727  0.80391974  1  0.415122  -0.000131  0.88479  0.0  0.386554  -4.5e-05  0.945693  0.0  0.395947  -4.4e-05  0.932119  0.0  0.292654  0.379971  -4.8e-05  0.955232  0.0
C  C36  1  0.77537327  0.65010781  0.01677703  1  0.357595  0.004631  3.812494  0.007  0.341015  0.000413  4.070606  0.002  0.362302  0.001065  4.085722  0.003  0.099016  0.326254  -0.000359  4.060877  0.002
C  C37  1  0.22463344  0.34989743  0.98322657  1  0.35777  -0.004633  3.812475  -0.007  0.341154  -0.000415  4.070579  -0.002  0.362441  -0.001066  4.085692  -0.003  0.099007  0.326398  0.000358  4.060853  -0.002
C  C38  1  0.73879803  0.76505973  0.98856393  1  -0.199161  -0.009413  3.706925  -0.01  -0.213661  -0.004854  3.958943  -0.006  -0.224539  -0.003875  3.976721  -0.005  -0.108193  -0.206762  -0.005621  3.947013  -0.007
C  C39  1  0.26120335  0.23494431  0.01144003  1  -0.199318  0.009427  3.706918  0.01  -0.213771  0.004854  3.958945  0.006  -0.224646  0.003877  3.976716  0.005  -0.108219  -0.206881  0.005621  3.947024  0.007
C  C40  1  0.62261267  0.71799825  0.88829789  1  -0.018959  0.00462  3.782739  0.004  -0.0489  0.001125  4.035278  0.001  -0.041328  0.001399  4.052201  0.001  -0.078549  -0.052574  0.000956  4.02279  0.001
C  C41  1  0.37739173  0.28200453  0.11170258  1  -0.018847  -0.004618  3.782669  -0.004  -0.04875  -0.001124  4.035234  -0.001  -0.04118  -0.001402  4.052153  -0.001  -0.078512  -0.052425  -0.000956  4.022736  -0.001
C  C42  1  0.53479825  0.55255360  0.81174950  1  -0.174046  -0.001519  3.776166  -0.002  -0.150327  2e-05  4.036394  0.0  -0.163219  -0.000186  4.059642  0.0  -0.038006  -0.142588  0.000238  4.020629  0.0
C  C43  1  0.46520308  0.44745287  0.18825273  1  -0.174027  0.001528  3.776244  0.002  -0.150463  -1.8e-05  4.036703  0.0  -0.163354  0.000183  4.059948  0.0  -0.038039  -0.142711  -0.000238  4.020903  0.0
C  C44  1  0.56144451  0.43577682  0.83928775  1  -0.040572  0.005978  3.698829  0.006  -0.077342  0.001702  3.952277  0.002  -0.06973  0.001914  3.971149  0.002  -0.070243  -0.081123  0.001465  3.938549  0.002
C  C45  1  0.43856039  0.56422964  0.16071534  1  -0.040629  -0.005978  3.698936  -0.006  -0.077374  -0.001703  3.952464  -0.002  -0.069764  -0.001911  3.971347  -0.002  -0.07028  -0.081157  -0.001464  3.93872  -0.002
C  C46  1  0.67955130  0.47980536  0.94107888  1  -0.11953  -0.007123  3.784168  -0.009  -0.10274  -0.003454  4.037161  -0.005  -0.119523  -0.002923  4.064572  -0.004  -0.030733  -0.091867  -0.004206  4.019155  -0.006
C  C47  1  0.32045308  0.52019743  0.05892400  1  -0.119587  0.00712  3.784187  0.009  -0.102767  0.003455  4.037133  0.005  -0.119551  0.002922  4.064538  0.004  -0.030705  -0.091898  0.004206  4.019123  0.006
C  C48  1  0.69256466  0.34756616  0.96271301  1  0.157703  0.018986  3.683281  0.02  0.107967  0.004758  3.963513  0.007  0.129166  0.00643  3.972414  0.009  0.080268  0.09347  0.003427  3.959148  0.005
C  C49  1  0.30743502  0.65243421  0.03728831  1  0.1578  -0.018973  3.683392  -0.02  0.108067  -0.004758  3.963608  -0.007  0.129273  -0.006433  3.972508  -0.009  0.080302  0.093578  -0.003427  3.959239  -0.005
C  C50  1  0.79472418  0.22921288  0.07468141  1  -0.108457  -0.003395  3.653288  -0.001  -0.162984  -0.003731  3.912332  -0.002  -0.161615  -0.002646  3.922292  -0.001  -0.05936  -0.163311  -0.004471  3.905684  -0.002
C  C51  1  0.20526125  0.77078511  0.92532138  1  -0.10846  0.003394  3.65317  0.001  -0.162985  0.00373  3.912281  0.002  -0.161609  0.002647  3.922249  0.001  -0.059333  -0.163255  0.004471  3.90554  0.002
C  C52  1  0.91967580  0.29099859  0.19017448  1  0.546899  0.007237  3.838356  0.008  0.502465  -0.000105  4.13755  0.001  0.532178  0.001147  4.141287  0.002  0.224439  0.482503  -0.00109  4.1343  0.0
C  C53  1  0.08031917  0.70899936  0.80982688  1  0.546983  -0.007241  3.838388  -0.008  0.502534  0.0001  4.137597  -0.001  0.532241  -0.001149  4.14135  -0.002  0.224471  0.482566  0.00109  4.134355  0.0
C  C54  1  0.13404740  0.54180748  0.34835378  1  -0.114842  -0.001599  3.711282  0.002  -0.165631  -0.002631  3.970017  0.0  -0.162923  -0.001729  3.978726  0.001  -0.064651  -0.167147  -0.003197  3.964342  0.0
C  C55  1  0.86595519  0.45819653  0.65164538  1  -0.114833  0.001598  3.711297  -0.002  -0.165655  0.002631  3.97009  0.0  -0.162931  0.001727  3.978773  -0.001  -0.064669  -0.167167  0.003196  3.964412  0.0
C  C56  1  0.21808988  0.72151631  0.36663172  1  0.688729  -0.000114  3.821719  0.0  0.646198  -0.00229  4.118141  -0.002  0.680342  -0.001611  4.111807  -0.002  0.223494  0.622928  -0.002785  4.121371  -0.003
C  C57  1  0.78190459  0.27847794  0.63336459  1  0.688676  0.000118  3.821699  0.0  0.646189  0.002288  4.118067  0.002  0.680332  0.001616  4.111741  0.002  0.22352  0.622923  0.002787  4.121302  0.003
S  S58  1  0.40352199  0.49828823  0.67655572  1  1.325724  -0.000111  5.616272  0.0  1.228802  -0.000117  6.131659  0.0  1.277461  -0.000106  6.107703  0.0  0.530922  1.195453  -7.7e-05  6.147165  0.0
S  S59  1  0.59648302  0.50171333  0.32344523  1  1.325607  0.000107  5.61623  0.0  1.228706  0.000118  6.131657  0.0  1.277358  0.00011  6.107691  0.0  0.530906  1.195353  7.8e-05  6.147152  0.0
N  N60  1  0.79442052  0.36650343  0.05174660  1  -0.316929  -0.111686  3.335711  -0.136  -0.275002  -0.073782  3.670311  -0.096  -0.3069  -0.063548  3.68648  -0.086  -0.38163  -0.256427  -0.079457  3.662007  -0.1
N  N61  1  0.20557375  0.63349820  0.94825896  1  -0.316894  0.111692  3.335723  0.136  -0.27505  0.073786  3.670337  0.096  -0.306969  0.06355  3.686532  0.086  -0.381633  -0.256502  0.079461  3.662058  0.1
N  N62  1  0.01367877  0.44898282  0.23743912  1  -0.469544  -0.11296  3.362449  -0.137  -0.43573  -0.073528  3.695558  -0.094  -0.476686  -0.061916  3.716359  -0.083  -0.432662  -0.410606  -0.079626  3.682924  -0.098
N  N63  1  0.98631434  0.55101878  0.76256080  1  -0.469488  0.112957  3.362484  0.137  -0.435712  0.073534  3.695592  0.094  -0.47669  0.061916  3.716431  0.083  -0.432626  -0.410602  0.079626  3.682996  0.098
O  O64  1  0.89534456  0.70631324  0.11024591  1  -0.580425  -0.06444  2.18754  -0.084  -0.529162  -0.04521  2.464433  -0.063  -0.566851  -0.036752  2.455819  -0.054  -0.337543  -0.504224  -0.05113  2.47074  -0.069
O  O65  1  0.10465453  0.29368594  0.88975987  1  -0.580474  0.064441  2.187559  0.084  -0.529143  0.045216  2.464309  0.063  -0.566866  0.036757  2.455747  0.054  -0.337512  -0.50422  0.051135  2.470643  0.069
O  O66  1  0.92211905  0.18759418  0.23127434  1  -0.656282  -0.010879  2.003013  -0.013  -0.582758  -0.005868  2.216199  -0.007  -0.609483  -0.003312  2.206525  -0.004  -0.313895  -0.56361  -0.008334  2.222173  -0.01
O  O67  1  0.07788005  0.81240497  0.76872743  1  -0.65631  0.010892  2.002988  0.013  -0.582745  0.005872  2.216138  0.007  -0.609471  0.003312  2.206476  0.004  -0.313883  -0.563597  0.008334  2.222115  0.01
O  O68  1  0.15414318  0.76360130  0.29434240  1  -0.649955  -0.056109  2.034676  -0.073  -0.597425  -0.043213  2.302491  -0.06  -0.634118  -0.036004  2.291269  -0.053  -0.352958  -0.572734  -0.047681  2.310026  -0.064
O  O69  1  0.84585355  0.23639785  0.70565852  1  -0.649887  0.056095  2.034715  0.073  -0.597389  0.04321  2.302483  0.06  -0.634102  0.035998  2.291276  0.053  -0.352913  -0.572702  0.047673  2.310038  0.064
O  O70  1  0.34434589  0.82463592  0.44987324  1  -0.687234  -0.008923  1.993322  -0.01  -0.629783  -0.005832  2.237389  -0.007  -0.657905  -0.003303  2.229701  -0.004  -0.370032  -0.609473  -0.008472  2.241608  -0.01
O  O71  1  0.65565870  0.17535949  0.55011878  1  -0.687241  0.008926  1.993357  0.01  -0.629805  0.005834  2.237408  0.007  -0.657926  0.003304  2.22972  0.004  -0.370091  -0.609496  0.008472  2.241637  0.01
O  O72  1  0.48303832  0.41956922  0.58419652  1  -0.710308  0.000434  2.030191  0.0  -0.654545  0.000369  2.292535  0.0  -0.676712  0.000221  2.279274  0.0  -0.362251  -0.638828  0.000528  2.301077  0.0
O  O73  1  0.51696265  0.58042626  0.41580507  1  -0.7102  -0.000445  2.030141  0.0  -0.654485  -0.000371  2.292555  0.0  -0.676649  -0.000219  2.279297  0.0  -0.362255  -0.638767  -0.000528  2.301096  0.0
O  O74  1  0.22123669  0.38005193  0.67065778  1  -0.715979  -0.000762  2.055448  0.0  -0.660833  -0.000548  2.317954  0.0  -0.68423  -0.00073  2.300479  0.0  -0.332048  -0.644558  -0.000358  2.329573  0.0
O  O75  1  0.77876781  0.61994597  0.32934294  1  -0.716118  0.000768  2.05558  0.0  -0.660891  0.000548  2.31801  0.0  -0.684283  0.000727  2.30057  0.0  -0.332104  -0.644618  0.000358  2.329628  0.0
O  O76  1  0.40720972  0.65101739  0.67738373  1  -0.696948  -9.7e-05  1.945946  0.0  -0.640732  -0.000112  2.198907  0.0  -0.662431  -8.6e-05  2.184769  0.0  -0.369755  -0.62549  -0.000163  2.208327  0.0
O  O77  1  0.59279531  0.34898416  0.32261481  1  -0.69689  0.000103  1.945931  0.0  -0.640645  0.000111  2.198863  0.0  -0.662343  8.5e-05  2.184734  0.0  -0.369699  -0.625408  0.000163  2.208281  0.0
O  O78  1  0.07132737  0.19519039  0.42867962  1  -0.868617  4.7e-05  1.887398  0.0  -0.807444  4.4e-05  2.066341  0.0  -0.827845  4.3e-05  2.0338  0.0  -0.588959  -0.793115  1e-06  2.089323  0.0
O  O79  1  0.92867480  0.80480508  0.57131959  1  -0.868583  -4e-05  1.887397  0.0  -0.807436  -4.4e-05  2.066361  0.0  -0.827836  -4.2e-05  2.033831  0.0  -0.588948  -0.793104  -1e-06  2.089357  0.0
O  O80  1  0.21684724  0.07635552  0.59377076  1  -0.871053  3.1e-05  1.855945  0.0  -0.809637  3.2e-05  2.025106  0.0  -0.830464  2.1e-05  1.994612  0.0  -0.599447  -0.794985  9e-06  2.04655  0.0
O  O81  1  0.78314604  0.92363874  0.40622553  1  -0.870917  -3.1e-05  1.856031  0.0  -0.809467  -3.2e-05  2.025249  0.0  -0.830296  -2e-05  1.994771  0.0  -0.599395  -0.794813  -9e-06  2.046679  0.0
O  O82  1  0.59533709  0.99467947  0.26842864  1  -0.876703  0.000497  1.776359  0.0  -0.82492  0.000443  1.94284  0.0  -0.844732  0.000296  1.912095  0.0  -0.629846  -0.810613  0.000739  1.964741  0.001
O  O83  1  0.40466214  0.00531715  0.73155879  1  -0.876662  -0.000496  1.776359  0.0  -0.824846  -0.000442  1.94288  0.0  -0.844658  -0.000295  1.91214  0.0  -0.629825  -0.810529  -0.000739  1.964764  -0.001
O  O84  1  0.13959820  0.01658154  0.19194492  1  -0.881908  -0.00115  1.796038  -0.001  -0.827986  -0.000703  1.965806  -0.001  -0.849194  -0.00036  1.936594  0.0  -0.6318  -0.813569  -0.000803  1.986252  -0.001
O  O85  1  0.86040449  0.98341758  0.80805451  1  -0.881889  0.001146  1.796062  0.001  -0.827974  0.000705  1.965852  0.001  -0.849184  0.000359  1.936641  0.0  -0.631773  -0.813554  0.000803  1.986289  0.001
