# generated using pymatgen
data_ZnC8S2(ClO2)2
_symmetry_space_group_name_H-M   'P 1'
_cell_length_a   7.86636827
_cell_length_b   17.73634114
_cell_length_c   17.72516582
_cell_angle_alpha   90.04373801
_cell_angle_beta   90.90258791
_cell_angle_gamma   89.12828149
_symmetry_Int_Tables_number   1
_chemical_formula_structural   ZnC8S2(ClO2)2
_chemical_formula_sum   'Zn4 C32 S8 Cl8 O16'
_cell_volume   2472.43224333
_cell_formula_units_Z   4
loop_
 _symmetry_equiv_pos_site_id
 _symmetry_equiv_pos_as_xyz
  1  'x, y, z'
loop_
 _atom_site_type_symbol
 _atom_site_label
 _atom_site_symmetry_multiplicity
 _atom_site_fract_x
 _atom_site_fract_y
 _atom_site_fract_z
 _atom_site_occupancy
 _atom_site_pbe_bader_charge
 _atom_site_pbe_bader_spin_density
 _atom_site_pbe_cm5_charge
 _atom_site_pbe_ddec_charge
 _atom_site_pbe_ddec_spin_density
 _atom_site_pbe_ddec_sum_bond_order
 _atom_site_pbe_magmom
Zn  Zn0  1  0.33366766  0.00159220  0.49845652  1  1.322487  0  0.730364  0.978072  0  2.107393  0
Zn  Zn1  1  0.67551974  0.99648690  0.50344665  1  1.325874  0  0.734629  0.982779  0  2.120522  0
Zn  Zn2  1  0.66660077  0.49783208  0.00227489  1  1.323449  0  0.730368  0.978627  0  2.111379  0
Zn  Zn3  1  0.32403530  0.50262312  0.99722790  1  1.32396  0  0.734766  0.983  0  2.121949  0
C  C4  1  0.44332540  0.89879329  0.60110941  1  1.559343  0  0.211115  0.623389  0  4.170463  0
C  C5  1  0.55768290  0.89741757  0.40014848  1  1.55619  0  0.211037  0.623497  0  4.169774  0
C  C6  1  0.45749653  0.10087869  0.39938128  1  1.580488  0  0.208861  0.622782  0  4.181606  0
C  C7  1  0.55815427  0.09964210  0.60276949  1  1.553982  0  0.210539  0.623736  0  4.16862  0
C  C8  1  0.54581202  0.39877923  0.10142851  1  1.558907  0  0.208664  0.624004  0  4.179147  0
C  C9  1  0.44058374  0.60153370  0.10050619  1  1.584417  0  0.211071  0.624261  0  4.170454  0
C  C10  1  0.55534700  0.60051068  0.89950716  1  1.565897  0  0.210524  0.623504  0  4.171314  0
C  C11  1  0.44111054  0.39945646  0.89838015  1  1.58565  0  0.21127  0.624271  0  4.170513  0
C  C12  1  0.66362645  0.80060773  0.29981326  1  0.175703  0  0.010828  0.106276  0  4.082333  0
C  C13  1  0.33383796  0.69854990  0.20046208  1  0.134892  0  0.011101  0.106172  0  4.082595  0
C  C14  1  0.54199614  0.83948571  0.34121583  1  -0.110999  0  -0.027294  -0.178587  0  3.916322  0
C  C15  1  0.45578315  0.65960616  0.15926620  1  -0.100854  0  -0.02757  -0.178515  0  3.919883  0
C  C16  1  0.40943380  0.75011106  0.25175967  1  -0.097296  0  -0.026469  -0.071935  0  4.080531  0
C  C17  1  0.58778534  0.74921975  0.24845769  1  -0.165696  0  -0.027501  -0.073143  0  4.083846  0
C  C18  1  0.66439985  0.20022855  0.69934047  1  0.174415  0  0.010375  0.105615  0  4.081521  0
C  C19  1  0.33463402  0.29919603  0.80162786  1  0.13953  0  0.010232  0.10513  0  4.083161  0
C  C20  1  0.54269754  0.15862145  0.66065663  1  -0.109572  0  -0.026914  -0.178511  0  3.916793  0
C  C21  1  0.45651381  0.34062445  0.84040279  1  -0.113122  0  -0.027022  -0.177777  0  3.918643  0
C  C22  1  0.41028627  0.24798600  0.75005207  1  -0.091403  0  -0.026897  -0.072714  0  4.083683  0
C  C23  1  0.58859194  0.25154338  0.75076139  1  -0.16925  0  -0.02698  -0.072362  0  4.082424  0
C  C24  1  0.62425898  0.18839736  0.31234199  1  0.150922  0  0.01136  0.106009  0  4.061214  0
C  C25  1  0.37939549  0.31169983  0.18884616  1  0.133772  0  0.011723  0.106034  0  4.061119  0
C  C26  1  0.47462708  0.15919207  0.34128813  1  -0.104684  0  -0.026549  -0.178314  0  3.911519  0
C  C27  1  0.52900860  0.34081781  0.15982765  1  -0.10624  0  -0.026797  -0.178577  0  3.911649  0
C  C28  1  0.41451241  0.25621069  0.24445951  1  -0.137606  0  -0.026998  -0.070802  0  4.095195  0
C  C29  1  0.58917549  0.24402675  0.25682595  1  -0.129589  0  -0.026637  -0.071628  0  4.095239  0
C  C30  1  0.33521888  0.80104403  0.69887452  1  0.069349  0  0.010264  0.106314  0  4.083033  0
C  C31  1  0.66483697  0.69812555  0.80191371  1  0.144325  0  0.010975  0.105952  0  4.08262  0
C  C32  1  0.45714868  0.84033256  0.65967154  1  -0.040517  0  -0.026931  -0.178515  0  3.914035  0
C  C33  1  0.54235908  0.65898284  0.84096195  1  -0.077969  0  -0.027267  -0.178786  0  3.91973  0
C  C34  1  0.58952993  0.75004508  0.74998609  1  -0.092747  0  -0.02722  -0.07278  0  4.083376  0
C  C35  1  0.41103605  0.74924732  0.75070605  1  -0.146938  0  -0.027019  -0.07272  0  4.087397  0
S  S36  1  0.33478974  0.81360996  0.31718892  1  0.300794  0  0.090314  0.16748  0  2.825299  0
S  S37  1  0.66281267  0.68566169  0.18323024  1  0.314294  0  0.09063  0.167925  0  2.82998  0
S  S38  1  0.33555828  0.18239014  0.68676398  1  0.308108  0  0.090472  0.16792  0  2.827914  0
S  S39  1  0.66355223  0.31698465  0.81417177  1  0.310513  0  0.09082  0.16798  0  2.827752  0
S  S40  1  0.29257984  0.19995983  0.30038582  1  0.307483  0  0.09347  0.155706  0  2.808994  0
S  S41  1  0.71111177  0.30016547  0.20078442  1  0.313448  0  0.093918  0.156524  0  2.808084  0
S  S42  1  0.66453925  0.81394795  0.68619487  1  0.311074  0  0.089778  0.166937  0  2.83353  0
S  S43  1  0.33538044  0.68545837  0.81435577  1  0.294168  0  0.090055  0.167805  0  2.841871  0
Cl  Cl44  1  0.87778550  0.81211111  0.30783206  1  -0.154561  0  0.008502  -0.039478  0  1.619266  0
Cl  Cl45  1  0.11980222  0.68672556  0.19212838  1  -0.163733  0  0.008437  -0.039408  0  1.619445  0
Cl  Cl46  1  0.87850715  0.19240976  0.68749586  1  -0.157075  0  0.008478  -0.039373  0  1.61891  0
Cl  Cl47  1  0.12066215  0.30708938  0.81363430  1  -0.160135  0  0.008849  -0.038774  0  1.620064  0
Cl  Cl48  1  0.82886312  0.16436448  0.33648897  1  -0.145769  0  0.014091  -0.02084  0  1.565458  0
Cl  Cl49  1  0.17478806  0.33568090  0.16461448  1  -0.141248  0  0.014275  -0.020561  0  1.565174  0
Cl  Cl50  1  0.12061571  0.81199173  0.68782894  1  -0.15775  0  0.008373  -0.040061  0  1.601799  0
Cl  Cl51  1  0.87918891  0.68670461  0.81338625  1  -0.158663  0  0.008524  -0.039301  0  1.60195  0
O  O52  1  0.29774000  0.92283301  0.57701121  1  -1.125588  0  -0.312926  -0.520729  0  2.230513  0
O  O53  1  0.58762485  0.92144119  0.57844507  1  -1.180833  0  -0.320999  -0.576003  0  2.374053  0
O  O54  1  0.70468638  0.91819134  0.42390939  1  -1.124802  0  -0.312829  -0.521936  0  2.238615  0
O  O55  1  0.41491231  0.92284963  0.42366025  1  -1.17467  0  -0.320324  -0.57458  0  2.364032  0
O  O56  1  0.59593723  0.07373211  0.42633613  1  -1.169508  0  -0.315551  -0.570397  0  2.412876  0
O  O57  1  0.30720992  0.08120831  0.41908152  1  -1.132443  0  -0.322606  -0.534411  0  2.199126  0
O  O58  1  0.41525569  0.07598385  0.57756705  1  -1.172184  0  -0.319636  -0.574326  0  2.36363  0
O  O59  1  0.70505390  0.07595901  0.58183975  1  -1.12563  0  -0.31305  -0.522502  0  2.238098  0
O  O60  1  0.69602735  0.41847638  0.08157635  1  -1.129877  0  -0.322947  -0.53495  0  2.195992  0
O  O61  1  0.40735379  0.42568632  0.07430857  1  -1.17306  0  -0.315604  -0.571986  0  2.414246  0
O  O62  1  0.29373388  0.58039525  0.07684171  1  -1.127417  0  -0.313379  -0.522663  0  2.24183  0
O  O63  1  0.58351392  0.57632226  0.07701036  1  -1.169371  0  -0.32004  -0.575036  0  2.366048  0
O  O64  1  0.41087169  0.57799016  0.92204538  1  -1.166138  0  -0.320337  -0.575257  0  2.36901  0
O  O65  1  0.70076010  0.57637999  0.92371706  1  -1.122439  0  -0.313011  -0.521555  0  2.237268  0
O  O66  1  0.58390484  0.42326669  0.92349844  1  -1.171157  0  -0.320461  -0.575306  0  2.365482  0
O  O67  1  0.29418882  0.42295172  0.91950989  1  -1.124894  0  -0.313287  -0.522605  0  2.242635  0
