# generated using pymatgen
data_Zn4H12C27O14
_symmetry_space_group_name_H-M   'P 1'
_cell_length_a   16.10722138
_cell_length_b   16.13883315
_cell_length_c   16.14196968
_cell_angle_alpha   83.88359593
_cell_angle_beta   89.83892507
_cell_angle_gamma   83.96437830
_symmetry_Int_Tables_number   1
_chemical_formula_structural   Zn4H12C27O14
_chemical_formula_sum   'Zn4 H12 C27 O14'
_cell_volume   4148.96944244
_cell_formula_units_Z   1
loop_
 _symmetry_equiv_pos_site_id
 _symmetry_equiv_pos_as_xyz
  1  'x, y, z'
loop_
 _atom_site_type_symbol
 _atom_site_label
 _atom_site_symmetry_multiplicity
 _atom_site_fract_x
 _atom_site_fract_y
 _atom_site_fract_z
 _atom_site_occupancy
 _atom_site_pbe_bader_charge
 _atom_site_pbe_bader_spin_density
 _atom_site_pbe_cm5_charge
 _atom_site_pbe_ddec_charge
 _atom_site_pbe_ddec_spin_density
 _atom_site_pbe_ddec_sum_bond_order
 _atom_site_pbe_magmom
Zn  Zn0  1  0.42841869  0.43047278  0.57076508  1  1.317738  0  0.674874  0.966605  0  2.364196  0
Zn  Zn1  1  0.57759312  0.42850687  0.43691616  1  1.31311  0  0.676036  0.968988  0  2.354752  0
Zn  Zn2  1  0.56296193  0.56416286  0.57102503  1  1.315914  0  0.67299  0.965096  0  2.364043  0
Zn  Zn3  1  0.42818609  0.57875640  0.42236946  1  1.314355  0  0.675521  0.968425  0  2.358887  0
H  H4  1  0.98788987  0.56457325  0.42847148  1  0.081836  0  0.118767  0.143347  0  0.974398  0
H  H5  1  0.83212353  0.33447198  0.73855789  1  0.022092  0  0.087043  0.110532  0  1.002889  0
H  H6  1  0.85856597  0.38466032  0.82589181  1  0.032942  0  0.093084  0.123232  0  0.993814  0
H  H7  1  0.92222065  0.29491128  0.79941110  1  0.036926  0  0.087612  0.110377  0  1.002216  0
H  H8  1  0.43516912  0.43483036  0.00784045  1  0.118868  0  0.123415  0.127484  0  0.953445  0
H  H9  1  0.56416689  0.56456250  0.99192720  1  0.092675  0  0.129272  0.134188  0  0.945426  0
H  H10  1  0.43478442  0.01543056  0.42776474  1  0.103674  0  0.123981  0.128031  0  0.953704  0
H  H11  1  0.56437707  0.98474648  0.57173388  1  0.119235  0  0.129526  0.134594  0  0.945428  0
H  H12  1  0.01868375  0.31140327  0.66757561  1  0.063753  0  0.11617  0.087871  0  0.945878  0
H  H13  1  0.92349174  0.34045380  0.61040817  1  0.058318  0  0.102047  0.065719  0  0.987409  0
H  H14  1  0.98828017  0.42882536  0.75322180  1  0.02991  0  0.097552  0.093055  0  0.964389  0
H  H15  1  0.89780261  0.46681751  0.69306355  1  0.023748  0  0.092919  0.089269  0  0.984514  0
C  C16  1  0.51234755  0.51130227  0.27580962  1  1.649276  0  0.238669  0.681376  0  4.238135  0
C  C17  1  0.48545205  0.48443610  0.81388979  1  0.123281  0  -0.041291  -0.195493  0  3.951717  0
C  C18  1  0.51655372  0.18448872  0.51763913  1  0.207019  0  -0.028563  -0.178203  0  3.906444  0
C  C19  1  0.49005188  0.48863799  0.72473928  1  1.637778  0  0.232246  0.678742  0  4.238433  0
C  C20  1  0.52226916  0.02086586  0.52490619  1  0.050545  0  -0.050935  -0.044285  0  4.039391  0
C  C21  1  0.47702349  0.97953177  0.47453870  1  0.145563  0  -0.061094  -0.060342  0  4.056978  0
C  C22  1  0.48196086  0.89187333  0.47968117  1  -0.484318  0  -0.020845  0.016892  0  4.142683  0
C  C23  1  0.51857087  0.10841430  0.52052198  1  -0.462856  0  -0.010099  0.028051  0  4.111542  0
C  C24  1  0.48501683  0.81573581  0.48264392  1  0.212047  0  -0.039339  -0.193153  0  3.948205  0
C  C25  1  0.51239996  0.27458291  0.51271061  1  1.683963  0  0.239917  0.682308  0  4.233775  0
C  C26  1  0.48962903  0.72602780  0.48757363  1  1.652321  0  0.230176  0.675769  0  4.243926  0
C  C27  1  0.10972375  0.51908266  0.47896246  1  -0.426373  0  -0.021777  0.06785  0  4.17454  0
C  C28  1  0.72475874  0.48689179  0.51267480  1  1.662613  0  0.23722  0.670329  0  4.242838  0
C  C29  1  0.27457169  0.51201365  0.48692192  1  1.627677  0  0.225165  0.677964  0  4.243958  0
C  C30  1  0.81486311  0.48086876  0.51833997  1  0.197139  0  -0.018349  -0.131536  0  3.897189  0
C  C31  1  0.97896284  0.47130143  0.52958778  1  0.657104  0  0.113849  0.288517  0  4.130971  0
C  C32  1  0.02311713  0.52158361  0.47555253  1  0.221129  0  -0.102194  -0.237383  0  4.075361  0
C  C33  1  0.97287900  0.36432749  0.64539095  1  0.372645  0  -0.05911  0.027392  0  3.874149  0
C  C34  1  0.93681417  0.40941364  0.71762137  1  0.020287  0  -0.167821  -0.141399  0  3.985553  0
C  C35  1  0.88465345  0.35267056  0.77348151  1  -0.063364  0  -0.238519  -0.348374  0  3.977285  0
C  C36  1  0.89071663  0.47597383  0.52348654  1  -0.440662  0  -0.012027  -0.079046  0  4.078726  0
C  C37  1  0.18584065  0.51640777  0.48189306  1  0.114923  0  -0.053393  -0.226117  0  3.961307  0
C  C38  1  0.51634692  0.51583230  0.18619600  1  0.144584  0  -0.028484  -0.177574  0  3.907325  0
C  C39  1  0.52227194  0.52234177  0.02327458  1  0.029822  0  -0.052128  -0.045296  0  4.042195  0
C  C40  1  0.47720187  0.47698349  0.97675993  1  0.111456  0  -0.05998  -0.059487  0  4.056758  0
C  C41  1  0.48215908  0.48168698  0.88966862  1  -0.345754  0  -0.020715  0.016493  0  4.144818  0
C  C42  1  0.51854191  0.51841174  0.11037906  1  -0.334215  0  -0.009473  0.028782  0  4.113125  0
O  O43  1  0.50073482  0.49990732  0.50004100  1  -1.230515  0  -0.567621  -1.036194  0  2.521988  0
O  O44  1  0.69521483  0.44142458  0.46252103  1  -1.140246  0  -0.300531  -0.52665  0  2.272114  0
O  O45  1  0.31036984  0.56293312  0.43558221  1  -1.144142  0  -0.318412  -0.549775  0  2.28187  0
O  O46  1  0.68507193  0.53675188  0.55852323  1  -1.142896  0  -0.301371  -0.526287  0  2.268448  0
O  O47  1  0.31050281  0.45731574  0.54252445  1  -1.155277  0  -0.316297  -0.547187  0  2.281235  0
O  O48  1  0.02030213  0.41678103  0.58860928  1  -1.043115  0  -0.158098  -0.173637  0  2.493848  0
O  O49  1  0.45797171  0.31027246  0.55817746  1  -1.142709  0  -0.302631  -0.52802  0  2.269868  0
O  O50  1  0.44377846  0.69568257  0.43646505  1  -1.146444  0  -0.308496  -0.535651  0  2.277223  0
O  O51  1  0.56371570  0.45561792  0.31566061  1  -1.137213  0  -0.305603  -0.532744  0  2.269309  0
O  O52  1  0.53974235  0.53825625  0.68969868  1  -1.145638  0  -0.313454  -0.542958  0  2.276524  0
O  O53  1  0.45803017  0.56292682  0.30551464  1  -1.14852  0  -0.301924  -0.528413  0  2.269945  0
O  O54  1  0.44427773  0.44250778  0.68941479  1  -1.146122  0  -0.308852  -0.536174  0  2.275236  0
O  O55  1  0.56374837  0.30881533  0.46306720  1  -1.147547  0  -0.307823  -0.53563  0  2.268457  0
O  O56  1  0.53946644  0.68547697  0.54286431  1  -1.138343  0  -0.310806  -0.540268  0  2.277122  0
