# generated using pymatgen
data_CuH10C13(NO2)2
_symmetry_space_group_name_H-M   'P 1'
_cell_length_a   6.68793387
_cell_length_b   6.30782764
_cell_length_c   14.17403629
_cell_angle_alpha   90.00360591
_cell_angle_beta   98.21522798
_cell_angle_gamma   90.00023823
_symmetry_Int_Tables_number   1
_chemical_formula_structural   CuH10C13(NO2)2
_chemical_formula_sum   'Cu2 H20 C26 N4 O8'
_cell_volume   591.81463297
_cell_formula_units_Z   2
loop_
 _symmetry_equiv_pos_site_id
 _symmetry_equiv_pos_as_xyz
  1  'x, y, z'
loop_
 _atom_site_type_symbol
 _atom_site_label
 _atom_site_symmetry_multiplicity
 _atom_site_fract_x
 _atom_site_fract_y
 _atom_site_fract_z
 _atom_site_occupancy
 _atom_site_hle17_ddec_charge
 _atom_site_hle17_ddec_spin_density
 _atom_site_hle17_ddec_sum_bond_order
 _atom_site_hle17_magmom
 _atom_site_hse06_10hf_ddec_charge
 _atom_site_hse06_10hf_ddec_spin_density
 _atom_site_hse06_10hf_ddec_sum_bond_order
 _atom_site_hse06_10hf_magmom
 _atom_site_hse06_ddec_charge
 _atom_site_hse06_ddec_spin_density
 _atom_site_hse06_ddec_sum_bond_order
 _atom_site_hse06_magmom
 _atom_site_pbe_cm5_charge
 _atom_site_pbe_ddec_charge
 _atom_site_pbe_ddec_spin_density
 _atom_site_pbe_ddec_sum_bond_order
 _atom_site_pbe_magmom
Cu  Cu0  1  0.27186997  0.69389016  0.58443035  1  0.912603  0.706919  1.754823  0.513  0.921428  0.812733  2.138224  0.653  1.017335  0.894815  2.073124  0.751  0.711945  0.855357  0.748033  2.192646  0.585
Cu  Cu1  1  0.72815722  0.19389662  0.41555438  1  0.912625  -0.706987  1.755274  -0.513  0.921398  -0.81277  2.138672  -0.653  1.017276  -0.894834  2.073596  -0.751  0.712028  0.855374  -0.748098  2.19308  -0.586
H  H2  1  0.77942808  0.10774236  0.58298187  1  0.115854  0.001679  0.956576  0.001  0.112474  0.001468  1.040402  0.001  0.117688  0.001069  1.033458  0.0  0.110857  0.108588  0.001715  1.045632  0.001
H  H3  1  0.22061033  0.60777434  0.41700534  1  0.11578  -0.00168  0.956515  -0.001  0.112427  -0.001467  1.040375  -0.001  0.117636  -0.00107  1.033423  0.0  0.110838  0.108544  -0.001714  1.045598  -0.001
H  H4  1  0.79315717  0.56504991  0.76031301  1  0.095961  0.000356  0.962654  0.0  0.105474  7.6e-05  1.027252  0.0  0.108271  2.7e-05  1.025461  0.0  0.100755  0.103489  0.000125  1.028522  0.0
H  H5  1  0.20689475  0.06504911  0.23970772  1  0.095942  -0.000356  0.962824  0.0  0.105507  -7.6e-05  1.027362  0.0  0.10831  -2.7e-05  1.025569  0.0  0.100775  0.103541  -0.000125  1.028606  0.0
H  H6  1  0.83064043  0.49629033  0.93452518  1  0.076286  -1.9e-05  0.984533  0.0  0.086247  3.2e-05  1.051015  0.0  0.088467  1.6e-05  1.050376  0.0  0.094859  0.084641  4.9e-05  1.051614  0.0
H  H7  1  0.16933426  0.99631007  0.06548671  1  0.076334  1.7e-05  0.984499  0.0  0.086246  -3.2e-05  1.051026  0.0  0.088462  -1.6e-05  1.050397  0.0  0.094857  0.084644  -4.9e-05  1.051628  0.0
H  H8  1  0.87474802  0.12908115  0.99635266  1  0.08163  0.000202  0.971156  0.0  0.090066  -1.3e-05  1.038456  0.0  0.09267  -7e-06  1.037499  0.0  0.095512  0.088219  -2e-05  1.039163  0.0
H  H9  1  0.12519703  0.62910159  0.00363685  1  0.081556  -0.000203  0.971269  0.0  0.090006  1.3e-05  1.038545  0.0  0.0926  7e-06  1.037609  0.0  0.095542  0.08816  1.9e-05  1.039245  0.0
H  H10  1  0.88792560  0.82872633  0.88316887  1  0.080901  2e-06  0.968336  0.0  0.093677  9e-06  1.029916  0.0  0.095575  3e-06  1.029908  0.0  0.097291  0.092353  1.4e-05  1.029965  0.0
H  H11  1  0.11200609  0.32873967  0.11679236  1  0.08097  -1e-06  0.968341  0.0  0.093654  -9e-06  1.029994  0.0  0.095545  -3e-06  1.029986  0.0  0.097238  0.092329  -1.4e-05  1.03004  0.0
H  H12  1  0.83996235  0.89708317  0.70840322  1  0.104301  6.5e-05  0.937404  0.0  0.117878  -3.4e-05  0.993339  0.0  0.120634  -3.6e-05  0.992536  0.0  0.104331  0.116  -2.7e-05  0.993895  0.0
H  H13  1  0.15999430  0.39708758  0.29156866  1  0.104471  -6.6e-05  0.937369  0.0  0.11798  3.3e-05  0.993392  0.0  0.120734  3.6e-05  0.992594  0.0  0.104399  0.116108  2.7e-05  0.993938  0.0
H  H14  1  0.40601043  0.57318156  0.78713663  1  0.057751  -9.3e-05  0.966414  0.0  0.063503  -9.4e-05  1.036303  0.0  0.066179  -7.5e-05  1.032703  0.0  0.122668  0.061556  -0.000109  1.038819  0.0
H  H15  1  0.59403385  0.07315761  0.21286691  1  0.057575  9.7e-05  0.966799  0.0  0.063442  9.4e-05  1.036565  0.0  0.066117  7.4e-05  1.032964  0.0  0.122683  0.061495  0.00011  1.039086  0.0
H  H16  1  0.42991707  0.07588251  0.97795533  1  0.072098  -1.2e-05  0.962503  0.0  0.073935  -7e-06  1.036308  0.0  0.078009  -4e-06  1.031291  0.0  0.110097  0.070949  -1.3e-05  1.0399  0.0
H  H17  1  0.57002622  0.57584045  0.02206216  1  0.072178  1.2e-05  0.962046  0.0  0.074037  7e-06  1.03585  0.0  0.078104  4e-06  1.030824  0.0  0.110082  0.071051  1.3e-05  1.039467  0.0
H  H18  1  0.31915796  0.32252819  0.84174615  1  0.111529  -8e-06  0.959745  0.0  0.125382  -3e-06  1.011114  0.0  0.128456  -4e-06  1.010979  0.0  0.113084  0.123136  1e-06  1.011555  0.0
H  H19  1  0.68080007  0.82250723  0.15828505  1  0.111613  9e-06  0.959454  0.0  0.125377  3e-06  1.010947  0.0  0.128488  4e-06  1.010737  0.0  0.113062  0.12313  -1e-06  1.011409  0.0
H  H20  1  0.26792028  0.16905327  0.67529593  1  0.088718  -8.6e-05  0.936459  0.0  0.099361  -7.2e-05  0.994128  0.0  0.102117  -7.8e-05  0.991627  0.0  0.121037  0.09751  -5.5e-05  0.995707  0.0
H  H21  1  0.73207832  0.66904129  0.32472291  1  0.088615  8.4e-05  0.936429  0.0  0.099306  7.2e-05  0.994076  0.0  0.102063  7.8e-05  0.991568  0.0  0.12102  0.097459  5.5e-05  0.995661  0.0
C  C22  1  0.58429381  0.37508817  0.57289640  1  0.69189  0.002598  3.788159  0.003  0.656645  0.001552  4.086645  0.002  0.698249  0.001059  4.078716  0.002  0.22087  0.627981  0.002051  4.091077  0.002
C  C23  1  0.41572774  0.87510706  0.42709530  1  0.691625  -0.002599  3.788478  -0.003  0.656535  -0.001555  4.086814  -0.002  0.698131  -0.001062  4.07888  -0.002  0.220692  0.627875  -0.002053  4.09125  -0.002
C  C24  1  0.78230207  0.26553753  0.61681847  1  -0.320348  0.014159  3.685494  0.014  -0.329404  0.009968  3.908128  0.01  -0.342679  0.007235  3.915961  0.008  -0.086898  -0.320351  0.0121  3.902874  0.012
C  C25  1  0.21772747  0.76555216  0.38317694  1  -0.320071  -0.014138  3.685501  -0.014  -0.329411  -0.00996  3.908458  -0.01  -0.342677  -0.007225  3.916286  -0.008  -0.086934  -0.32036  -0.012089  3.903199  -0.012
C  C26  1  0.94837766  0.38983319  0.57503125  1  0.68382  0.001709  3.794556  0.002  0.648835  0.001182  4.094372  0.001  0.690085  0.000677  4.086634  0.001  0.219008  0.620411  0.001663  4.098718  0.002
C  C27  1  0.05166668  0.88983178  0.42495953  1  0.683821  -0.001723  3.794771  -0.002  0.648923  -0.001187  4.094444  -0.001  0.690178  -0.00068  4.086698  -0.001  0.218962  0.620506  -0.001665  4.09878  -0.002
C  C28  1  0.81255001  0.23531265  0.72286845  1  0.115469  -0.002711  3.737192  -0.002  0.133097  0.000668  3.96748  0.001  0.134809  0.00091  3.990984  0.001  -0.011482  0.13209  0.000171  3.951325  0.0
C  C29  1  0.18747469  0.73531248  0.27712648  1  0.115352  0.002712  3.737124  0.002  0.132967  -0.000668  3.967506  -0.001  0.134678  -0.000912  3.991015  -0.001  -0.011488  0.131961  -0.000171  3.951358  0.0
C  C30  1  0.81376994  0.40400908  0.78725602  1  -0.099234  -0.00727  3.721322  -0.007  -0.125074  -0.001213  3.975386  -0.001  -0.125646  -0.000747  3.99448  -0.001  -0.092422  -0.124332  -0.001916  3.962097  -0.002
C  C31  1  0.18625052  0.90402223  0.21274774  1  -0.098864  0.007276  3.721302  0.007  -0.124743  0.001214  3.975314  0.001  -0.125325  0.000748  3.994418  0.001  -0.09232  -0.124009  0.001918  3.96201  0.002
C  C32  1  0.83661469  0.36516891  0.88499307  1  -0.086671  0.005267  3.794517  0.005  -0.098985  0.000765  4.048646  0.001  -0.10253  0.0006  4.072515  0.001  -0.09975  -0.096495  0.001069  4.032198  0.001
C  C33  1  0.16337366  0.86517797  0.11500958  1  -0.08701  -0.00526  3.794712  -0.005  -0.099266  -0.000765  4.048871  -0.001  -0.10282  -0.000601  4.072759  -0.001  -0.099796  -0.096781  -0.001068  4.032437  -0.001
C  C34  1  0.86261560  0.15854243  0.92002314  1  -0.074396  -0.009447  3.785762  -0.009  -0.092836  -0.001662  4.040527  -0.002  -0.095443  -0.000993  4.063803  -0.001  -0.096978  -0.090724  -0.002611  4.02442  -0.002
C  C35  1  0.13734632  0.65856710  0.07996268  1  -0.074234  0.009454  3.785919  0.009  -0.092694  0.001663  4.040681  0.002  -0.095298  0.000994  4.063953  0.001  -0.097126  -0.090582  0.002613  4.024567  0.002
C  C36  1  0.86626285  0.99024437  0.85644252  1  -0.071619  0.002533  3.794256  0.003  -0.087489  0.000607  4.049417  0.001  -0.090093  0.000597  4.074126  0.001  -0.099573  -0.085572  0.00063  4.032566  0.001
C  C37  1  0.13369630  0.49025995  0.14353362  1  -0.07178  -0.002537  3.794168  -0.003  -0.087559  -0.000607  4.049272  -0.001  -0.090152  -0.000597  4.07397  -0.001  -0.099463  -0.085638  -0.00063  4.03241  -0.001
C  C38  1  0.83941511  0.02841037  0.75853686  1  -0.114339  -0.00321  3.71398  -0.003  -0.139025  -0.001233  3.966815  -0.001  -0.14285  -0.000923  3.990187  -0.001  -0.092248  -0.136129  -0.001575  3.950694  -0.001
C  C39  1  0.16056052  0.52842571  0.24144328  1  -0.11444  0.003215  3.713948  0.003  -0.13904  0.001234  3.966709  0.001  -0.142865  0.000924  3.990083  0.001  -0.092268  -0.136153  0.001576  3.950591  0.001
C  C40  1  0.38483216  0.74093907  0.80082540  1  0.285543  -0.000445  3.728138  0.0  0.242846  -0.000393  4.005568  0.0  0.257538  -0.00034  4.016783  0.0  0.173436  0.23344  -0.000453  3.99738  0.0
C  C41  1  0.61518219  0.24091339  0.19918525  1  0.285668  0.000437  3.728118  0.0  0.24285  0.000394  4.005561  0.0  0.257541  0.000341  4.016776  0.0  0.173359  0.233439  0.000454  3.997383  0.0
C  C42  1  0.39729848  0.01665888  0.90485424  1  0.166153  -0.000377  3.705207  0.0  0.142576  -0.000257  3.953654  0.0  0.152362  -0.000212  3.968325  0.0  0.06303  0.136271  -0.000338  3.944082  0.0
C  C43  1  0.60266544  0.51661918  0.09517206  1  0.166254  0.000391  3.705088  0.0  0.142626  0.000257  3.953607  0.0  0.152427  0.000213  3.968282  0.0  0.063037  0.136308  0.000339  3.944036  0.0
C  C44  1  0.34061570  0.15481516  0.82937022  1  -0.155585  0.000331  3.709346  0.0  -0.163453  0.000137  3.947658  0.0  -0.174835  0.000133  3.970445  0.0  -0.073519  -0.156593  0.000152  3.933295  0.0
C  C45  1  0.65937386  0.65479575  0.17066385  1  -0.155521  -0.00035  3.708842  0.0  -0.163339  -0.000137  3.947288  0.0  -0.174734  -0.000134  3.970021  0.0  -0.07323  -0.156487  -0.000153  3.932951  0.0
C  C46  1  0.30985626  0.07006326  0.73793406  1  0.18549  -0.000527  3.665797  -0.001  0.154565  -0.00039  3.925423  0.0  0.166229  -0.000348  3.93998  0.0  0.067148  0.147266  -0.000434  3.915085  0.0
C  C47  1  0.69014292  0.57005665  0.26209114  1  0.185492  0.000547  3.665736  0.001  0.154512  0.00039  3.925329  0.0  0.166175  0.00035  3.939894  0.0  0.066963  0.147212  0.000434  3.915002  0.0
N  N48  1  0.33174284  0.86137596  0.72323072  1  -0.370105  -0.001279  3.197098  -0.001  -0.32808  -0.000737  3.491948  0.0  -0.350826  -0.000807  3.504169  0.0  -0.332561  -0.312603  -0.000576  3.483728  0.0
N  N49  1  0.66828784  0.36137084  0.27678023  1  -0.370056  0.001273  3.196994  0.001  -0.327983  0.000738  3.491874  0.0  -0.350729  0.000806  3.504092  0.0  -0.33253  -0.312505  0.000577  3.483655  0.0
N  N50  1  0.41866099  0.80709971  0.89113836  1  -0.361566  0.000257  3.040346  0.0  -0.314133  0.000125  3.299926  0.0  -0.329428  0.000111  3.312644  0.0  -0.317037  -0.304099  0.000163  3.291348  0.0
N  N51  1  0.58133290  0.30705186  0.10887287  1  -0.361693  -0.000262  3.040573  0.0  -0.314215  -0.000125  3.300164  0.0  -0.329512  -0.000111  3.312878  0.0  -0.317034  -0.304174  -0.000164  3.291579  0.0
O  O52  1  0.48754565  0.48048444  0.62750291  1  -0.57104  0.052618  2.099944  0.07  -0.542645  0.036719  2.378185  0.054  -0.584617  0.029323  2.36894  0.046  -0.300657  -0.513723  0.040094  2.384444  0.057
O  O53  1  0.51246800  0.98050919  0.37249626  1  -0.570839  -0.052596  2.100007  -0.07  -0.54254  -0.036706  2.37825  -0.054  -0.584528  -0.029317  2.369045  -0.046  -0.300588  -0.513646  -0.040074  2.384555  -0.057
O  O54  1  0.53361358  0.35726744  0.48310433  1  -0.567343  -0.086628  2.027424  -0.113  -0.553085  -0.053489  2.301799  -0.077  -0.596945  -0.040075  2.294067  -0.061  -0.309661  -0.523096  -0.061669  2.307007  -0.086
O  O55  1  0.46642134  0.85730221  0.51688349  1  -0.567353  0.086632  2.027556  0.113  -0.553107  0.053493  2.301837  0.077  -0.59699  0.040077  2.294148  0.061  -0.309588  -0.523109  0.061678  2.30705  0.086
O  O56  1  0.06900893  0.50294102  0.63109180  1  -0.560434  0.059261  2.071271  0.079  -0.535006  0.041167  2.347158  0.061  -0.576991  0.032685  2.33829  0.051  -0.302726  -0.506274  0.045275  2.353339  0.064
O  O57  1  0.93102544  0.00294250  0.36889989  1  -0.560841  -0.059251  2.071335  -0.079  -0.535213  -0.04116  2.346946  -0.061  -0.57719  -0.032681  2.338053  -0.051  -0.302774  -0.506492  -0.045263  2.353138  -0.064
O  O58  1  0.95098402  0.37357264  0.48560702  1  -0.573328  -0.082329  2.029741  -0.108  -0.558763  -0.051185  2.307022  -0.074  -0.601755  -0.038401  2.298087  -0.059  -0.310465  -0.52927  -0.059079  2.313163  -0.083
O  O59  1  0.04904049  0.87359778  0.51437990  1  -0.573157  0.082337  2.029686  0.108  -0.558692  0.051192  2.306982  0.075  -0.601678  0.038403  2.298041  0.059  -0.310347  -0.529195  0.059089  2.313123  0.083
