# generated using pymatgen
data_ZnH16C16(NO2)2
_symmetry_space_group_name_H-M   'P 1'
_cell_length_a   9.88913916
_cell_length_b   13.35784288
_cell_length_c   13.67570207
_cell_angle_alpha   89.99872037
_cell_angle_beta   90.51609023
_cell_angle_gamma   89.99977242
_symmetry_Int_Tables_number   1
_chemical_formula_structural   ZnH16C16(NO2)2
_chemical_formula_sum   'Zn4 H64 C64 N8 O16'
_cell_volume   1806.45368717
_cell_formula_units_Z   4
loop_
 _symmetry_equiv_pos_site_id
 _symmetry_equiv_pos_as_xyz
  1  'x, y, z'
loop_
 _atom_site_type_symbol
 _atom_site_label
 _atom_site_symmetry_multiplicity
 _atom_site_fract_x
 _atom_site_fract_y
 _atom_site_fract_z
 _atom_site_occupancy
 _atom_site_pbe_bader_charge
 _atom_site_pbe_bader_spin_density
 _atom_site_pbe_cm5_charge
 _atom_site_pbe_ddec_charge
 _atom_site_pbe_ddec_spin_density
 _atom_site_pbe_ddec_sum_bond_order
 _atom_site_pbe_magmom
Zn  Zn0  1  0.70258531  0.13161408  0.17447338  1  1.243179  0  0.679073  0.740419  0  2.384613  0
Zn  Zn1  1  0.79743540  0.63161061  0.32552256  1  1.243058  0  0.679028  0.740327  0  2.384722  0
Zn  Zn2  1  0.29741040  0.86838259  0.82552760  1  1.242817  0  0.6791  0.740395  0  2.384735  0
Zn  Zn3  1  0.20256732  0.36839729  0.67447944  1  1.243039  0  0.678955  0.740212  0  2.384872  0
H  H4  1  0.55691005  0.38512836  0.95106381  1  0.081021  0  0.098655  0.118375  0  0.982925  0
H  H5  1  0.94310853  0.88512034  0.54890164  1  0.080046  0  0.09876  0.118561  0  0.982978  0
H  H6  1  0.44308008  0.61485408  0.04892962  1  0.080745  0  0.098702  0.118561  0  0.982918  0
H  H7  1  0.05689809  0.11487633  0.45110272  1  0.080537  0  0.098751  0.118495  0  0.982958  0
H  H8  1  0.41573241  0.33049052  0.01176155  1  0.035768  0  0.090782  0.099387  0  1.010131  0
H  H9  1  0.08428776  0.83046146  0.48822468  1  0.03636  0  0.090767  0.099475  0  1.010006  0
H  H10  1  0.58424609  0.66950765  0.98822408  1  0.036024  0  0.090791  0.099441  0  1.01011  0
H  H11  1  0.91571660  0.16952847  0.51178324  1  0.035422  0  0.0908  0.099399  0  1.010101  0
H  H12  1  0.57159846  0.23180691  0.84418829  1  0.027241  0  0.097023  0.107241  0  0.988134  0
H  H13  1  0.92839114  0.73181220  0.65580344  1  0.027184  0  0.09702  0.107318  0  0.988172  0
H  H14  1  0.42842033  0.76819575  0.15581585  1  0.027098  0  0.097005  0.107245  0  0.988302  0
H  H15  1  0.07160664  0.26817923  0.34419690  1  0.027066  0  0.097034  0.107315  0  0.98804  0
H  H16  1  0.41929756  0.18644367  0.89545115  1  0.044522  0  0.092036  0.106233  0  0.997612  0
H  H17  1  0.08069951  0.68643164  0.60455916  1  0.04454  0  0.092048  0.106341  0  0.997481  0
H  H18  1  0.58072033  0.81353803  0.10453611  1  0.044956  0  0.092015  0.106213  0  0.997595  0
H  H19  1  0.91930004  0.31356578  0.39544491  1  0.04454  0  0.092044  0.106302  0  0.997528  0
H  H20  1  0.75174208  0.01989322  0.36287008  1  0.133289  0  0.119181  0.097088  0  1.018696  0
H  H21  1  0.74828359  0.51991217  0.13710945  1  0.133555  0  0.119239  0.097192  0  1.018453  0
H  H22  1  0.24825281  0.98010869  0.63712794  1  0.133156  0  0.119236  0.097207  0  1.018699  0
H  H23  1  0.25172655  0.48010771  0.86288774  1  0.133433  0  0.119145  0.097075  0  1.018422  0
H  H24  1  0.63322066  0.89316420  0.46512077  1  0.141138  0  0.112099  0.133702  0  1.007472  0
H  H25  1  0.86681452  0.39318313  0.03487232  1  0.141432  0  0.112148  0.133742  0  1.007486  0
H  H26  1  0.36677678  0.10683546  0.53488467  1  0.141143  0  0.112126  0.133719  0  1.00754  0
H  H27  1  0.13320480  0.60684423  0.96512378  1  0.141335  0  0.112133  0.133819  0  1.007414  0
H  H28  1  0.28336649  0.93152408  0.27708140  1  0.071174  0  0.111433  0.120358  0  0.99114  0
H  H29  1  0.21663618  0.43151293  0.22294365  1  0.071068  0  0.111398  0.120264  0  0.991224  0
H  H30  1  0.71664082  0.06844713  0.72291274  1  0.071434  0  0.111369  0.120217  0  0.991077  0
H  H31  1  0.78335826  0.56847401  0.77709169  1  0.07657  0  0.111439  0.120342  0  0.991235  0
H  H32  1  0.41779702  0.05693318  0.18161324  1  0.10031  0  0.115985  0.086628  0  1.012555  0
H  H33  1  0.08220331  0.55693122  0.31839711  1  0.100363  0  0.116039  0.086611  0  1.012654  0
H  H34  1  0.58219696  0.94304927  0.81838328  1  0.099929  0  0.115976  0.086577  0  1.012723  0
H  H35  1  0.91779003  0.44306994  0.68162427  1  0.100078  0  0.116013  0.086634  0  1.012597  0
H  H36  1  0.26928979  0.81680343  0.41290333  1  0.027829  0  0.097384  0.099124  0  0.992484  0
H  H37  1  0.23073069  0.31680357  0.08711029  1  0.027707  0  0.097382  0.099019  0  0.992571  0
H  H38  1  0.73071102  0.18319624  0.58709713  1  0.02785  0  0.097384  0.099134  0  0.992467  0
H  H39  1  0.76928045  0.68321106  0.91290231  1  0.027629  0  0.097395  0.099046  0  0.992557  0
H  H40  1  0.37901158  0.83918372  0.51402922  1  0.029528  0  0.098096  0.09887  0  0.998781  0
H  H41  1  0.12101375  0.33918178  0.98598115  1  0.029736  0  0.09806  0.098778  0  0.998857  0
H  H42  1  0.62098625  0.16081370  0.48597038  1  0.029562  0  0.098112  0.09886  0  0.998776  0
H  H43  1  0.87900966  0.66083435  0.01402976  1  0.029844  0  0.098076  0.098815  0  0.9988  0
H  H44  1  0.43827601  0.70012575  0.33999757  1  0.050911  0  0.09716  0.103507  0  1.001535  0
H  H45  1  0.06174795  0.20011947  0.16000701  1  0.050997  0  0.097169  0.103488  0  1.001601  0
H  H46  1  0.56172124  0.29988215  0.65999543  1  0.051042  0  0.097115  0.103434  0  1.001557  0
H  H47  1  0.93825810  0.79989367  0.83999074  1  0.050863  0  0.097188  0.103528  0  1.001551  0
H  H48  1  0.55480461  0.72762969  0.43488114  1  0.104961  0  0.104276  0.124114  0  1.015323  0
H  H49  1  0.94520725  0.22763499  0.06513066  1  0.105105  0  0.104279  0.124131  0  1.015329  0
H  H50  1  0.44519279  0.27237446  0.56510966  1  0.104993  0  0.104248  0.124076  0  1.015243  0
H  H51  1  0.05480168  0.77238190  0.93486940  1  0.104909  0  0.104278  0.124174  0  1.015207  0
H  H52  1  0.35394948  0.53754256  0.35507704  1  0.092093  0  0.110466  0.121971  0  0.999299  0
H  H53  1  0.14604731  0.03753264  0.14492772  1  0.091994  0  0.110456  0.121983  0  0.999223  0
H  H54  1  0.64604807  0.46245261  0.64491157  1  0.092285  0  0.110512  0.121938  0  0.999291  0
H  H55  1  0.85395412  0.96247002  0.85507862  1  0.092116  0  0.1105  0.122006  0  0.999168  0
H  H56  1  0.26342377  0.39856096  0.46051361  1  0.145849  0  0.11684  0.094065  0  1.027165  0
H  H57  1  0.23655121  0.89854999  0.03948978  1  0.146161  0  0.116927  0.094091  0  1.027141  0
H  H58  1  0.73656814  0.60144020  0.53948356  1  0.145851  0  0.116882  0.094146  0  1.027232  0
H  H59  1  0.76344502  0.10145118  0.96051854  1  0.145891  0  0.116881  0.09412  0  1.027182  0
H  H60  1  0.32596180  0.56561715  0.71213560  1  0.086005  0  0.121898  0.096315  0  1.004375  0
H  H61  1  0.17403350  0.06561735  0.78786918  1  0.086119  0  0.121873  0.096346  0  1.004375  0
H  H62  1  0.67404238  0.43439599  0.28785987  1  0.086007  0  0.121915  0.096351  0  1.004317  0
H  H63  1  0.82598034  0.93438681  0.21213328  1  0.086117  0  0.121883  0.096359  0  1.004395  0
H  H64  1  0.41457549  0.70933665  0.61942610  1  0.088624  0  0.113579  0.128646  0  0.984944  0
H  H65  1  0.08542294  0.20933872  0.88057645  1  0.08869  0  0.113596  0.128675  0  0.984794  0
H  H66  1  0.58543749  0.29066601  0.38055876  1  0.097028  0  0.113542  0.128635  0  0.98501  0
H  H67  1  0.91458166  0.79065870  0.11942783  1  0.088542  0  0.113572  0.128695  0  0.984792  0
C  C68  1  0.60491260  0.25468133  0.03636099  1  1.555129  0  0.197033  0.628435  0  4.156017  0
C  C69  1  0.89509186  0.75466619  0.46362211  1  1.555358  0  0.197084  0.628626  0  4.155806  0
C  C70  1  0.39505555  0.74531310  0.96364324  1  1.55634  0  0.197016  0.628444  0  4.156123  0
C  C71  1  0.10490318  0.24533647  0.53637372  1  1.554817  0  0.196818  0.628231  0  4.156025  0
C  C72  1  0.50922110  0.31428591  0.97215600  1  -0.049126  0  -0.168333  -0.270017  0  3.937766  0
C  C73  1  0.99078533  0.81427375  0.52783244  1  -0.048386  0  -0.168531  -0.270489  0  3.938069  0
C  C74  1  0.49075393  0.68569878  0.02783608  1  -0.048847  0  -0.168432  -0.270478  0  3.938137  0
C  C75  1  0.00921104  0.18572142  0.47217369  1  -0.047978  0  -0.168515  -0.270196  0  3.937763  0
C  C76  1  0.47635062  0.25476918  0.87898016  1  0.00832  0  -0.164392  -0.264415  0  3.924569  0
C  C77  1  0.02363751  0.75476143  0.62100488  1  0.008348  0  -0.164436  -0.264787  0  3.924745  0
C  C78  1  0.52363894  0.74522225  0.12100666  1  0.007887  0  -0.164316  -0.264287  0  3.924608  0
C  C79  1  0.97635031  0.24523449  0.37899285  1  0.008682  0  -0.164395  -0.264643  0  3.924505  0
C  C80  1  0.39806353  0.31782298  0.80529648  1  1.543885  0  0.194877  0.608715  0  4.188469  0
C  C81  1  0.10191788  0.81781482  0.69469131  1  1.543946  0  0.195045  0.609061  0  4.187939  0
C  C82  1  0.60193368  0.68218342  0.19469724  1  1.543655  0  0.194888  0.608606  0  4.188238  0
C  C83  1  0.89805965  0.18219084  0.30530892  1  1.542942  0  0.194903  0.608783  0  4.188069  0
C  C84  1  0.64689851  0.99905537  0.34786826  1  0.404413  0  0.045451  0.087145  0  3.94564  0
C  C85  1  0.85313547  0.49907615  0.15211591  1  0.404367  0  0.045481  0.087049  0  3.945631  0
C  C86  1  0.35309431  0.00093531  0.65213041  1  0.404521  0  0.045438  0.086949  0  3.945505  0
C  C87  1  0.14687852  0.50095496  0.84788437  1  0.404689  0  0.045537  0.0871  0  3.945897  0
C  C88  1  0.57962978  0.92937066  0.40461666  1  0.019216  0  -0.077056  -0.167461  0  3.911659  0
C  C89  1  0.92040090  0.42937758  0.09537912  1  0.019452  0  -0.077096  -0.167521  0  3.911828  0
C  C90  1  0.42037237  0.07063200  0.59537873  1  0.019712  0  -0.077077  -0.167423  0  3.911291  0
C  C91  1  0.07961577  0.57063781  0.90462638  1  0.018373  0  -0.077099  -0.167534  0  3.911735  0
C  C92  1  0.44678803  0.90233533  0.37977856  1  -0.045488  0  0.019861  0.176397  0  3.936853  0
C  C93  1  0.05323738  0.40233746  0.12022757  1  -0.046305  0  0.019902  0.176267  0  3.9372  0
C  C94  1  0.55321980  0.09765460  0.62022293  1  -0.046002  0  0.019908  0.176395  0  3.937031  0
C  C95  1  0.94677242  0.59768092  0.87977473  1  -0.045264  0  0.019862  0.176233  0  3.936884  0
C  C96  1  0.38692675  0.94960221  0.29893385  1  0.000899  0  -0.083207  -0.191707  0  3.949582  0
C  C97  1  0.11308919  0.44959633  0.20107233  1  -2.8e-05  0  -0.083198  -0.191506  0  3.949717  0
C  C98  1  0.61307415  0.05038698  0.70106515  1  0.000264  0  -0.083267  -0.191569  0  3.949155  0
C  C99  1  0.88690756  0.55039136  0.79894333  1  -0.00536  0  -0.083084  -0.191354  0  3.94975  0
C  C100  1  0.46059023  0.01906774  0.24548755  1  0.463833  0  0.047618  0.098361  0  3.949082  0
C  C101  1  0.03942899  0.51906737  0.25451708  1  0.464675  0  0.047657  0.098381  0  3.949077  0
C  C102  1  0.53940563  0.98091096  0.75451125  1  0.464666  0  0.047853  0.098543  0  3.948761  0
C  C103  1  0.96058215  0.48093829  0.74549552  1  0.464672  0  0.047503  0.098117  0  3.949445  0
C  C104  1  0.37607840  0.82129551  0.43545080  1  0.023327  0  -0.151704  -0.192781  0  3.931352  0
C  C105  1  0.12394547  0.32129273  0.06455701  1  0.022759  0  -0.151828  -0.192591  0  3.931419  0
C  C106  1  0.62391721  0.17870490  0.56455164  1  0.023386  0  -0.151751  -0.192876  0  3.93154  0
C  C107  1  0.87606717  0.67872191  0.93544833  1  0.023219  0  -0.151795  -0.19262  0  3.931799  0
C  C108  1  0.44613144  0.71986457  0.41771271  1  -0.034437  0  -0.156475  -0.206371  0  3.902885  0
C  C109  1  0.05388832  0.21986607  0.08229200  1  -0.034339  0  -0.156422  -0.206349  0  3.903129  0
C  C110  1  0.55386975  0.28013510  0.58228191  1  -0.034559  0  -0.156362  -0.20612  0  3.903024  0
C  C111  1  0.94611875  0.78014183  0.91770579  1  -0.034285  0  -0.156377  -0.206401  0  3.903312  0
C  C112  1  0.38982826  0.63621722  0.47784916  1  -0.018299  0  0.020365  0.183363  0  3.930891  0
C  C113  1  0.11017478  0.13621545  0.02215739  1  -0.012814  0  0.02042  0.183446  0  3.930842  0
C  C114  1  0.61017481  0.36377795  0.52214773  1  -0.018609  0  0.020266  0.183238  0  3.931081  0
C  C115  1  0.88983195  0.86378347  0.97784551  1  -0.018803  0  0.020384  0.183355  0  3.930918  0
C  C116  1  0.34613812  0.54700802  0.43406817  1  -0.001133  0  -0.085143  -0.191444  0  3.952803  0
C  C117  1  0.15385654  0.04699689  0.06593703  1  -0.006661  0  -0.085154  -0.191469  0  3.952616  0
C  C118  1  0.65385615  0.45299165  0.56592396  1  -0.001148  0  -0.085162  -0.191296  0  3.952857  0
C  C119  1  0.84614590  0.95300502  0.93406936  1  -0.001055  0  -0.085266  -0.191528  0  3.952796  0
C  C120  1  0.29620372  0.46988120  0.49146766  1  0.416687  0  0.044034  0.090066  0  3.956141  0
C  C121  1  0.20378897  0.96987328  0.00853566  1  0.416388  0  0.043975  0.090073  0  3.955958  0
C  C122  1  0.70379906  0.53011771  0.50853361  1  0.416592  0  0.043967  0.089875  0  3.956257  0
C  C123  1  0.79620361  0.03011740  0.99146666  1  0.41654  0  0.043959  0.089957  0  3.956271  0
C  C124  1  0.33139235  0.56263104  0.63280299  1  0.484805  0  0.052236  0.103929  0  3.947416  0
C  C125  1  0.16859666  0.06263618  0.86720526  1  0.484255  0  0.052267  0.103875  0  3.947636  0
C  C126  1  0.66860870  0.43736413  0.36719382  1  0.484547  0  0.052228  0.104011  0  3.947604  0
C  C127  1  0.83140775  0.93736498  0.13280194  1  0.484529  0  0.052232  0.103903  0  3.947707  0
C  C128  1  0.38205546  0.64258460  0.57992922  1  0.018375  0  -0.079892  -0.177203  0  3.921066  0
C  C129  1  0.11794626  0.14257894  0.92007710  1  0.018653  0  -0.079905  -0.17723  0  3.921036  0
C  C130  1  0.61794776  0.35741955  0.42006548  1  0.010284  0  -0.079856  -0.177294  0  3.921506  0
C  C131  1  0.88206926  0.85742522  0.07993056  1  0.01883  0  -0.079885  -0.17725  0  3.921207  0
N  N132  1  0.58914478  0.04302026  0.26889232  1  -1.260791  0  -0.332991  -0.245986  0  3.568803  0
N  N133  1  0.91087295  0.54302687  0.23109735  1  -1.260342  0  -0.333113  -0.245985  0  3.569234  0
N  N134  1  0.41084333  0.95697117  0.73110102  1  -1.260923  0  -0.333155  -0.246018  0  3.56909  0
N  N135  1  0.08914132  0.45698851  0.76891391  1  -1.260424  0  -0.333054  -0.245912  0  3.568965  0
N  N136  1  0.28816199  0.47742922  0.58964637  1  -1.275918  0  -0.333015  -0.244207  0  3.595722  0
N  N137  1  0.21182135  0.97742554  0.91035562  1  -1.275704  0  -0.333088  -0.244308  0  3.595576  0
N  N138  1  0.71183305  0.52257045  0.41034945  1  -1.275786  0  -0.332974  -0.244179  0  3.595557  0
N  N139  1  0.78817118  0.02257337  0.08964743  1  -1.275733  0  -0.332986  -0.244236  0  3.59559  0
O  O140  1  0.55144863  0.20261830  0.10616719  1  -1.183784  0  -0.352281  -0.570864  0  2.232962  0
O  O141  1  0.94857316  0.70260387  0.39381994  1  -1.184149  0  -0.352205  -0.570796  0  2.232954  0
O  O142  1  0.44852139  0.79737238  0.89383932  1  -1.184372  0  -0.352317  -0.570819  0  2.233222  0
O  O143  1  0.05142458  0.29741227  0.60616575  1  -1.183855  0  -0.352012  -0.570645  0  2.232916  0
O  O144  1  0.72925386  0.25369318  0.01763043  1  -1.207409  0  -0.332725  -0.58499  0  2.151176  0
O  O145  1  0.77075172  0.75369294  0.48233590  1  -1.207642  0  -0.332699  -0.584977  0  2.151196  0
O  O146  1  0.27071154  0.74628627  0.98236930  1  -1.20813  0  -0.332622  -0.584868  0  2.151084  0
O  O147  1  0.22924822  0.24629924  0.51766233  1  -1.207348  0  -0.332666  -0.584871  0  2.151224  0
O  O148  1  0.29992814  0.27267413  0.75947354  1  -1.165743  0  -0.340097  -0.559239  0  2.292262  0
O  O149  1  0.20005934  0.77267588  0.74051914  1  -1.166047  0  -0.340202  -0.559326  0  2.292218  0
O  O150  1  0.70007272  0.72732628  0.24051082  1  -1.165898  0  -0.340118  -0.559172  0  2.29242  0
O  O151  1  0.79995451  0.22733576  0.25946795  1  -1.165796  0  -0.34011  -0.559205  0  2.292376  0
O  O152  1  0.42953608  0.40764373  0.79167913  1  -1.200092  0  -0.340091  -0.585695  0  2.120578  0
O  O153  1  0.07044302  0.90764583  0.70830297  1  -1.199726  0  -0.340142  -0.58581  0  2.120116  0
O  O154  1  0.57047594  0.59234321  0.20832033  1  -1.199672  0  -0.340125  -0.585715  0  2.120003  0
O  O155  1  0.92953740  0.09235234  0.29168420  1  -1.199438  0  -0.340147  -0.585766  0  2.119828  0
