# generated using pymatgen
data_AlH12C24(NO4)3
_symmetry_space_group_name_H-M   'P 1'
_cell_length_a   4.22746714
_cell_length_b   27.77267581
_cell_length_c   27.77283977
_cell_angle_alpha   120.00090206
_cell_angle_beta   90.00148869
_cell_angle_gamma   89.99841230
_symmetry_Int_Tables_number   1
_chemical_formula_structural   AlH12C24(NO4)3
_chemical_formula_sum   'Al2 H24 C48 N6 O24'
_cell_volume   2823.87154398
_cell_formula_units_Z   2
loop_
 _symmetry_equiv_pos_site_id
 _symmetry_equiv_pos_as_xyz
  1  'x, y, z'
loop_
 _atom_site_type_symbol
 _atom_site_label
 _atom_site_symmetry_multiplicity
 _atom_site_fract_x
 _atom_site_fract_y
 _atom_site_fract_z
 _atom_site_occupancy
 _atom_site_pbe_bader_charge
 _atom_site_pbe_bader_spin_density
 _atom_site_pbe_cm5_charge
 _atom_site_pbe_ddec_charge
 _atom_site_pbe_ddec_spin_density
 _atom_site_pbe_ddec_sum_bond_order
 _atom_site_pbe_magmom
Al  Al0  1  0.95446225  0.49999911  0.50000140  1  2.519658  0  0.452881  1.645525  0  2.509419  0
Al  Al1  1  0.95446909  0.16666756  0.83333477  1  2.519631  0  0.452865  1.645433  0  2.509648  0
H  H2  1  0.19624976  0.18620574  0.69561699  1  0.088372  0  0.116028  0.125214  0  0.97169  0
H  H3  1  0.21789651  0.24273774  0.64775032  1  0.093718  0  0.111681  0.116841  0  0.99788  0
H  H4  1  0.69855808  0.37322696  0.78970713  1  0.101242  0  0.116968  0.127423  0  0.975339  0
H  H5  1  0.69852541  0.29343060  0.54362602  1  0.101023  0  0.116946  0.127458  0  0.975444  0
H  H6  1  0.21792817  0.42392772  0.68558312  1  0.093705  0  0.111663  0.116928  0  0.997791  0
H  H7  1  0.19629605  0.48045880  0.63771667  1  0.08847  0  0.116039  0.125198  0  0.971696  0
H  H8  1  0.19626888  0.00941128  0.81378743  1  0.100266  0  0.116022  0.125183  0  0.971705  0
H  H9  1  0.21790934  0.90501122  0.75725050  1  0.086745  0  0.111754  0.116993  0  0.997819  0
H  H10  1  0.69855139  0.91647732  0.62676542  1  0.111297  0  0.116929  0.127393  0  0.975399  0
H  H11  1  0.69853316  0.75019174  0.70656866  1  0.111088  0  0.11695  0.127442  0  0.975402  0
H  H12  1  0.21789511  0.76165531  0.57607844  1  0.086351  0  0.111721  0.116881  0  0.997874  0
H  H13  1  0.19624854  0.65725600  0.51954564  1  0.099805  0  0.116033  0.125192  0  0.9717  0
H  H14  1  0.19627365  0.30438225  0.99059237  1  0.083833  0  0.116026  0.125187  0  0.971675  0
H  H15  1  0.21791737  0.35224571  0.09498931  1  0.088192  0  0.111696  0.116834  0  0.997982  0
H  H16  1  0.69850315  0.21028480  0.08352423  1  0.108735  0  0.11692  0.127424  0  0.975345  0
H  H17  1  0.69852566  0.45638238  0.24981815  1  0.104863  0  0.116974  0.127433  0  0.975429  0
H  H18  1  0.21794016  0.31441768  0.23834126  1  0.088547  0  0.111692  0.116907  0  0.997741  0
H  H19  1  0.19629345  0.36228162  0.34273979  1  0.083626  0  0.116044  0.125212  0  0.971665  0
H  H20  1  0.32439067  0.33437528  0.88555359  1  0.674988  0  0.312889  0.38026  0  0.958733  0
H  H21  1  0.32433691  0.33228448  0.44777972  1  0.674832  0  0.312866  0.380241  0  0.958734  0
H  H22  1  0.32439061  0.05117685  0.66562443  1  0.675082  0  0.312884  0.380316  0  0.958669  0
H  H23  1  0.32439610  0.61548789  0.66771471  1  0.675501  0  0.312913  0.380177  0  0.958877  0
H  H24  1  0.32433334  0.11444092  0.94881984  1  0.675051  0  0.312866  0.380238  0  0.958774  0
H  H25  1  0.32433983  0.55222430  0.38451811  1  0.675264  0  0.312866  0.380233  0  0.958768  0
C  C26  1  0.44988939  0.46062546  0.41585991  1  1.590753  0  0.276968  0.661858  0  4.063012  0
C  C27  1  0.44989570  0.45522797  0.53937400  1  1.584798  0  0.276954  0.661866  0  4.062969  0
C  C28  1  0.44987968  0.58414064  0.54477248  1  1.590585  0  0.276913  0.661697  0  4.063127  0
C  C29  1  0.44988527  0.21143409  0.79396271  1  1.585245  0  0.276891  0.66165  0  4.063155  0
C  C30  1  0.44990367  0.08252621  0.78856737  1  1.591059  0  0.277038  0.662024  0  4.063151  0
C  C31  1  0.44989159  0.20603883  0.91747529  1  1.591311  0  0.277018  0.662026  0  4.062719  0
C  C32  1  0.44657523  0.24703497  0.76800991  1  -0.028511  0  -0.000806  -0.054522  0  3.926352  0
C  C33  1  0.30912147  0.22694403  0.71538135  1  -0.04502  0  -0.070157  -0.066362  0  3.948464  0
C  C34  1  0.32151150  0.25794240  0.68877545  1  0.061768  0  -0.075933  -0.137423  0  3.936608  0
C  C35  1  0.46566625  0.31062574  0.71581460  1  0.225047  0  0.092914  0.174196  0  4.053976  0
C  C36  1  0.59357052  0.33183350  0.76919367  1  0.078405  0  -0.068303  -0.152511  0  3.907423  0
C  C37  1  0.58860812  0.30002620  0.79513077  1  0.050793  0  -0.000341  -0.039708  0  3.960933  0
C  C38  1  0.59356929  0.33482138  0.56413790  1  0.079102  0  -0.068258  -0.152347  0  3.907584  0
C  C39  1  0.46569156  0.35603248  0.61751587  1  0.224243  0  0.092882  0.174178  0  4.0544  0
C  C40  1  0.32155548  0.40871960  0.64455636  1  0.06126  0  -0.075942  -0.137793  0  3.936677  0
C  C41  1  0.30916234  0.43972085  0.61795118  1  -0.045213  0  -0.070154  -0.066106  0  3.948368  0
C  C42  1  0.44657766  0.41962898  0.56532203  1  -0.027978  0  -0.000748  -0.054607  0  3.926398  0
C  C43  1  0.58858246  0.36663437  0.53820520  1  0.050289  0  -0.000483  -0.03995  0  3.960817  0
C  C44  1  0.44659693  0.02097577  0.75296212  1  0.026393  0  -0.000842  -0.05468  0  3.926766  0
C  C45  1  0.30914921  0.98843783  0.77304875  1  -0.124104  0  -0.070166  -0.066168  0  3.948388  0
C  C46  1  0.32153275  0.93083104  0.74204575  1  0.082535  0  -0.076032  -0.137778  0  3.936864  0
C  C47  1  0.46569493  0.90518551  0.68936395  1  0.36733  0  0.09288  0.174123  0  4.054579  0
C  C48  1  0.59359419  0.93735595  0.66815792  1  -0.034309  0  -0.06836  -0.152457  0  3.907514  0
C  C49  1  0.58864069  0.99510367  0.69997416  1  0.048795  0  -0.000212  -0.039609  0  3.960949  0
C  C50  1  0.59355614  0.72931125  0.66517664  1  -0.034041  0  -0.068193  -0.152365  0  3.90753  0
C  C51  1  0.46567577  0.76148214  0.64396662  1  0.366941  0  0.092889  0.174063  0  4.054301  0
C  C52  1  0.32152110  0.73583544  0.59128246  1  0.083204  0  -0.07602  -0.137652  0  3.936511  0
C  C53  1  0.30910965  0.67822997  0.56028320  1  -0.124989  0  -0.070085  -0.066078  0  3.947999  0
C  C54  1  0.44655833  0.64569152  0.58037440  1  0.028887  0  -0.000761  -0.054569  0  3.926121  0
C  C55  1  0.58857461  0.67156558  0.63336699  1  0.047585  0  -0.000458  -0.039742  0  3.960905  0
C  C56  1  0.44655915  0.23198610  0.97902770  1  -0.046306  0  -0.000804  -0.054687  0  3.926146  0
C  C57  1  0.30912469  0.28461775  0.01156655  1  0.00591  0  -0.070155  -0.066191  0  3.948149  0
C  C58  1  0.32152468  0.31122241  0.06917055  1  0.025344  0  -0.075932  -0.13749  0  3.936685  0
C  C59  1  0.46566055  0.28418272  0.09481497  1  0.329425  0  0.092915  0.174259  0  4.054012  0
C  C60  1  0.59352884  0.23079902  0.06264373  1  0.031123  0  -0.068249  -0.152419  0  3.907285  0
C  C61  1  0.58856585  0.20486216  0.00489763  1  -0.013326  0  -0.000402  -0.039858  0  3.960942  0
C  C62  1  0.59356812  0.43586798  0.27069457  1  0.03519  0  -0.068306  -0.152549  0  3.907685  0
C  C63  1  0.46570171  0.38248772  0.23852066  1  0.328442  0  0.092872  0.174168  0  4.05442  0
C  C64  1  0.32156332  0.35544676  0.26416428  1  0.026094  0  -0.075965  -0.137668  0  3.936704  0
C  C65  1  0.30915886  0.38205046  0.32177141  1  0.005108  0  -0.070119  -0.066179  0  3.94841  0
C  C66  1  0.44657246  0.43467777  0.35431081  1  -0.04531  0  -0.000787  -0.054521  0  3.926505  0
C  C67  1  0.58857479  0.46179618  0.32843780  1  -0.013524  0  -0.000444  -0.039754  0  3.960877  0
C  C68  1  0.73500809  0.32450563  0.85194411  1  1.578869  0  0.2526  0.627104  0  4.082818  0
C  C69  1  0.73496300  0.34215245  0.48138852  1  1.578987  0  0.25267  0.627105  0  4.082868  0
C  C70  1  0.73503667  0.02743885  0.67549223  1  1.579176  0  0.252656  0.627223  0  4.083003  0
C  C71  1  0.73499357  0.63923095  0.65784380  1  1.578688  0  0.252638  0.62711  0  4.082622  0
C  C72  1  0.73495406  0.14804823  0.97256370  1  1.586928  0  0.252633  0.627198  0  4.082699  0
C  C73  1  0.73496973  0.51861605  0.36077928  1  1.587152  0  0.252651  0.627081  0  4.082746  0
N  N74  1  0.48027266  0.34594444  0.69297771  1  -0.5377  0  -0.142221  -0.12821  0  3.267429  0
N  N75  1  0.48027047  0.32071728  0.64035717  1  -0.384122  0  -0.142262  -0.128285  0  3.267649  0
N  N76  1  0.48027805  0.84703031  0.65404988  1  -0.433907  0  -0.142274  -0.128343  0  3.267596  0
N  N77  1  0.48027797  0.81963921  0.67928097  1  -0.570154  0  -0.142228  -0.128111  0  3.267566  0
N  N78  1  0.48028212  0.30702325  0.15297341  1  -0.528371  0  -0.142377  -0.12851  0  3.267574  0
N  N79  1  0.48028676  0.35964635  0.18036521  1  -0.387127  0  -0.142113  -0.128031  0  3.267424  0
O  O80  1  0.68881511  0.55954686  0.55086994  1  -1.253636  0  -0.231446  -0.606453  0  2.405108  0
O  O81  1  0.68881426  0.49131883  0.44045454  1  -1.255938  0  -0.231458  -0.606486  0  2.404991  0
O  O82  1  0.68882630  0.44912960  0.50868050  1  -1.254786  0  -0.231464  -0.60651  0  2.40492  0
O  O83  1  0.21963466  0.56105944  0.51121264  1  -1.25562  0  -0.238475  -0.601653  0  2.342377  0
O  O84  1  0.21966348  0.48878742  0.54984986  1  -1.251581  0  -0.238497  -0.601654  0  2.342394  0
O  O85  1  0.21966462  0.45014934  0.43894123  1  -1.25097  0  -0.238496  -0.601686  0  2.342316  0
O  O86  1  0.68884388  0.17535077  0.89288603  1  -1.255972  0  -0.231481  -0.60655  0  2.405  0
O  O87  1  0.68881528  0.21753305  0.82465478  1  -1.254749  0  -0.231425  -0.606346  0  2.405155  0
O  O88  1  0.68883593  0.10711913  0.78246992  1  -1.252933  0  -0.231459  -0.606502  0  2.405121  0
O  O89  1  0.21966333  0.21651755  0.89439366  1  -1.251485  0  -0.238489  -0.601731  0  2.342378  0
O  O90  1  0.21967437  0.10560764  0.82212494  1  -1.256784  0  -0.238547  -0.60179  0  2.342471  0
O  O91  1  0.21963373  0.17787791  0.78348514  1  -1.252073  0  -0.23847  -0.601602  0  2.342398  0
O  O92  1  0.55782425  0.33650831  0.89559010  1  -1.169344  0  -0.324649  -0.466611  0  2.24352  0
O  O93  1  0.02027222  0.33538633  0.85691896  1  -1.167728  0  -0.278578  -0.507765  0  2.266908  0
O  O94  1  0.55776680  0.33015217  0.43774021  1  -1.168392  0  -0.324712  -0.466688  0  2.243314  0
O  O95  1  0.02021171  0.33126408  0.47640875  1  -1.168305  0  -0.278523  -0.507613  0  2.267109  0
O  O96  1  0.55785101  0.05908327  0.66349281  1  -1.170566  0  -0.324687  -0.466756  0  2.243658  0
O  O97  1  0.02029151  0.02152911  0.66460636  1  -1.167564  0  -0.278598  -0.507802  0  2.266866  0
O  O98  1  0.55781100  0.60758476  0.66984796  1  -1.170775  0  -0.324726  -0.46664  0  2.24347  0
O  O99  1  0.02026102  0.64513488  0.66872288  1  -1.167243  0  -0.278562  -0.507691  0  2.266894  0
O  O100  1  0.55776650  0.10440535  0.94091449  1  -1.17394  0  -0.324735  -0.466675  0  2.243354  0
O  O101  1  0.02020553  0.14306863  0.97847313  1  -1.166912  0  -0.278481  -0.507703  0  2.266954  0
O  O102  1  0.55778907  0.56226506  0.39242535  1  -1.174285  0  -0.324745  -0.466728  0  2.243205  0
O  O103  1  0.02023110  0.52359103  0.35487341  1  -1.16705  0  -0.278504  -0.507629  0  2.267132  0
