# generated using pymatgen
data_K2H6C6S2O9
_symmetry_space_group_name_H-M   'P 1'
_cell_length_a   7.31209448
_cell_length_b   11.49225307
_cell_length_c   14.73138319
_cell_angle_alpha   89.99991452
_cell_angle_beta   101.02742023
_cell_angle_gamma   90.00010075
_symmetry_Int_Tables_number   1
_chemical_formula_structural   K2H6C6S2O9
_chemical_formula_sum   'K8 H24 C24 S8 O36'
_cell_volume   1215.05692943
_cell_formula_units_Z   4
loop_
 _symmetry_equiv_pos_site_id
 _symmetry_equiv_pos_as_xyz
  1  'x, y, z'
loop_
 _atom_site_type_symbol
 _atom_site_label
 _atom_site_symmetry_multiplicity
 _atom_site_fract_x
 _atom_site_fract_y
 _atom_site_fract_z
 _atom_site_occupancy
 _atom_site_hle17_bader_spin_density
 _atom_site_hle17_ddec_charge
 _atom_site_hle17_ddec_spin_density
 _atom_site_hle17_ddec_sum_bond_order
 _atom_site_hle17_magmom
 _atom_site_hse06_10hf_bader_spin_density
 _atom_site_hse06_10hf_ddec_charge
 _atom_site_hse06_10hf_ddec_spin_density
 _atom_site_hse06_10hf_ddec_sum_bond_order
 _atom_site_hse06_10hf_magmom
 _atom_site_hse06_bader_spin_density
 _atom_site_hse06_ddec_charge
 _atom_site_hse06_ddec_spin_density
 _atom_site_hse06_ddec_sum_bond_order
 _atom_site_hse06_magmom
 _atom_site_pbe_bader_spin_density
 _atom_site_pbe_cm5_charge
 _atom_site_pbe_ddec_charge
 _atom_site_pbe_ddec_spin_density
 _atom_site_pbe_ddec_sum_bond_order
 _atom_site_pbe_magmom
K  K0  1  0.65624365  0.13297817  0.49921085  1  0  0.937436  0  0.466732  0  0  0.892763  0  0.651984  0  0  0.906193  0  0.629333  0  0  0.81119  0.882463  0  0.668428  0
K  K1  1  0.34375772  0.63298747  0.00079138  1  0  0.937406  0  0.466772  0  0  0.892783  0  0.651933  0  0  0.906222  0  0.629275  0  0  0.811203  0.882493  0  0.668375  0
K  K2  1  0.34376069  0.86702030  0.50079060  1  0  0.937421  0  0.466755  0  0  0.892775  0  0.651945  0  0  0.906208  0  0.629292  0  0  0.811196  0.882476  0  0.668388  0
K  K3  1  0.65623685  0.36701709  0.99920848  1  0  0.937417  0  0.466767  0  0  0.892777  0  0.651978  0  0  0.906212  0  0.629318  0  0  0.8112  0.882483  0  0.668422  0
K  K4  1  0.92939385  0.02554877  0.27945340  1  0  0.937784  0  0.476118  0  0  0.896839  0  0.654075  0  0  0.908626  0  0.633106  0  0  0.81255  0.887549  0  0.669634  0
K  K5  1  0.07061002  0.52554778  0.22054511  1  0  0.93778  0  0.476106  0  0  0.896843  0  0.654068  0  0  0.90863  0  0.633094  0  0  0.812556  0.887553  0  0.669627  0
K  K6  1  0.07060628  0.97445231  0.72054426  1  0  0.937774  0  0.476132  0  0  0.896858  0  0.654063  0  0  0.908644  0  0.633089  0  0  0.812548  0.887554  0  0.669632  0
K  K7  1  0.92938317  0.47445156  0.77945665  1  0  0.937795  0  0.476095  0  0  0.896846  0  0.654064  0  0  0.908634  0  0.633093  0  0  0.812559  0.887554  0  0.669626  0
H  H8  1  0.03558181  0.30455526  0.37762289  1  0  0.397749  0  0.88455  0  0  0.374542  0  0.951728  0  0  0.385611  0  0.938932  0  0  0.317131  0.366722  0  0.960753  0
H  H9  1  0.96442134  0.80455545  0.12237658  1  0  0.397783  0  0.884552  0  0  0.374567  0  0.95174  0  0  0.385637  0  0.93894  0  0  0.317141  0.366746  0  0.960762  0
H  H10  1  0.96442112  0.69544408  0.62237706  1  0  0.397767  0  0.884518  0  0  0.374553  0  0.951713  0  0  0.385623  0  0.938913  0  0  0.31714  0.366731  0  0.960736  0
H  H11  1  0.03558019  0.19544389  0.87762324  1  0  0.397756  0  0.88461  0  0  0.374544  0  0.951791  0  0  0.385613  0  0.938996  0  0  0.317142  0.366722  0  0.960814  0
H  H12  1  0.48803680  0.65945781  0.65277342  1  0  0.399792  0  0.873887  0  0  0.376349  0  0.940206  0  0  0.387207  0  0.928191  0  0  0.315852  0.368631  0  0.948768  0
H  H13  1  0.51196301  0.15945646  0.84722407  1  0  0.399765  0  0.873972  0  0  0.376333  0  0.94027  0  0  0.387192  0  0.928257  0  0  0.315836  0.368615  0  0.948833  0
H  H14  1  0.51196334  0.34054327  0.34722559  1  0  0.399751  0  0.873921  0  0  0.376306  0  0.94024  0  0  0.387163  0  0.928228  0  0  0.315838  0.368589  0  0.948801  0
H  H15  1  0.48803434  0.84054201  0.15277537  1  0  0.399723  0  0.87397  0  0  0.376272  0  0.940305  0  0  0.38713  0  0.92829  0  0  0.315818  0.368553  0  0.948867  0
H  H16  1  0.75830373  0.28473900  0.20377018  1  0  0.426884  0  0.863012  0  0  0.403838  0  0.913523  0  0  0.4134  0  0.899377  0  0  0.301153  0.396997  0  0.923662  0
H  H17  1  0.24169521  0.78473979  0.29623028  1  0  0.426889  0  0.863004  0  0  0.403844  0  0.913516  0  0  0.413406  0  0.899369  0  0  0.301163  0.397002  0  0.923654  0
H  H18  1  0.24169501  0.71526121  0.79622803  1  0  0.42686  0  0.863036  0  0  0.403803  0  0.913566  0  0  0.413366  0  0.89942  0  0  0.301126  0.396963  0  0.923701  0
H  H19  1  0.75830494  0.21526041  0.70377077  1  0  0.426896  0  0.862998  0  0  0.403851  0  0.913505  0  0  0.413414  0  0.899359  0  0  0.301157  0.397009  0  0.923644  0
H  H20  1  0.92141195  0.26271299  0.15353440  1  0  0.406939  0  0.904184  0  0  0.380764  0  0.962188  0  0  0.390087  0  0.948472  0  0  0.288383  0.374194  0  0.971853  0
H  H21  1  0.07858554  0.76271264  0.34646528  1  0  0.406918  0  0.904218  0  0  0.380743  0  0.962223  0  0  0.390068  0  0.948504  0  0  0.288382  0.374172  0  0.971889  0
H  H22  1  0.07858540  0.73728808  0.84646436  1  0  0.406928  0  0.904205  0  0  0.380753  0  0.962211  0  0  0.390078  0  0.948491  0  0  0.288389  0.374183  0  0.971877  0
H  H23  1  0.92141322  0.23728844  0.65353497  1  0  0.406934  0  0.904191  0  0  0.380756  0  0.962201  0  0  0.39008  0  0.948482  0  0  0.288385  0.374184  0  0.971869  0
H  H24  1  0.23569341  0.58349714  0.43112637  1  0  0.141003  0  0.959273  0  0  0.149221  0  1.02321  0  0  0.153897  0  1.020955  0  0  0.115969  0.145869  0  1.025126  0
H  H25  1  0.76430781  0.08349574  0.06887115  1  0  0.141056  0  0.959316  0  0  0.149256  0  1.023248  0  0  0.153935  0  1.02099  0  0  0.115969  0.145885  0  1.025182  0
H  H26  1  0.76430672  0.41650307  0.56887197  1  0  0.141053  0  0.959307  0  0  0.14925  0  1.023241  0  0  0.15393  0  1.020979  0  0  0.11596  0.145878  0  1.025176  0
H  H27  1  0.23569234  0.91650447  0.93112854  1  0  0.141039  0  0.959345  0  0  0.149232  0  1.023276  0  0  0.15391  0  1.021019  0  0  0.11596  0.145862  0  1.02521  0
H  H28  1  0.31473270  0.28506983  0.68056156  1  0  0.128371  0  0.939898  0  0  0.137083  0  1.000821  0  0  0.141161  0  0.996645  0  0  0.121945  0.134058  0  1.003926  0
H  H29  1  0.68527022  0.78506759  0.81943879  1  0  0.128363  0  0.939887  0  0  0.137045  0  1.000851  0  0  0.141122  0  0.996675  0  0  0.121931  0.134024  0  1.003959  0
H  H30  1  0.68526605  0.71493125  0.31943868  1  0  0.128388  0  0.939863  0  0  0.137067  0  1.000832  0  0  0.141144  0  0.996657  0  0  0.121951  0.134044  0  1.003937  0
H  H31  1  0.31472993  0.21493088  0.18056158  1  0  0.128396  0  0.939869  0  0  0.137074  0  1.000833  0  0  0.141151  0  0.996658  0  0  0.121949  0.134053  0  1.00394  0
C  C32  1  0.20387666  0.32131867  0.53679987  1  0  -0.303353  0  3.738275  0  0  -0.283103  0  3.999845  0  0  -0.297825  0  4.019279  0  0  -0.044323  -0.273708  0  3.987022  0
C  C33  1  0.79612077  0.82131715  0.96319993  1  0  -0.303193  0  3.738296  0  0  -0.282935  0  3.999821  0  0  -0.297652  0  4.019253  0  0  -0.044267  -0.273543  0  3.98701  0
C  C34  1  0.79612208  0.67868241  0.46319969  1  0  -0.303276  0  3.738302  0  0  -0.283006  0  3.999816  0  0  -0.297738  0  4.019271  0  0  -0.044259  -0.27361  0  3.986998  0
C  C35  1  0.20387520  0.17867958  0.03680074  1  0  -0.303318  0  3.738304  0  0  -0.283089  0  3.999871  0  0  -0.297812  0  4.019308  0  0  -0.044298  -0.273697  0  3.987054  0
C  C36  1  0.17767763  0.40682676  0.46603723  1  0  0.384631  0  3.819729  0  0  0.365212  0  4.089327  0  0  0.383552  0  4.101741  0  0  0.09864  0.353008  0  4.08065  0
C  C37  1  0.82231881  0.90682348  0.03396150  1  0  0.384548  0  3.819715  0  0  0.365137  0  4.089277  0  0  0.383473  0  4.101695  0  0  0.098656  0.352934  0  4.080596  0
C  C38  1  0.82232669  0.59317345  0.53396217  1  0  0.384613  0  3.819778  0  0  0.365195  0  4.089348  0  0  0.383536  0  4.101763  0  0  0.098627  0.352992  0  4.080664  0
C  C39  1  0.17767716  0.09317499  0.96603917  1  0  0.384676  0  3.819754  0  0  0.365266  0  4.089297  0  0  0.383604  0  4.101718  0  0  0.098676  0.353064  0  4.080612  0
C  C40  1  0.24917665  0.51842717  0.48598439  1  0  -0.307829  0  3.65975  0  0  -0.333818  0  3.919389  0  0  -0.346777  0  3.936328  0  0  -0.112544  -0.325462  0  3.908311  0
C  C41  1  0.75081605  0.01842673  0.01401309  1  0  -0.30797  0  3.659854  0  0  -0.333876  0  3.919465  0  0  -0.346837  0  3.936402  0  0  -0.112568  -0.325502  0  3.908402  0
C  C42  1  0.75082070  0.48157216  0.51401369  1  0  -0.308004  0  3.659876  0  0  -0.333903  0  3.919495  0  0  -0.346861  0  3.936427  0  0  -0.112551  -0.325526  0  3.908424  0
C  C43  1  0.24917852  0.98157174  0.98598609  1  0  -0.307998  0  3.659878  0  0  -0.33387  0  3.919462  0  0  -0.346829  0  3.9364  0  0  -0.112537  -0.325497  0  3.908397  0
C  C44  1  0.34025618  0.54783478  0.57491121  1  0  0.384491  0  3.813752  0  0  0.364247  0  4.083622  0  0  0.382534  0  4.095751  0  0  0.099049  0.352061  0  4.075221  0
C  C45  1  0.65974753  0.04783084  0.92508610  1  0  0.384657  0  3.813702  0  0  0.364278  0  4.083702  0  0  0.382565  0  4.095841  0  0  0.099025  0.352087  0  4.075304  0
C  C46  1  0.65974535  0.45216630  0.42508726  1  0  0.384677  0  3.813697  0  0  0.364279  0  4.083734  0  0  0.382565  0  4.095865  0  0  0.099059  0.352093  0  4.075323  0
C  C47  1  0.34025123  0.95216676  0.07491483  1  0  0.384665  0  3.813579  0  0  0.364262  0  4.083609  0  0  0.382547  0  4.095743  0  0  0.099026  0.352074  0  4.075206  0
C  C48  1  0.35867611  0.46384423  0.64679808  1  0  -0.289162  0  3.741666  0  0  -0.270773  0  4.00634  0  0  -0.284962  0  4.025498  0  0  -0.041643  -0.261757  0  3.993647  0
C  C49  1  0.64132028  0.96384536  0.85320281  1  0  -0.289177  0  3.741652  0  0  -0.270736  0  4.00634  0  0  -0.284927  0  4.025504  0  0  -0.041599  -0.261711  0  3.993638  0
C  C50  1  0.64132264  0.53615685  0.35320216  1  0  -0.289218  0  3.741681  0  0  -0.270763  0  4.00636  0  0  -0.284949  0  4.025516  0  0  -0.041617  -0.261742  0  3.993665  0
C  C51  1  0.35867709  0.03615485  0.14679798  1  0  -0.289213  0  3.741666  0  0  -0.270763  0  4.006343  0  0  -0.284951  0  4.025503  0  0  -0.04162  -0.261744  0  3.993654  0
C  C52  1  0.29357431  0.35120746  0.62638808  1  0  -0.004614  0  3.754199  0  0  -0.042621  0  4.009242  0  0  -0.03224  0  4.022609  0  0  -0.068684  -0.049054  0  4.000115  0
C  C53  1  0.70642319  0.85120428  0.87361101  1  0  -0.004695  0  3.75428  0  0  -0.042698  0  4.009332  0  0  -0.032317  0  4.0227  0  0  -0.06871  -0.049136  0  4.000217  0
C  C54  1  0.70642723  0.64879449  0.37361175  1  0  -0.004657  0  3.754299  0  0  -0.042663  0  4.009339  0  0  -0.032279  0  4.022707  0  0  -0.068725  -0.049099  0  4.000216  0
C  C55  1  0.29357417  0.14879419  0.12638910  1  0  -0.004667  0  3.754265  0  0  -0.042654  0  4.00931  0  0  -0.032272  0  4.022678  0  0  -0.068697  -0.049091  0  4.000193  0
S  S56  1  0.45585997  0.50498754  0.76207355  1  0  1.320121  0  5.684747  0  0  1.226662  0  6.209883  0  0  1.275245  0  6.184526  0  0  0.493374  1.193208  0  6.226368  0
S  S57  1  0.54413665  0.00497252  0.73792043  1  0  1.320209  0  5.684733  0  0  1.226783  0  6.209824  0  0  1.275362  0  6.184476  0  0  0.49345  1.193321  0  6.226321  0
S  S58  1  0.54413736  0.49501876  0.23792317  1  0  1.320226  0  5.684863  0  0  1.226756  0  6.209991  0  0  1.275337  0  6.184644  0  0  0.493422  1.193298  0  6.226476  0
S  S59  1  0.45586209  0.99502160  0.26207845  1  0  1.320346  0  5.684743  0  0  1.226886  0  6.209859  0  0  1.275468  0  6.184507  0  0  0.493466  1.193428  0  6.226354  0
S  S60  1  0.13204941  0.17577104  0.51408715  1  0  1.367341  0  5.637205  0  0  1.272138  0  6.160218  0  0  1.320673  0  6.134016  0  0  0.508182  1.23863  0  6.177479  0
S  S61  1  0.86795604  0.67577043  0.98591492  1  0  1.367431  0  5.637058  0  0  1.272222  0  6.160083  0  0  1.320759  0  6.133883  0  0  0.508175  1.23872  0  6.17734  0
S  S62  1  0.86795354  0.82422830  0.48591484  1  0  1.367357  0  5.637176  0  0  1.272139  0  6.160207  0  0  1.320678  0  6.134005  0  0  0.508121  1.238634  0  6.177462  0
S  S63  1  0.13204690  0.32422891  0.01408708  1  0  1.367463  0  5.637059  0  0  1.272272  0  6.160058  0  0  1.320808  0  6.133859  0  0  0.508208  1.238769  0  6.177315  0
O  O64  1  0.99885249  0.17922959  0.42413091  1  0  -0.740917  0  1.991059  0  0  -0.691402  0  2.24105  0  0  -0.710999  0  2.223391  0  0  -0.425132  -0.677487  0  2.252873  0
O  O65  1  0.00116150  0.67923227  0.07586836  1  0  -0.741  0  1.991062  0  0  -0.691497  0  2.241068  0  0  -0.711082  0  2.223373  0  0  -0.425119  -0.677576  0  2.252888  0
O  O66  1  0.00115740  0.82076801  0.57586833  1  0  -0.740964  0  1.991088  0  0  -0.691451  0  2.241079  0  0  -0.71104  0  2.223397  0  0  -0.42511  -0.677527  0  2.252897  0
O  O67  1  0.99884282  0.32076968  0.92413105  1  0  -0.740994  0  1.991023  0  0  -0.691483  0  2.241019  0  0  -0.711076  0  2.223342  0  0  -0.425126  -0.677562  0  2.252838  0
O  O68  1  0.03616789  0.13927850  0.58891916  1  0  -0.750585  0  2.035658  0  0  -0.699374  0  2.295191  0  0  -0.72063  0  2.279322  0  0  -0.45065  -0.684262  0  2.305773  0
O  O69  1  0.96383050  0.63927901  0.91108162  1  0  -0.750583  0  2.035636  0  0  -0.699373  0  2.295169  0  0  -0.72063  0  2.279297  0  0  -0.450643  -0.684262  0  2.305754  0
O  O70  1  0.96383087  0.86072432  0.41108177  1  0  -0.7506  0  2.035654  0  0  -0.699388  0  2.295184  0  0  -0.720644  0  2.279312  0  0  -0.450634  -0.684275  0  2.305763  0
O  O71  1  0.03616546  0.36072032  0.08891769  1  0  -0.750606  0  2.035681  0  0  -0.699395  0  2.29521  0  0  -0.720652  0  2.279342  0  0  -0.450648  -0.684284  0  2.305794  0
O  O72  1  0.29625334  0.10453358  0.51046675  1  0  -0.73091  0  1.974013  0  0  -0.690335  0  2.2391  0  0  -0.710834  0  2.222925  0  0  -0.459046  -0.675769  0  2.249858  0
O  O73  1  0.70375336  0.60453017  0.98953959  1  0  -0.730908  0  1.973918  0  0  -0.690306  0  2.238929  0  0  -0.71081  0  2.222753  0  0  -0.459024  -0.675741  0  2.249684  0
O  O74  1  0.70375382  0.89546663  0.48953971  1  0  -0.730902  0  1.974018  0  0  -0.690298  0  2.239048  0  0  -0.710796  0  2.222868  0  0  -0.459032  -0.675732  0  2.249803  0
O  O75  1  0.29624821  0.39546830  0.01046499  1  0  -0.730912  0  1.973952  0  0  -0.690341  0  2.239029  0  0  -0.710845  0  2.222854  0  0  -0.459036  -0.675777  0  2.249784  0
O  O76  1  0.58947104  0.59911973  0.75127272  1  0  -0.699351  0  1.972324  0  0  -0.64984  0  2.217042  0  0  -0.670317  0  2.201406  0  0  -0.380851  -0.635329  0  2.227436  0
O  O77  1  0.41052583  0.09912107  0.74872457  1  0  -0.699477  0  1.971736  0  0  -0.649998  0  2.216452  0  0  -0.670473  0  2.200803  0  0  -0.380913  -0.635492  0  2.22685  0
O  O78  1  0.41052492  0.40088135  0.24872591  1  0  -0.699449  0  1.972124  0  0  -0.649918  0  2.216842  0  0  -0.670385  0  2.201181  0  0  -0.380891  -0.635408  0  2.22724  0
O  O79  1  0.58947570  0.90088088  0.25127526  1  0  -0.699479  0  1.971946  0  0  -0.649953  0  2.216658  0  0  -0.670421  0  2.201001  0  0  -0.380894  -0.635444  0  2.22706  0
O  O80  1  0.54648455  0.40287441  0.81009061  1  0  -0.688127  0  1.930781  0  0  -0.645111  0  2.179054  0  0  -0.665392  0  2.1647  0  0  -0.407297  -0.630733  0  2.1885  0
O  O81  1  0.45352840  0.90287738  0.68991054  1  0  -0.687955  0  1.931538  0  0  -0.644937  0  2.179809  0  0  -0.665211  0  2.165452  0  0  -0.407191  -0.630568  0  2.189264  0
O  O82  1  0.45352116  0.59712406  0.18990960  1  0  -0.688026  0  1.931222  0  0  -0.645017  0  2.179518  0  0  -0.665296  0  2.165169  0  0  -0.407216  -0.630643  0  2.188962  0
O  O83  1  0.54647593  0.09712283  0.31009091  1  0  -0.688097  0  1.931396  0  0  -0.645076  0  2.179668  0  0  -0.665352  0  2.165315  0  0  -0.407246  -0.630702  0  2.189117  0
O  O84  1  0.30083103  0.54998381  0.80339771  1  0  -0.745109  0  1.979802  0  0  -0.696075  0  2.231496  0  0  -0.717114  0  2.215471  0  0  -0.414162  -0.681076  0  2.24212  0
O  O85  1  0.69917828  0.04998644  0.69660283  1  0  -0.745227  0  1.979725  0  0  -0.696211  0  2.231427  0  0  -0.717251  0  2.215405  0  0  -0.414286  -0.681215  0  2.242056  0
O  O86  1  0.69917329  0.45001379  0.19660237  1  0  -0.745173  0  1.979678  0  0  -0.69616  0  2.231413  0  0  -0.7172  0  2.21539  0  0  -0.414243  -0.681162  0  2.24204  0
O  O87  1  0.30082604  0.95001377  0.30339725  1  0  -0.745221  0  1.979699  0  0  -0.696196  0  2.231398  0  0  -0.717233  0  2.215373  0  0  -0.414264  -0.681199  0  2.242025  0
O  O88  1  0.08707498  0.38557682  0.37851861  1  0  -0.546629  0  2.116048  0  0  -0.501611  0  2.333326  0  0  -0.519783  0  2.322122  0  0  -0.392924  -0.48861  0  2.340642  0
O  O89  1  0.91292280  0.88557609  0.12148027  1  0  -0.546669  0  2.116121  0  0  -0.501636  0  2.333369  0  0  -0.519815  0  2.322179  0  0  -0.392963  -0.488635  0  2.340682  0
O  O90  1  0.91292516  0.61442165  0.62148040  1  0  -0.546675  0  2.116159  0  0  -0.501655  0  2.333432  0  0  -0.51983  0  2.322233  0  0  -0.392954  -0.488651  0  2.340743  0
O  O91  1  0.08707317  0.11442325  0.87851972  1  0  -0.546662  0  2.116087  0  0  -0.501656  0  2.333382  0  0  -0.519819  0  2.322151  0  0  -0.392981  -0.488653  0  2.340693  0
O  O92  1  0.40826168  0.65724677  0.58901667  1  0  -0.549606  0  2.120127  0  0  -0.501254  0  2.338961  0  0  -0.51976  0  2.328067  0  0  -0.40548  -0.488129  0  2.346225  0
O  O93  1  0.59173116  0.15724800  0.91098017  1  0  -0.549641  0  2.11997  0  0  -0.5013  0  2.338934  0  0  -0.519778  0  2.327966  0  0  -0.405502  -0.488172  0  2.346199  0
O  O94  1  0.59173567  0.34275431  0.41098140  1  0  -0.549609  0  2.120085  0  0  -0.50123  0  2.339009  0  0  -0.519727  0  2.328096  0  0  -0.405463  -0.4881  0  2.346265  0
O  O95  1  0.40826480  0.84275134  0.08901914  1  0  -0.549612  0  2.11999  0  0  -0.501237  0  2.338911  0  0  -0.519742  0  2.328009  0  0  -0.405488  -0.488112  0  2.346174  0
O  O96  1  0.83057497  0.22117102  0.18325933  1  0  -0.876324  0  1.766064  0  0  -0.834328  0  1.911183  0  0  -0.851566  0  1.883377  0  0  -0.680698  -0.821999  0  1.930796  0
O  O97  1  0.16942242  0.72117082  0.31674038  1  0  -0.876305  0  1.766109  0  0  -0.83432  0  1.911234  0  0  -0.85156  0  1.883425  0  0  -0.680707  -0.821996  0  1.930852  0
O  O98  1  0.16942239  0.77883006  0.81674078  1  0  -0.876286  0  1.766119  0  0  -0.834296  0  1.91125  0  0  -0.851535  0  1.883442  0  0  -0.680665  -0.821962  0  1.930861  0
O  O99  1  0.83057494  0.27882938  0.68325973  1  0  -0.876338  0  1.766085  0  0  -0.834334  0  1.911205  0  0  -0.851575  0  1.883395  0  0  -0.680709  -0.822009  0  1.930822  0
