# generated using pymatgen
data_Na2H7C4SN2ClO4
_symmetry_space_group_name_H-M   'P 1'
_cell_length_a   6.54963396
_cell_length_b   8.68227025
_cell_length_c   9.97859686
_cell_angle_alpha   115.78201799
_cell_angle_beta   109.12708235
_cell_angle_gamma   90.02002421
_symmetry_Int_Tables_number   1
_chemical_formula_structural   Na2H7C4SN2ClO4
_chemical_formula_sum   'Na4 H14 C8 S2 N4 Cl2 O8'
_cell_volume   475.89090957
_cell_formula_units_Z   2
loop_
 _symmetry_equiv_pos_site_id
 _symmetry_equiv_pos_as_xyz
  1  'x, y, z'
loop_
 _atom_site_type_symbol
 _atom_site_label
 _atom_site_symmetry_multiplicity
 _atom_site_fract_x
 _atom_site_fract_y
 _atom_site_fract_z
 _atom_site_occupancy
 _atom_site_hle17_bader_spin_density
 _atom_site_hle17_ddec_charge
 _atom_site_hle17_ddec_spin_density
 _atom_site_hle17_ddec_sum_bond_order
 _atom_site_hle17_magmom
 _atom_site_hse06_10hf_bader_spin_density
 _atom_site_hse06_10hf_ddec_charge
 _atom_site_hse06_10hf_ddec_spin_density
 _atom_site_hse06_10hf_ddec_sum_bond_order
 _atom_site_hse06_10hf_magmom
 _atom_site_hse06_bader_spin_density
 _atom_site_hse06_ddec_charge
 _atom_site_hse06_ddec_spin_density
 _atom_site_hse06_ddec_sum_bond_order
 _atom_site_hse06_magmom
 _atom_site_pbe_bader_spin_density
 _atom_site_pbe_cm5_charge
 _atom_site_pbe_ddec_charge
 _atom_site_pbe_ddec_spin_density
 _atom_site_pbe_ddec_sum_bond_order
 _atom_site_pbe_magmom
Na  Na0  1  0.75216575  0.25241449  0.50465836  1  0  0.887096  0  0.402757  0  0  0.836908  0  0.564976  0  0  0.846076  0  0.545181  0  0  0.588398  0.830461  0  0.578796  0
Na  Na1  1  0.74781061  0.74771997  0.49532995  1  0  0.887118  0  0.402374  0  0  0.837009  0  0.564435  0  0  0.846185  0  0.544625  0  0  0.588309  0.830308  0  0.578659  0
Na  Na2  1  0.24786491  0.74758791  0.49537208  1  0  0.887066  0  0.402783  0  0  0.836883  0  0.565018  0  0  0.846049  0  0.545219  0  0  0.588322  0.830435  0  0.578839  0
Na  Na3  1  0.25220061  0.25226726  0.50464340  1  0  0.887166  0  0.402305  0  0  0.837047  0  0.564383  0  0  0.84623  0  0.544586  0  0  0.588356  0.83035  0  0.578605  0
H  H4  1  0.75010572  0.73171701  0.99997074  1  0  0.160412  0  0.941383  0  0  0.174471  0  0.994157  0  0  0.178518  0  0.994042  0  0  0.10818  0.171662  0  0.994421  0
H  H5  1  0.24991749  0.26828839  0.00001014  1  0  0.160584  0  0.941592  0  0  0.174612  0  0.994326  0  0  0.178659  0  0.994208  0  0  0.108285  0.171801  0  0.994597  0
H  H6  1  0.62763402  0.18458613  0.75537237  1  0  0.310584  0  0.912312  0  0  0.289724  0  0.981529  0  0  0.298664  0  0.974136  0  0  0.298648  0.283421  0  0.98685  0
H  H7  1  0.87237650  0.42931848  0.24471097  1  0  0.310419  0  0.912757  0  0  0.289386  0  0.982163  0  0  0.298313  0  0.974799  0  0  0.298623  0.283345  0  0.986977  0
H  H8  1  0.37232094  0.81540997  0.24463136  1  0  0.310747  0  0.912143  0  0  0.289797  0  0.981403  0  0  0.298771  0  0.973984  0  0  0.298679  0.283495  0  0.986737  0
H  H9  1  0.12763569  0.57069583  0.75529501  1  0  0.310733  0  0.912631  0  0  0.289617  0  0.982152  0  0  0.298543  0  0.974786  0  0  0.298765  0.283574  0  0.986963  0
H  H10  1  0.40206172  0.36836929  0.30416568  1  0  0.428686  0  0.871488  0  0  0.40035  0  0.930905  0  0  0.411249  0  0.914951  0  0  0.289439  0.392674  0  0.942102  0
H  H11  1  0.09800683  0.06409346  0.69581437  1  0  0.42851  0  0.871795  0  0  0.399889  0  0.931646  0  0  0.410787  0  0.9157  0  0  0.289058  0.392138  0  0.942991  0
H  H12  1  0.59795437  0.63162550  0.69583968  1  0  0.428527  0  0.871669  0  0  0.400205  0  0.93105  0  0  0.4111  0  0.915103  0  0  0.289336  0.392528  0  0.942248  0
H  H13  1  0.90200579  0.93590778  0.30419872  1  0  0.428568  0  0.871694  0  0  0.399901  0  0.931615  0  0  0.410795  0  0.915676  0  0  0.289067  0.39215  0  0.942959  0
H  H14  1  0.36610221  0.16154338  0.23229062  1  0  0.383779  0  0.933339  0  0  0.353801  0  0.999205  0  0  0.363345  0  0.985165  0  0  0.262379  0.34696  0  1.009297  0
H  H15  1  0.13388815  0.92914069  0.76767354  1  0  0.38333  0  0.93378  0  0  0.353483  0  0.999454  0  0  0.362948  0  0.985533  0  0  0.262303  0.346686  0  1.009475  0
H  H16  1  0.63393115  0.83845663  0.76771243  1  0  0.383789  0  0.933361  0  0  0.353797  0  0.999237  0  0  0.363341  0  0.9852  0  0  0.262361  0.346957  0  1.009329  0
H  H17  1  0.86609566  0.07086181  0.23234386  1  0  0.383311  0  0.933808  0  0  0.353462  0  0.999501  0  0  0.36293  0  0.985575  0  0  0.262303  0.346667  0  1.009521  0
C  C18  1  0.75003540  0.28161802  0.00003839  1  0  0.481496  0  3.81839  0  0  0.433416  0  4.121795  0  0  0.461176  0  4.129324  0  0  0.2463  0.415072  0  4.115783  0
C  C19  1  0.24992044  0.71838966  0.99998400  1  0  0.481475  0  3.818336  0  0  0.433357  0  4.12181  0  0  0.461114  0  4.12935  0  0  0.246336  0.415005  0  4.115788  0
C  C20  1  0.67714989  0.45368687  0.85431380  1  0  0.605776  0  3.884813  0  0  0.561164  0  4.173871  0  0  0.591705  0  4.175512  0  0  0.209574  0.540874  0  4.172404  0
C  C21  1  0.82287840  0.59936536  0.14563245  1  0  0.607355  0  3.88411  0  0  0.562603  0  4.173361  0  0  0.593092  0  4.175049  0  0  0.209236  0.542433  0  4.171536  0
C  C22  1  0.32287425  0.54630034  0.14566231  1  0  0.6056  0  3.884685  0  0  0.56094  0  4.173742  0  0  0.591471  0  4.175416  0  0  0.209515  0.540654  0  4.172262  0
C  C23  1  0.17707454  0.40064394  0.85434885  1  0  0.607515  0  3.883095  0  0  0.562517  0  4.172787  0  0  0.593008  0  4.174469  0  0  0.20921  0.542337  0  4.170964  0
C  C24  1  0.75003639  0.60662891  0.99999710  1  0  -0.487179  0  3.65534  0  0  -0.512872  0  3.929187  0  0  -0.536896  0  3.946428  0  0  -0.153115  -0.497407  0  3.917949  0
C  C25  1  0.24995595  0.39336064  0.00001217  1  0  -0.487304  0  3.655037  0  0  -0.512881  0  3.928994  0  0  -0.536904  0  3.946233  0  0  -0.153252  -0.497424  0  3.917772  0
S  S26  1  0.75016651  0.08864304  0.00000419  1  0  -0.447176  0  1.961629  0  0  -0.426882  0  2.278452  0  0  -0.442008  0  2.270416  0  0  -0.150583  -0.415959  0  2.283951  0
S  S27  1  0.24983889  0.91136396  0.00000512  1  0  -0.447141  0  1.961574  0  0  -0.426871  0  2.278437  0  0  -0.441999  0  2.270401  0  0  -0.150568  -0.415939  0  2.283941  0
N  N28  1  0.68136033  0.29681318  0.86281421  1  0  -0.464353  0  3.326322  0  0  -0.397439  0  3.557963  0  0  -0.421025  0  3.563849  0  0  -0.382699  -0.38174  0  3.553691  0
N  N29  1  0.81859559  0.43402640  0.13719925  1  0  -0.465107  0  3.328064  0  0  -0.39813  0  3.560097  0  0  -0.421787  0  3.566002  0  0  -0.383579  -0.382475  0  3.555521  0
N  N30  1  0.31857097  0.70318564  0.13717446  1  0  -0.464372  0  3.326662  0  0  -0.397176  0  3.558109  0  0  -0.420799  0  3.563942  0  0  -0.38262  -0.381512  0  3.553901  0
N  N31  1  0.18136699  0.56597511  0.86277914  1  0  -0.465514  0  3.327614  0  0  -0.398435  0  3.559849  0  0  -0.42206  0  3.565667  0  0  -0.383731  -0.382773  0  3.555288  0
Cl  Cl32  1  0.49999711  0.99999291  0.49999821  1  0  -0.770262  0  0.753642  0  0  -0.722625  0  0.991932  0  0  -0.731019  0  0.96738  0  0  -0.392614  -0.716538  0  1.009753  0
Cl  Cl33  1  0.00001185  0.49999914  0.49999903  1  0  -0.770253  0  0.754867  0  0  -0.722607  0  0.993746  0  0  -0.730975  0  0.969161  0  0  -0.392526  -0.716574  0  1.010353  0
O  O34  1  0.60722414  0.44287684  0.71459202  1  0  -0.690621  0  1.953575  0  0  -0.63477  0  2.186993  0  0  -0.656283  0  2.17589  0  0  -0.385277  -0.619781  0  2.193827  0
O  O35  1  0.89282803  0.72832692  0.28536945  1  0  -0.691997  0  1.952792  0  0  -0.636147  0  2.186281  0  0  -0.657683  0  2.175152  0  0  -0.385003  -0.620978  0  2.193344  0
O  O36  1  0.39284004  0.55710113  0.28540119  1  0  -0.690772  0  1.952961  0  0  -0.634934  0  2.1865  0  0  -0.65641  0  2.175303  0  0  -0.385307  -0.619932  0  2.19332  0
O  O37  1  0.10718792  0.27168229  0.71462236  1  0  -0.692037  0  1.952986  0  0  -0.636077  0  2.186546  0  0  -0.657626  0  2.175447  0  0  -0.384965  -0.62091  0  2.193613  0
O  O38  1  0.41631087  0.27116697  0.33286078  1  0  -0.929668  0  1.827456  0  0  -0.882548  0  1.999638  0  0  -0.898596  0  1.967273  0  0  -0.709118  -0.871406  0  2.022564  0
O  O39  1  0.08377235  0.93819339  0.66710396  1  0  -0.928147  0  1.827616  0  0  -0.880764  0  1.999516  0  0  -0.896767  0  1.96725  0  0  -0.708505  -0.869681  0  2.022688  0
O  O40  1  0.58369458  0.72884602  0.66714726  1  0  -0.929532  0  1.827642  0  0  -0.882396  0  1.999872  0  0  -0.898429  0  1.967485  0  0  -0.708979  -0.871253  0  2.022796  0
O  O41  1  0.91623303  0.06181173  0.33291107  1  0  -0.928206  0  1.827546  0  0  -0.880787  0  1.999445  0  0  -0.896802  0  1.967213  0  0  -0.708546  -0.869706  0  2.022612  0
