# generated using pymatgen
data_ZnH12C26N3(ClO)4
_symmetry_space_group_name_H-M   'P 1'
_cell_length_a   18.76411109
_cell_length_b   19.38636332
_cell_length_c   19.60138525
_cell_angle_alpha   91.62466658
_cell_angle_beta   89.82984119
_cell_angle_gamma   90.22629874
_symmetry_Int_Tables_number   1
_chemical_formula_structural   ZnH12C26N3(ClO)4
_chemical_formula_sum   'Zn2 H24 C52 N6 Cl8 O8'
_cell_volume   7127.40314719
_cell_formula_units_Z   2
loop_
 _symmetry_equiv_pos_site_id
 _symmetry_equiv_pos_as_xyz
  1  'x, y, z'
loop_
 _atom_site_type_symbol
 _atom_site_label
 _atom_site_symmetry_multiplicity
 _atom_site_fract_x
 _atom_site_fract_y
 _atom_site_fract_z
 _atom_site_occupancy
 _atom_site_pbe_bader_charge
 _atom_site_pbe_bader_spin_density
 _atom_site_pbe_cm5_charge
 _atom_site_pbe_ddec_charge
 _atom_site_pbe_ddec_spin_density
 _atom_site_pbe_ddec_sum_bond_order
 _atom_site_pbe_magmom
Zn  Zn0  1  0.57859362  0.50020411  0.49977847  1  1.320244  0  0.66267  0.875055  0  2.319145  0
Zn  Zn1  1  0.42141182  0.49979308  0.50021575  1  1.30794  0  0.662673  0.875103  0  2.319375  0
H  H2  1  0.61452087  0.72015430  0.50233525  1  0.12576  0  0.106448  0.126723  0  1.0098  0
H  H3  1  0.61471684  0.49698873  0.84284406  1  0.024626  0  0.098735  0.097559  0  1.006013  0
H  H4  1  0.38526537  0.50373220  0.84357930  1  0.076467  0  0.098262  0.096859  0  1.006528  0
H  H5  1  0.61472464  0.49627569  0.15641090  1  0.07642  0  0.098266  0.096924  0  1.006581  0
H  H6  1  0.58210818  0.42253778  0.06048640  1  0.05758  0  0.100911  0.100386  0  1.002467  0
H  H7  1  0.41788981  0.57746309  0.93951141  1  0.057685  0  0.100963  0.100488  0  1.002632  0
H  H8  1  0.58217816  0.42288434  0.93434811  1  0.060992  0  0.100931  0.100084  0  1.001348  0
H  H9  1  0.41781609  0.57711595  0.06564767  1  0.06104  0  0.100925  0.100067  0  1.001382  0
H  H10  1  0.83405271  0.41977375  0.42123536  1  0.108136  0  0.114712  0.135195  0  0.995528  0
H  H11  1  0.16595327  0.58022865  0.57876092  1  0.108008  0  0.11466  0.135106  0  0.995736  0
H  H12  1  0.83407947  0.58024535  0.57900083  1  0.103971  0  0.11482  0.13529  0  0.995679  0
H  H13  1  0.38548724  0.27985243  0.49766972  1  0.125938  0  0.106446  0.126753  0  1.009691  0
H  H14  1  0.16591746  0.41975950  0.42099138  1  0.10509  0  0.114795  0.135238  0  0.99553  0
H  H15  1  0.93409339  0.51679535  0.60931540  1  0.077821  0  0.110328  0.111305  0  0.98783  0
H  H16  1  0.06590779  0.48321026  0.39068651  1  0.077748  0  0.110317  0.111297  0  0.987856  0
H  H17  1  0.93439181  0.48326843  0.39082312  1  0.073383  0  0.110423  0.111683  0  0.986889  0
H  H18  1  0.06560831  0.51673917  0.60917573  1  0.073422  0  0.110396  0.111611  0  0.986847  0
H  H19  1  0.61437701  0.28086022  0.50307250  1  0.13362  0  0.106585  0.127232  0  1.006959  0
H  H20  1  0.38563372  0.71914236  0.49695234  1  0.133439  0  0.106593  0.127312  0  1.007071  0
H  H21  1  0.38582776  0.50377659  0.28455908  1  0.099907  0  0.097937  0.100516  0  1.016167  0
H  H22  1  0.61416914  0.49621504  0.71544074  1  0.100055  0  0.097987  0.100592  0  1.016038  0
H  H23  1  0.38591304  0.50324102  0.71620045  1  0.107143  0  0.097356  0.099921  0  1.018381  0
H  H24  1  0.61408230  0.49676326  0.28378921  1  0.107354  0  0.097344  0.099843  0  1.018385  0
H  H25  1  0.38527367  0.50300543  0.15715476  1  0.024329  0  0.098744  0.09756  0  1.006211  0
C  C26  1  0.50002554  0.49928919  0.63191290  1  1.515669  0  0.213226  0.600886  0  4.159868  0
C  C27  1  0.45314484  0.54229764  0.03692899  1  -0.040335  0  -0.092441  -0.128376  0  4.000374  0
C  C28  1  0.50001068  0.50019609  0.92755692  1  -0.115329  0  -0.010059  0.06394  0  4.011561  0
C  C29  1  0.49997770  0.49979850  0.07243832  1  -0.116137  0  -0.010083  0.063635  0  4.011902  0
C  C30  1  0.73335123  0.45806614  0.45749760  1  0.591283  0  0.154216  0.31048  0  4.042295  0
C  C31  1  0.26665104  0.54194026  0.54249411  1  0.591453  0  0.154333  0.310628  0  4.041985  0
C  C32  1  0.73337313  0.54221424  0.54224408  1  0.587579  0  0.154047  0.310566  0  4.042393  0
C  C33  1  0.26662540  0.45779068  0.45775068  1  0.587351  0  0.153998  0.310532  0  4.042461  0
C  C34  1  0.80755262  0.45628454  0.45585329  1  0.04589  0  -0.091527  -0.258132  0  3.940969  0
C  C35  1  0.19244644  0.54372035  0.54414045  1  0.046494  0  -0.091664  -0.258264  0  3.941077  0
C  C36  1  0.80757322  0.54380606  0.54424977  1  0.045337  0  -0.091328  -0.258172  0  3.942148  0
C  C37  1  0.49996869  0.50069978  0.36808385  1  1.51656  0  0.213062  0.600683  0  4.159859  0
C  C38  1  0.19242745  0.45620294  0.45574297  1  0.045109  0  -0.091169  -0.258016  0  3.941953  0
C  C39  1  0.84626581  0.50002699  0.50009705  1  -0.05256  0  0.017667  0.15496  0  4.0049  0
C  C40  1  0.15373325  0.49997949  0.49989823  1  -0.053878  0  0.017831  0.15513  0  4.004861  0
C  C41  1  0.96287855  0.51050482  0.56113381  1  0.0507  0  -0.07985  -0.113447  0  3.972691  0
C  C42  1  0.03711890  0.48950072  0.43886555  1  0.050569  0  -0.079721  -0.113341  0  3.972739  0
C  C43  1  0.96305164  0.48953373  0.43894376  1  -0.113836  0  -0.080174  -0.114486  0  3.972335  0
C  C44  1  0.03694688  0.51047126  0.56105406  1  -0.113778  0  -0.080024  -0.114241  0  3.972116  0
C  C45  1  0.07517609  0.49998108  0.49992251  1  0.041535  0  -0.001933  0.063444  0  3.989642  0
C  C46  1  0.92482456  0.50002187  0.50007581  1  0.041323  0  -0.001865  0.06349  0  3.989639  0
C  C47  1  0.50001277  0.63466334  0.49949746  1  1.540623  0  0.216399  0.600484  0  4.155262  0
C  C48  1  0.49999700  0.49969144  0.14774306  1  -0.005236  0  -0.005184  0.074574  0  4.007356  0
C  C49  1  0.49999640  0.36533862  0.50050187  1  1.540329  0  0.216468  0.600343  0  4.155284  0
C  C50  1  0.56468105  0.74859035  0.50109520  1  0.016716  0  -0.090281  -0.16815  0  3.949066  0
C  C51  1  0.43532705  0.25141347  0.49891741  1  0.016373  0  -0.090214  -0.168249  0  3.948986  0
C  C52  1  0.56452712  0.25198835  0.50164275  1  0.121088  0  -0.08999  -0.167926  0  3.950296  0
C  C53  1  0.43548150  0.74801609  0.49837395  1  0.121846  0  -0.089927  -0.167933  0  3.950504  0
C  C54  1  0.56423677  0.82038889  0.50146422  1  0.116223  0  0.023026  0.142328  0  4.018522  0
C  C55  1  0.43577238  0.17961819  0.49855504  1  0.116116  0  0.023037  0.142471  0  4.018356  0
C  C56  1  0.56405417  0.18018491  0.50129444  1  0.003618  0  0.022361  0.140825  0  4.019436  0
C  C57  1  0.43595444  0.81981810  0.49872735  1  0.004335  0  0.02238  0.14075  0  4.019205  0
C  C58  1  0.50009607  0.85760530  0.50020266  1  0.038568  0  -0.01091  -0.103689  0  3.961224  0
C  C59  1  0.49999511  0.50030368  0.85225218  1  -0.005629  0  -0.005022  0.074688  0  4.007366  0
C  C60  1  0.49991361  0.14240084  0.49982017  1  0.039373  0  -0.010911  -0.103573  0  3.961754  0
C  C61  1  0.50008191  0.71245000  0.49947812  1  0.020559  0  -0.006931  0.021052  0  3.942441  0
C  C62  1  0.49992672  0.28755382  0.50053449  1  0.020939  0  -0.007008  0.021078  0  3.942406  0
C  C63  1  0.49992336  0.06597287  0.49985391  1  0.96721  0  0.240266  0.264239  0  4.021605  0
C  C64  1  0.50008312  0.93403226  0.50016993  1  0.966521  0  0.240311  0.264912  0  4.021268  0
C  C65  1  0.43556823  0.50249550  0.25571401  1  0.044181  0  -0.087362  -0.086251  0  3.993443  0
C  C66  1  0.56442387  0.49749342  0.74428070  1  0.044051  0  -0.087428  -0.086312  0  3.99318  0
C  C67  1  0.43565663  0.50224318  0.74471760  1  -0.096851  0  -0.087824  -0.086807  0  3.993264  0
C  C68  1  0.56433657  0.49775805  0.25527461  1  -0.096322  0  -0.087782  -0.086719  0  3.993104  0
C  C69  1  0.43566056  0.50242854  0.18474961  1  -0.054959  0  -0.094855  -0.139507  0  3.995982  0
C  C70  1  0.49995234  0.50041771  0.29168689  1  -0.042959  0  -0.02286  -0.037585  0  3.966282  0
C  C71  1  0.56432621  0.49756198  0.81524817  1  -0.054808  0  -0.094885  -0.139583  0  3.995887  0
C  C72  1  0.43567899  0.50291220  0.81569768  1  0.022066  0  -0.093618  -0.137369  0  3.994289  0
C  C73  1  0.56431422  0.49709206  0.18429199  1  0.021788  0  -0.093632  -0.137452  0  3.994374  0
C  C74  1  0.50004456  0.49957274  0.70830680  1  -0.042506  0  -0.02291  -0.037653  0  3.966116  0
C  C75  1  0.54682081  0.45750722  0.03407321  1  -0.017846  0  -0.093477  -0.131006  0  4.003881  0
C  C76  1  0.45317184  0.54249204  0.96592256  1  -0.018795  0  -0.093503  -0.131287  0  4.004159  0
C  C77  1  0.54684727  0.45769906  0.96306780  1  -0.040261  0  -0.092577  -0.128627  0  4.000113  0
N  N78  1  0.47554073  0.96747731  0.55672612  1  -0.55059  0  -0.158037  -0.142445  0  3.178246  0
N  N79  1  0.52446149  0.03252723  0.44329518  1  -0.550251  0  -0.158136  -0.142401  0  3.178307  0
N  N80  1  0.47544957  0.03581353  0.55656625  1  -0.52936  0  -0.158108  -0.143687  0  3.178518  0
N  N81  1  0.52455371  0.96419310  0.44345607  1  -0.527928  0  -0.158237  -0.144178  0  3.178455  0
N  N82  1  0.69532695  0.50020924  0.49977915  1  -1.179896  0  -0.301077  -0.308515  0  3.359889  0
N  N83  1  0.30467371  0.49979612  0.50021256  1  -1.180107  0  -0.301188  -0.308617  0  3.359939  0
Cl  Cl84  1  0.64469564  0.86442378  0.50568042  1  -0.20043  0  -0.019409  -0.084347  0  1.429598  0
Cl  Cl85  1  0.35531032  0.13558061  0.49433424  1  -0.200482  0  -0.019451  -0.084419  0  1.429433  0
Cl  Cl86  1  0.64454878  0.13696935  0.50478542  1  -0.20336  0  -0.019443  -0.084301  0  1.430259  0
Cl  Cl87  1  0.35545713  0.86302992  0.49525218  1  -0.203557  0  -0.019546  -0.084348  0  1.430124  0
Cl  Cl88  1  0.68875403  0.40289727  0.40275285  1  -0.130416  0  0.05614  -0.015593  0  1.539349  0
Cl  Cl89  1  0.31124825  0.59710903  0.59723477  1  -0.130534  0  0.056189  -0.015551  0  1.53927  0
Cl  Cl90  1  0.68876110  0.59754918  0.59672164  1  -0.127967  0  0.056035  -0.0157  0  1.538418  0
Cl  Cl91  1  0.31123635  0.40244956  0.40327361  1  -0.127631  0  0.055968  -0.015774  0  1.538207  0
O  O92  1  0.56058235  0.49925835  0.60227562  1  -1.165883  0  -0.324255  -0.564097  0  2.384834  0
O  O93  1  0.43941829  0.50073991  0.39772116  1  -1.166132  0  -0.324283  -0.564078  0  2.384943  0
O  O94  1  0.56054682  0.50051348  0.39734751  1  -1.167888  0  -0.32366  -0.563282  0  2.381822  0
O  O95  1  0.43945061  0.49947122  0.60264309  1  -1.167449  0  -0.32381  -0.563522  0  2.38207  0
O  O96  1  0.56061889  0.60566292  0.49963343  1  -1.168867  0  -0.319575  -0.556458  0  2.360044  0
O  O97  1  0.43939350  0.39434032  0.50035467  1  -1.168628  0  -0.319652  -0.556483  0  2.36003  0
O  O98  1  0.56068473  0.39461489  0.50018605  1  -1.169078  0  -0.319177  -0.555835  0  2.363853  0
O  O99  1  0.43932604  0.60538542  0.49980919  1  -1.169038  0  -0.319216  -0.55604  0  2.36389  0
