# generated using pymatgen
data_CdH16C15(N3O2)2
_symmetry_space_group_name_H-M   'P 1'
_cell_length_a   8.12571031
_cell_length_b   9.78874931
_cell_length_c   10.61679600
_cell_angle_alpha   101.79978872
_cell_angle_beta   98.68079248
_cell_angle_gamma   94.43806194
_symmetry_Int_Tables_number   1
_chemical_formula_structural   CdH16C15(N3O2)2
_chemical_formula_sum   'Cd2 H32 C30 N12 O8'
_cell_volume   812.02246529
_cell_formula_units_Z   2
loop_
 _symmetry_equiv_pos_site_id
 _symmetry_equiv_pos_as_xyz
  1  'x, y, z'
loop_
 _atom_site_type_symbol
 _atom_site_label
 _atom_site_symmetry_multiplicity
 _atom_site_fract_x
 _atom_site_fract_y
 _atom_site_fract_z
 _atom_site_occupancy
 _atom_site_hle17_bader_spin_density
 _atom_site_hle17_ddec_charge
 _atom_site_hle17_ddec_spin_density
 _atom_site_hle17_ddec_sum_bond_order
 _atom_site_hle17_magmom
 _atom_site_hse06_10hf_bader_spin_density
 _atom_site_hse06_10hf_ddec_charge
 _atom_site_hse06_10hf_ddec_spin_density
 _atom_site_hse06_10hf_ddec_sum_bond_order
 _atom_site_hse06_10hf_magmom
 _atom_site_hse06_bader_spin_density
 _atom_site_hse06_ddec_charge
 _atom_site_hse06_ddec_spin_density
 _atom_site_hse06_ddec_sum_bond_order
 _atom_site_hse06_magmom
 _atom_site_pbe_bader_spin_density
 _atom_site_pbe_cm5_charge
 _atom_site_pbe_ddec_charge
 _atom_site_pbe_ddec_spin_density
 _atom_site_pbe_ddec_sum_bond_order
 _atom_site_pbe_magmom
Cd  Cd0  1  0.15124034  0.13420448  0.12155654  1  0  1.127914  0  1.671799  0  0  0.931808  0  2.122427  0  0  0.989985  0  2.071376  0  0  0.772335  0.888964  0  2.158533  0
Cd  Cd1  1  0.84876084  0.86579654  0.87844426  1  0  1.127915  0  1.67181  0  0  0.931809  0  2.122434  0  0  0.989987  0  2.071381  0  0  0.772337  0.888966  0  2.158539  0
H  H2  1  0.92242240  0.62962897  0.21072147  1  0  0.322524  0  0.930766  0  0  0.300925  0  0.996109  0  0  0.310841  0  0.988054  0  0  0.304411  0.293141  0  1.002777  0
H  H3  1  0.07757614  0.37037101  0.78927788  1  0  0.322531  0  0.930764  0  0  0.300927  0  0.996107  0  0  0.310842  0  0.988052  0  0  0.304425  0.293142  0  1.002774  0
H  H4  1  0.06567484  0.14187067  0.63174876  1  0  0.092544  0  0.943494  0  0  0.110506  0  0.999442  0  0  0.112262  0  0.999141  0  0  0.095748  0.109107  0  1.00018  0
H  H5  1  0.93432384  0.85813035  0.36825175  1  0  0.092539  0  0.943502  0  0  0.110509  0  0.999441  0  0  0.112264  0  0.999141  0  0  0.09576  0.109111  0  1.000174  0
H  H6  1  0.02295196  0.96786323  0.65211161  1  0  0.112753  0  0.941908  0  0  0.127489  0  1.000917  0  0  0.130041  0  0.999757  0  0  0.099593  0.125682  0  1.001989  0
H  H7  1  0.97704784  0.03213674  0.34788789  1  0  0.112748  0  0.94191  0  0  0.127486  0  1.000918  0  0  0.130038  0  0.999758  0  0  0.099593  0.125679  0  1.00199  0
H  H8  1  0.32796215  0.95732819  0.72191395  1  0  0.05918  0  0.939654  0  0  0.077756  0  1.002242  0  0  0.078552  0  1.002567  0  0  0.084705  0.077317  0  1.001603  0
H  H9  1  0.67203764  0.04267178  0.27808649  1  0  0.059179  0  0.939643  0  0  0.077757  0  1.002232  0  0  0.078552  0  1.002558  0  0  0.084704  0.077317  0  1.001592  0
H  H10  1  0.28709452  0.99853406  0.56574797  1  0  0.069611  0  0.948471  0  0  0.0878  0  1.010913  0  0  0.089101  0  1.010721  0  0  0.090562  0.086906  0  1.011022  0
H  H11  1  0.71290527  0.00146591  0.43425153  1  0  0.069588  0  0.948495  0  0  0.087805  0  1.010906  0  0  0.089106  0  1.010712  0  0  0.090563  0.08691  0  1.011016  0
H  H12  1  0.42027990  0.21059938  0.82404119  1  0  0.060414  0  0.956555  0  0  0.072781  0  1.028147  0  0  0.07376  0  1.028474  0  0  0.082276  0.071885  0  1.028122  0
H  H13  1  0.57972113  0.78940059  0.17595750  1  0  0.060436  0  0.956555  0  0  0.072804  0  1.028142  0  0  0.073783  0  1.028471  0  0  0.082278  0.071909  0  1.028117  0
H  H14  1  0.36234743  0.25600975  0.67322011  1  0  0.065278  0  0.944446  0  0  0.08445  0  1.006362  0  0  0.085113  0  1.007081  0  0  0.089327  0.084012  0  1.005519  0
H  H15  1  0.63765250  0.74399127  0.32677960  1  0  0.065308  0  0.94444  0  0  0.084478  0  1.006356  0  0  0.085142  0  1.007074  0  0  0.089328  0.08404  0  1.005514  0
H  H16  1  0.66656603  0.25060430  0.71696925  1  0  0.101659  0  0.929956  0  0  0.117716  0  0.988463  0  0  0.119538  0  0.988543  0  0  0.098486  0.116376  0  0.988589  0
H  H17  1  0.33343377  0.74939567  0.28303025  1  0  0.101674  0  0.929987  0  0  0.117754  0  0.988455  0  0  0.119578  0  0.988532  0  0  0.098503  0.116411  0  0.988585  0
H  H18  1  0.57845965  0.11650830  0.57956326  1  0  0.093735  0  0.945483  0  0  0.108901  0  1.007558  0  0  0.110826  0  1.006941  0  0  0.095179  0.107612  0  1.007936  0
H  H19  1  0.42154029  0.88349273  0.42043739  1  0  0.093755  0  0.945535  0  0  0.108896  0  1.007624  0  0  0.110819  0  1.007009  0  0  0.095172  0.107607  0  1.007998  0
H  H20  1  0.28795685  0.26840049  0.42426132  1  0  0.123266  0  0.97358  0  0  0.133294  0  1.032667  0  0  0.136857  0  1.030505  0  0  0.104271  0.130579  0  1.034416  0
H  H21  1  0.71204390  0.73159738  0.57573696  1  0  0.123262  0  0.973588  0  0  0.133255  0  1.032717  0  0  0.136805  0  1.03057  0  0  0.104262  0.13054  0  1.034467  0
H  H22  1  0.41734043  0.46027820  0.61491431  1  0  0.083445  0  0.983127  0  0  0.091803  0  1.048894  0  0  0.093796  0  1.048949  0  0  0.095881  0.09035  0  1.048816  0
H  H23  1  0.58266047  0.53972072  0.38508512  1  0  0.083416  0  0.983113  0  0  0.091777  0  1.048885  0  0  0.09377  0  1.048938  0  0  0.095865  0.090324  0  1.048806  0
H  H24  1  0.33445458  0.70047456  0.63766187  1  0  0.078975  0  0.966275  0  0  0.088323  0  1.032289  0  0  0.09034  0  1.032526  0  0  0.093732  0.086937  0  1.031917  0
H  H25  1  0.66554770  0.29952541  0.36233886  1  0  0.078943  0  0.966289  0  0  0.088282  0  1.032316  0  0  0.090283  0  1.032571  0  0  0.093724  0.086899  0  1.031942  0
H  H26  1  0.11700010  0.75900663  0.47187788  1  0  0.101121  0  0.964193  0  0  0.114202  0  1.021432  0  0  0.116435  0  1.020872  0  0  0.104783  0.112336  0  1.022266  0
H  H27  1  0.88300108  0.24099439  0.52812291  1  0  0.101108  0  0.964194  0  0  0.114213  0  1.021413  0  0  0.116434  0  1.020871  0  0  0.104793  0.112379  0  1.022208  0
H  H28  1  0.81319217  0.44576798  0.98958473  1  0  0.127669  0  0.898743  0  0  0.135444  0  0.963455  0  0  0.137934  0  0.96012  0  0  0.130442  0.133647  0  0.965277  0
H  H29  1  0.18680886  0.55423199  0.01041491  1  0  0.127663  0  0.898754  0  0  0.135437  0  0.963468  0  0  0.137924  0  0.960132  0  0  0.130438  0.13364  0  0.965288  0
H  H30  1  0.83021639  0.26499028  0.99131492  1  0  0.137824  0  0.933832  0  0  0.144848  0  0.999819  0  0  0.147822  0  0.996472  0  0  0.129731  0.142559  0  1.001921  0
H  H31  1  0.16978478  0.73501074  0.00868588  1  0  0.137855  0  0.933809  0  0  0.144906  0  0.999765  0  0  0.147878  0  0.996416  0  0  0.129746  0.142616  0  1.001867  0
H  H32  1  0.57520956  0.13186931  0.05363265  1  0  0.149134  0  0.92464  0  0  0.155769  0  0.987344  0  0  0.159421  0  0.982004  0  0  0.156638  0.152802  0  0.990878  0
H  H33  1  0.42479148  0.86813066  0.94636605  1  0  0.149148  0  0.924626  0  0  0.15578  0  0.987342  0  0  0.159431  0  0.982002  0  0  0.156641  0.152813  0  0.990875  0
C  C34  1  0.09866934  0.12037399  0.83071307  1  0  0.71124  0  3.822271  0  0  0.664066  0  4.117722  0  0  0.697619  0  4.111677  0  0  0.208229  0.640993  0  4.121057  0
C  C35  1  0.90133045  0.87962598  0.16928643  1  0  0.711171  0  3.822321  0  0  0.6639  0  4.117921  0  0  0.697452  0  4.111879  0  0  0.208152  0.640826  0  4.121255  0
C  C36  1  0.10815754  0.06512752  0.68823065  1  0  -0.270153  0  3.678416  0  0  -0.30949  0  3.931031  0  0  -0.315589  0  3.939499  0  0  -0.168925  -0.305376  0  3.925772  0
C  C37  1  0.89184225  0.93487245  0.31176885  1  0  -0.270131  0  3.678365  0  0  -0.309451  0  3.931017  0  0  -0.31555  0  3.939484  0  0  -0.168931  -0.305337  0  3.925756  0
C  C38  1  0.28788515  0.03925528  0.67045317  1  0  -0.083317  0  3.674746  0  0  -0.122265  0  3.932364  0  0  -0.123008  0  3.946342  0  0  -0.165679  -0.121792  0  3.922731  0
C  C39  1  0.71211325  0.96074365  0.32954597  1  0  -0.083281  0  3.674681  0  0  -0.122257  0  3.932326  0  0  -0.122999  0  3.946301  0  0  -0.16568  -0.121784  0  3.922691  0
C  C40  1  0.41095319  0.17220557  0.71816876  1  0  -0.084531  0  3.691536  0  0  -0.123566  0  3.949924  0  0  -0.123598  0  3.963365  0  0  -0.169974  -0.123427  0  3.940624  0
C  C41  1  0.58904522  0.82779335  0.28183038  1  0  -0.084652  0  3.691574  0  0  -0.123704  0  3.949972  0  0  -0.123738  0  3.963415  0  0  -0.170005  -0.123564  0  3.940671  0
C  C42  1  0.58495724  0.15032135  0.68547865  1  0  -0.257112  0  3.679981  0  0  -0.294716  0  3.930041  0  0  -0.300742  0  3.9388  0  0  -0.167813  -0.290798  0  3.924144  0
C  C43  1  0.41504131  0.84967862  0.31452071  1  0  -0.257131  0  3.680097  0  0  -0.294699  0  3.930088  0  0  -0.300722  0  3.938844  0  0  -0.167818  -0.290778  0  3.92419  0
C  C44  1  0.67047749  0.04532953  0.75218202  1  0  0.682199  0  3.868946  0  0  0.638679  0  4.16233  0  0  0.671729  0  4.157864  0  0  0.190563  0.616423  0  4.164193  0
C  C45  1  0.32952230  0.95467044  0.24781748  1  0  0.682228  0  3.868905  0  0  0.638697  0  4.162294  0  0  0.671747  0  4.157827  0  0  0.190574  0.616442  0  4.164157  0
C  C46  1  0.13067141  0.40766122  0.33999036  1  0  0.147637  0  3.836077  0  0  0.144388  0  4.083484  0  0  0.14779  0  4.108292  0  0  0.082862  0.141842  0  4.066904  0
C  C47  1  0.86932852  0.59233981  0.66000935  1  0  0.147592  0  3.836152  0  0  0.144326  0  4.083597  0  0  0.147728  0  4.108401  0  0  0.082839  0.14178  0  4.067015  0
C  C48  1  0.25079670  0.37418843  0.43470146  1  0  -0.150353  0  3.72727  0  0  -0.169908  0  3.977926  0  0  -0.173378  0  3.997833  0  0  -0.097864  -0.167332  0  3.964558  0
C  C49  1  0.74920170  0.62581050  0.56529956  1  0  -0.15022  0  3.727378  0  0  -0.16975  0  3.978049  0  0  -0.173209  0  3.997964  0  0  -0.097806  -0.167175  0  3.964681  0
C  C50  1  0.32105814  0.48171873  0.54085852  1  0  -0.073555  0  3.798249  0  0  -0.092538  0  4.059456  0  0  -0.094597  0  4.082916  0  0  -0.101391  -0.091009  0  4.043334  0
C  C51  1  0.67894289  0.51828124  0.45914207  1  0  -0.0736  0  3.798194  0  0  -0.092578  0  4.059393  0  0  -0.094637  0  4.082843  0  0  -0.101398  -0.09105  0  4.04327  0
C  C52  1  0.27425046  0.61891398  0.55378397  1  0  -0.060865  0  3.766614  0  0  -0.080603  0  4.027076  0  0  -0.08284  0  4.05042  0  0  -0.099725  -0.078941  0  4.011105  0
C  C53  1  0.72574670  0.38108496  0.44621879  1  0  -0.060793  0  3.76656  0  0  -0.080523  0  4.02703  0  0  -0.082746  0  4.050373  0  0  -0.099689  -0.078867  0  4.011065  0
C  C54  1  0.15384286  0.65326244  0.46112641  1  0  -0.150377  0  3.764329  0  0  -0.167203  0  4.015086  0  0  -0.170355  0  4.036589  0  0  -0.092298  -0.165041  0  4.000989  0
C  C55  1  0.84615832  0.34673858  0.53887344  1  0  -0.15037  0  3.764371  0  0  -0.167214  0  4.01514  0  0  -0.170354  0  4.036642  0  0  -0.092321  -0.165077  0  4.00103  0
C  C56  1  0.08387630  0.54580975  0.35365891  1  0  0.156685  0  3.793714  0  0  0.148972  0  4.037974  0  0  0.152464  0  4.060878  0  0  0.094781  0.146178  0  4.02309  0
C  C57  1  0.91612349  0.45419022  0.64634153  1  0  0.156636  0  3.793794  0  0  0.148904  0  4.038094  0  0  0.152396  0  4.060996  0  0  0.094759  0.146109  0  4.023215  0
C  C58  1  0.94387344  0.41004108  0.17017804  1  0  0.385248  0  3.705412  0  0  0.350262  0  3.991068  0  0  0.368962  0  4.000766  0  0  0.227161  0.338076  0  3.982416  0
C  C59  1  0.05612650  0.58995994  0.82982072  1  0  0.38527  0  3.70539  0  0  0.350302  0  3.991  0  0  0.36897  0  4.000733  0  0  0.227172  0.338102  0  3.982368  0
C  C60  1  0.81318203  0.36716177  0.05007682  1  0  -0.115739  0  3.601376  0  0  -0.185001  0  3.842202  0  0  -0.172839  0  3.849447  0  0  -0.029408  -0.186835  0  3.839808  0
C  C61  1  0.18681790  0.63283926  0.94992384  1  0  -0.115759  0  3.601325  0  0  -0.185068  0  3.842117  0  0  -0.172878  0  3.849342  0  0  -0.029435  -0.186893  0  3.839724  0
C  C62  1  0.54499082  0.23801564  0.08519751  1  0  0.161938  0  3.611767  0  0  0.081939  0  3.883114  0  0  0.106148  0  3.895655  0  0  0.18331  0.073098  0  3.876326  0
C  C63  1  0.45501022  0.76198433  0.91480213  1  0  0.161941  0  3.611759  0  0  0.081908  0  3.883095  0  0  0.106117  0  3.89564  0  0  0.183311  0.07307  0  3.876306  0
N  N64  1  0.04066257  0.32504164  0.22363168  1  0  -0.497551  0  3.136658  0  0  -0.432402  0  3.422148  0  0  -0.456221  0  3.435893  0  0  -0.35558  -0.415541  0  3.412575  0
N  N65  1  0.95933861  0.67495938  0.77636817  1  0  -0.497541  0  3.136666  0  0  -0.432398  0  3.422156  0  0  -0.456207  0  3.435911  0  0  -0.355581  -0.415533  0  3.412589  0
N  N66  1  0.96566315  0.54261817  0.24464052  1  0  -0.383067  0  3.349822  0  0  -0.327906  0  3.586779  0  0  -0.346389  0  3.598426  0  0  -0.371764  -0.314741  0  3.578956  0
N  N67  1  0.03433664  0.45738180  0.75535992  1  0  -0.383053  0  3.34985  0  0  -0.327865  0  3.586768  0  0  -0.346338  0  3.598421  0  0  -0.371759  -0.314696  0  3.578948  0
N  N68  1  0.64504762  0.35399250  0.08493292  1  0  0.043405  0  3.50639  0  0  0.159911  0  3.69942  0  0  0.117909  0  3.759137  0  0  -0.110474  0.167355  0  3.684474  0
N  N69  1  0.35495217  0.64600747  0.91506657  1  0  0.043335  0  3.506464  0  0  0.159937  0  3.699396  0  0  0.117926  0  3.759116  0  0  -0.110471  0.16737  0  3.684472  0
N  N70  1  0.56693600  0.46832509  0.12576831  1  0  -0.084314  0  2.859431  0  0  -0.103316  0  3.155578  0  0  -0.09181  0  3.170097  0  0  -0.06017  -0.104065  0  3.148711  0
N  N71  1  0.43306504  0.53167487  0.87423039  1  0  -0.084269  0  2.859511  0  0  -0.103312  0  3.155655  0  0  -0.091805  0  3.170177  0  0  -0.060134  -0.104058  0  3.148789  0
N  N72  1  0.42290590  0.42236189  0.14867895  1  0  -0.042658  0  2.912811  0  0  -0.04468  0  3.2239  0  0  -0.041314  0  3.230363  0  0  -0.06785  -0.046511  0  3.216833  0
N  N73  1  0.57709514  0.57763808  0.85132069  1  0  -0.042661  0  2.91277  0  0  -0.044682  0  3.223876  0  0  -0.041315  0  3.230339  0  0  -0.06787  -0.046512  0  3.216808  0
N  N74  1  0.40567390  0.27903963  0.12449757  1  0  -0.291013  0  3.119453  0  0  -0.232962  0  3.429441  0  0  -0.251008  0  3.439583  0  0  -0.219549  -0.22032  0  3.419284  0
N  N75  1  0.59432603  0.72096139  0.87550214  1  0  -0.291035  0  3.119428  0  0  -0.232988  0  3.429433  0  0  -0.251034  0  3.439574  0  0  -0.219572  -0.220344  0  3.419275  0
O  O76  1  0.10123426  0.02915695  0.90383638  1  0  -0.693229  0  2.055417  0  0  -0.606332  0  2.321717  0  0  -0.639086  0  2.308849  0  0  -0.345128  -0.582379  0  2.329962  0
O  O77  1  0.89876568  0.97084407  0.09616333  1  0  -0.693206  0  2.05549  0  0  -0.606258  0  2.321815  0  0  -0.639006  0  2.308937  0  0  -0.345079  -0.582308  0  2.330068  0
O  O78  1  0.09570604  0.24927427  0.87702021  1  0  -0.627669  0  1.95059  0  0  -0.578775  0  2.182069  0  0  -0.60381  0  2.174834  0  0  -0.317209  -0.560389  0  2.186614  0
O  O79  1  0.90429376  0.75072570  0.12297928  1  0  -0.627613  0  1.950528  0  0  -0.578689  0  2.182062  0  0  -0.603723  0  2.174828  0  0  -0.317176  -0.560303  0  2.186605  0
O  O80  1  0.67557057  0.05812562  0.87520196  1  0  -0.67464  0  1.952252  0  0  -0.609439  0  2.191198  0  0  -0.639025  0  2.183506  0  0  -0.341731  -0.588735  0  2.195478  0
O  O81  1  0.32443047  0.94187435  0.12479768  1  0  -0.674639  0  1.952234  0  0  -0.60944  0  2.191187  0  0  -0.639028  0  2.183501  0  0  -0.341716  -0.588735  0  2.195468  0
O  O82  1  0.73861084  0.94869672  0.68566512  1  0  -0.655278  0  1.950573  0  0  -0.590952  0  2.1864  0  0  -0.619659  0  2.177788  0  0  -0.332486  -0.570969  0  2.191372  0
O  O83  1  0.26138771  0.05130325  0.31433423  1  0  -0.655267  0  1.950561  0  0  -0.590949  0  2.186396  0  0  -0.619661  0  2.177785  0  0  -0.332484  -0.570966  0  2.191368  0
