# generated using pymatgen
data_SmAgH11C15(NO6)2
_symmetry_space_group_name_H-M   'P 1'
_cell_length_a   7.59751348
_cell_length_b   8.23453872
_cell_length_c   14.21146357
_cell_angle_alpha   97.78724238
_cell_angle_beta   100.80631515
_cell_angle_gamma   94.12978428
_symmetry_Int_Tables_number   1
_chemical_formula_structural   SmAgH11C15(NO6)2
_chemical_formula_sum   'Sm2 Ag2 H22 C30 N4 O24'
_cell_volume   860.93117863
_cell_formula_units_Z   2
loop_
 _symmetry_equiv_pos_site_id
 _symmetry_equiv_pos_as_xyz
  1  'x, y, z'
loop_
 _atom_site_type_symbol
 _atom_site_label
 _atom_site_symmetry_multiplicity
 _atom_site_fract_x
 _atom_site_fract_y
 _atom_site_fract_z
 _atom_site_occupancy
 _atom_site_hle17_bader_spin_density
 _atom_site_hle17_ddec_charge
 _atom_site_hle17_ddec_spin_density
 _atom_site_hle17_ddec_sum_bond_order
 _atom_site_hle17_magmom
 _atom_site_hse06_10hf_bader_spin_density
 _atom_site_hse06_10hf_ddec_charge
 _atom_site_hse06_10hf_ddec_spin_density
 _atom_site_hse06_10hf_ddec_sum_bond_order
 _atom_site_hse06_10hf_magmom
 _atom_site_hse06_bader_spin_density
 _atom_site_hse06_ddec_charge
 _atom_site_hse06_ddec_spin_density
 _atom_site_hse06_ddec_sum_bond_order
 _atom_site_hse06_magmom
 _atom_site_pbe_bader_spin_density
 _atom_site_pbe_cm5_charge
 _atom_site_pbe_ddec_charge
 _atom_site_pbe_ddec_spin_density
 _atom_site_pbe_ddec_sum_bond_order
 _atom_site_pbe_magmom
Sm  Sm0  1  0.81215508  0.29756936  0.08196692  1  0  2.330003  0  1.588896  0  0  2.237649  0  1.937169  0  0  2.278912  0  1.895955  0  0  1.494259  2.207738  0  1.965999  0
Sm  Sm1  1  0.18784415  0.70243054  0.91803365  1  0  2.329997  0  1.588912  0  0  2.237645  0  1.937191  0  0  2.278911  0  1.895976  0  0  1.494265  2.207732  0  1.966026  0
Ag  Ag2  1  0.17191765  0.40992548  0.53225414  1  0  0.519876  0  1.400887  0  0  0.370886  0  1.83541  0  0  0.400961  0  1.793124  0  0  0.473182  0.350374  0  1.864486  0
Ag  Ag3  1  0.82808292  0.59007440  0.46774656  1  0  0.519883  0  1.400912  0  0  0.370882  0  1.835448  0  0  0.400956  0  1.793163  0  0  0.473179  0.350373  0  1.864515  0
H  H4  1  0.20788614  0.18885279  0.12909140  1  0  0.440845  0  0.851866  0  0  0.41391  0  0.907935  0  0  0.423416  0  0.894148  0  0  0.305951  0.407204  0  0.917646  0
H  H5  1  0.79211427  0.81114585  0.87090918  1  0  0.44082  0  0.851883  0  0  0.413856  0  0.907986  0  0  0.42338  0  0.894177  0  0  0.305929  0.407153  0  0.917693  0
H  H6  1  0.13133086  0.11420691  0.01970154  1  0  0.44514  0  0.844969  0  0  0.417721  0  0.902946  0  0  0.42736  0  0.888831  0  0  0.312863  0.41089  0  0.91296  0
H  H7  1  0.86866806  0.88579052  0.98029880  1  0  0.445131  0  0.844957  0  0  0.417716  0  0.90293  0  0  0.427355  0  0.888815  0  0  0.31284  0.410882  0  0.91295  0
H  H8  1  0.78416330  0.55208038  0.95669989  1  0  0.429501  0  0.873236  0  0  0.39725  0  0.940557  0  0  0.408429  0  0.9239  0  0  0.302934  0.389302  0  0.952393  0
H  H9  1  0.21583711  0.44791827  0.04330069  1  0  0.429473  0  0.873268  0  0  0.397226  0  0.94058  0  0  0.408405  0  0.923925  0  0  0.30292  0.389274  0  0.952425  0
H  H10  1  0.63936912  0.62501608  0.01681993  1  0  0.460447  0  0.823884  0  0  0.432603  0  0.880327  0  0  0.443497  0  0.864398  0  0  0.30977  0.424855  0  0.891668  0
H  H11  1  0.36063130  0.37498257  0.98318065  1  0  0.460462  0  0.823859  0  0  0.432625  0  0.88029  0  0  0.44352  0  0.864361  0  0  0.309784  0.424877  0  0.891629  0
H  H12  1  0.97465054  0.00756329  0.82644315  1  0  0.117522  0  0.977756  0  0  0.122949  0  1.047047  0  0  0.127602  0  1.04142  0  0  0.119127  0.119412  0  1.051298  0
H  H13  1  0.02534986  0.99243537  0.17355673  1  0  0.117512  0  0.977786  0  0  0.122943  0  1.047063  0  0  0.127591  0  1.041439  0  0  0.119125  0.119396  0  1.051327  0
H  H14  1  0.03593372  0.46504152  0.71498073  1  0  0.089497  0  0.976283  0  0  0.090488  0  1.056137  0  0  0.095339  0  1.049704  0  0  0.121807  0.086811  0  1.060998  0
H  H15  1  0.96406535  0.53495714  0.28501972  1  0  0.089494  0  0.976284  0  0  0.090494  0  1.056133  0  0  0.095341  0  1.049704  0  0  0.121824  0.086821  0  1.060994  0
H  H16  1  0.52393279  0.70425563  0.24090666  1  0  0.136029  0  0.912153  0  0  0.145539  0  0.967676  0  0  0.149555  0  0.964128  0  0  0.126636  0.142588  0  0.97028  0
H  H17  1  0.47606925  0.29574547  0.75909358  1  0  0.136054  0  0.912101  0  0  0.145561  0  0.967628  0  0  0.149576  0  0.964081  0  0  0.126643  0.142605  0  0.970237  0
H  H18  1  0.32950931  0.29403447  0.36469377  1  0  0.091147  0  0.962874  0  0  0.09518  0  1.035684  0  0  0.099331  0  1.030492  0  0  0.117156  0.092059  0  1.039488  0
H  H19  1  0.67048856  0.70596545  0.63530597  1  0  0.091135  0  0.962902  0  0  0.095164  0  1.035706  0  0  0.099316  0  1.030509  0  0  0.117145  0.092042  0  1.039512  0
H  H20  1  0.16579263  0.03817136  0.56154135  1  0  0.093033  0  0.936219  0  0  0.099759  0  1.006994  0  0  0.102916  0  1.002815  0  0  0.119908  0.097324  0  1.010135  0
H  H21  1  0.83420374  0.96182735  0.43845744  1  0  0.093022  0  0.936265  0  0  0.099753  0  1.007023  0  0  0.102911  0  1.002844  0  0  0.119917  0.097318  0  1.010165  0
H  H22  1  0.27960245  0.76776501  0.49344931  1  0  0.108909  0  0.954595  0  0  0.114603  0  1.02218  0  0  0.118157  0  1.018011  0  0  0.122337  0.111924  0  1.025313  0
H  H23  1  0.72040093  0.23223608  0.50655105  1  0  0.108916  0  0.954574  0  0  0.114611  0  1.022153  0  0  0.118166  0  1.017982  0  0  0.122345  0.111925  0  1.02529  0
H  H24  1  0.45784584  0.08897065  0.26840427  1  0  0.414646  0  0.880424  0  0  0.383528  0  0.954074  0  0  0.395575  0  0.937088  0  0  0.309146  0.375084  0  0.965952  0
H  H25  1  0.54215621  0.91103045  0.73159667  1  0  0.414634  0  0.880442  0  0  0.383517  0  0.954088  0  0  0.395563  0  0.937101  0  0  0.30915  0.375074  0  0.965963  0
C  C26  1  0.92696876  0.33360044  0.86397628  1  0  0.718397  0  3.874711  0  0  0.66813  0  4.169864  0  0  0.703515  0  4.160169  0  0  0.234992  0.644192  0  4.175846  0
C  C27  1  0.07303150  0.66639698  0.13602418  1  0  0.718424  0  3.874662  0  0  0.668183  0  4.16978  0  0  0.703568  0  4.160087  0  0  0.23503  0.644243  0  4.175763  0
C  C28  1  0.49864414  0.36991347  0.21884616  1  0  0.705491  0  3.87213  0  0  0.651446  0  4.171395  0  0  0.686613  0  4.161481  0  0  0.233242  0.627641  0  4.177591  0
C  C29  1  0.50135524  0.63008766  0.78115453  1  0  0.705476  0  3.872147  0  0  0.651412  0  4.17148  0  0  0.686582  0  4.161563  0  0  0.233197  0.627602  0  4.177679  0
C  C30  1  0.56571631  0.93882175  0.01889896  1  0  0.581016  0  3.900125  0  0  0.531536  0  4.210258  0  0  0.562457  0  4.198167  0  0  0.229845  0.510468  0  4.218062  0
C  C31  1  0.43427877  0.06117694  0.98110252  1  0  0.580922  0  3.900168  0  0  0.531538  0  4.21019  0  0  0.562459  0  4.198099  0  0  0.229829  0.510472  0  4.21799  0
C  C32  1  0.99572899  0.24618408  0.78096333  1  0  -0.125838  0  3.733561  0  0  -0.097502  0  3.969312  0  0  -0.112369  0  3.992574  0  0  -0.009171  -0.08829  0  3.954019  0
C  C33  1  0.00426993  0.75381335  0.21903701  1  0  -0.125879  0  3.733498  0  0  -0.097546  0  3.969272  0  0  -0.112414  0  3.992532  0  0  -0.009203  -0.088322  0  3.953966  0
C  C34  1  0.43792398  0.48557576  0.29435950  1  0  -0.11686  0  3.741973  0  0  -0.089575  0  3.983605  0  0  -0.102654  0  4.004244  0  0  -0.009782  -0.081651  0  3.970253  0
C  C35  1  0.56207256  0.51442417  0.70564012  1  0  -0.116778  0  3.741883  0  0  -0.089573  0  3.98362  0  0  -0.102655  0  4.004258  0  0  -0.009767  -0.081643  0  3.970256  0
C  C36  1  0.01197488  0.07736769  0.77223712  1  0  0.017945  0  3.622026  0  0  -0.025096  0  3.866542  0  0  -0.014851  0  3.878835  0  0  -0.045636  -0.031377  0  3.858367  0
C  C37  1  0.98802417  0.92263098  0.22776193  1  0  0.01801  0  3.621912  0  0  -0.025019  0  3.866415  0  0  -0.014767  0  3.878704  0  0  -0.045613  -0.031295  0  3.858234  0
C  C38  1  0.04492143  0.33275878  0.71063722  1  0  0.123891  0  3.668063  0  0  0.077349  0  3.918404  0  0  0.088533  0  3.934547  0  0  0.056899  0.070276  0  3.907476  0
C  C39  1  0.95507912  0.66724111  0.28936277  1  0  0.123888  0  3.667993  0  0  0.077325  0  3.918388  0  0  0.088508  0  3.934532  0  0  0.056863  0.070242  0  3.907469  0
C  C40  1  0.46288957  0.65528439  0.29593832  1  0  -0.001002  0  3.649915  0  0  -0.045742  0  3.904062  0  0  -0.036051  0  3.916498  0  0  -0.049857  -0.051707  0  3.895688  0
C  C41  1  0.53711081  0.34471427  0.70406085  1  0  -0.001079  0  3.64997  0  0  -0.045792  0  3.90414  0  0  -0.036103  0  3.916581  0  0  -0.049882  -0.05176  0  3.895758  0
C  C42  1  0.35357869  0.42592743  0.36361130  1  0  0.133643  0  3.633417  0  0  0.088052  0  3.882111  0  0  0.099011  0  3.897545  0  0  0.05734  0.081131  0  3.871644  0
C  C43  1  0.64641948  0.57407495  0.63638867  1  0  0.133616  0  3.633351  0  0  0.088067  0  3.882034  0  0  0.099029  0  3.897466  0  0  0.057346  0.08114  0  3.87157  0
C  C44  1  0.07544679  0.99941981  0.69360673  1  0  -0.107503  0  3.699927  0  0  -0.078174  0  3.932926  0  0  -0.092188  0  3.955598  0  0  -0.005847  -0.069576  0  3.918046  0
C  C45  1  0.92454960  0.00057889  0.30639277  1  0  -0.107613  0  3.699989  0  0  -0.078301  0  3.933  0  0  -0.092318  0  3.955676  0  0  -0.005881  -0.069684  0  3.918102  0
C  C46  1  0.40316440  0.76012744  0.36654958  1  0  -0.127963  0  3.753916  0  0  -0.101231  0  3.994531  0  0  -0.11631  0  4.019097  0  0  -0.011512  -0.091805  0  3.978318  0
C  C47  1  0.59683616  0.23987244  0.63345112  1  0  -0.127895  0  3.753941  0  0  -0.101194  0  3.994547  0  0  -0.116272  0  4.019112  0  0  -0.011509  -0.091769  0  3.978331  0
C  C48  1  0.11752731  0.09403640  0.62477956  1  0  0.143023  0  3.621982  0  0  0.096709  0  3.870613  0  0  0.107901  0  3.887249  0  0  0.062748  0.089646  0  3.85928  0
C  C49  1  0.88247040  0.90596229  0.37521936  1  0  0.143124  0  3.622192  0  0  0.096828  0  3.870811  0  0  0.108021  0  3.887448  0  0  0.062805  0.089759  0  3.859481  0
C  C50  1  0.09692120  0.81715586  0.68374970  1  0  0.70217  0  3.889031  0  0  0.652323  0  4.182965  0  0  0.687472  0  4.174504  0  0  0.218728  0.62852  0  4.188011  0
C  C51  1  0.90307785  0.18284281  0.31624934  1  0  0.702202  0  3.888925  0  0  0.652383  0  4.182829  0  0  0.687528  0  4.174373  0  0  0.218764  0.62857  0  4.18788  0
C  C52  1  0.32694336  0.69164166  0.43621059  1  0  0.132773  0  3.630367  0  0  0.086376  0  3.879244  0  0  0.097616  0  3.895466  0  0  0.060726  0.079286  0  3.868027  0
C  C53  1  0.67305868  0.30835945  0.56378965  1  0  0.132782  0  3.630302  0  0  0.086377  0  3.87918  0  0  0.097618  0  3.895403  0  0  0.060725  0.079296  0  3.867955  0
C  C54  1  0.40551147  0.94067546  0.36179226  1  0  0.659817  0  3.833743  0  0  0.609072  0  4.131328  0  0  0.64247  0  4.124936  0  0  0.23102  0.586463  0  4.135141  0
C  C55  1  0.59449042  0.05932442  0.63820786  1  0  0.659677  0  3.833871  0  0  0.609019  0  4.131337  0  0  0.642416  0  4.124945  0  0  0.230998  0.586402  0  4.135161  0
N  N56  1  0.10309802  0.25781663  0.63348099  1  0  -0.302782  0  3.342446  0  0  -0.20483  0  3.621761  0  0  -0.228426  0  3.640037  0  0  -0.349456  -0.189012  0  3.608846  0
N  N57  1  0.89690014  0.74218576  0.36651827  1  0  -0.302819  0  3.342533  0  0  -0.204888  0  3.621897  0  0  -0.228483  0  3.640169  0  0  -0.349468  -0.189068  0  3.608987  0
N  N58  1  0.30207200  0.52729812  0.43416594  1  0  -0.298449  0  3.342636  0  0  -0.204388  0  3.625701  0  0  -0.227117  0  3.643101  0  0  -0.347987  -0.189208  0  3.61347  0
N  N59  1  0.69792735  0.47270302  0.56583334  1  0  -0.29848  0  3.342584  0  0  -0.204392  0  3.6256  0  0  -0.227122  0  3.643  0  0  -0.348003  -0.189213  0  3.613367  0
O  O60  1  0.86270739  0.24732253  0.91895599  1  0  -0.695329  0  2.000952  0  0  -0.650323  0  2.248899  0  0  -0.674614  0  2.237764  0  0  -0.378744  -0.633523  0  2.256128  0
O  O61  1  0.13729302  0.75267612  0.08104459  1  0  -0.695328  0  2.000994  0  0  -0.650354  0  2.248965  0  0  -0.674647  0  2.237829  0  0  -0.378749  -0.63355  0  2.256196  0
O  O62  1  0.61591747  0.42828279  0.17685542  1  0  -0.698213  0  2.030273  0  0  -0.655156  0  2.286246  0  0  -0.68079  0  2.276224  0  0  -0.377012  -0.637245  0  2.292644  0
O  O63  1  0.38408339  0.57171955  0.82314551  1  0  -0.698219  0  2.030285  0  0  -0.655146  0  2.286269  0  0  -0.68078  0  2.276245  0  0  -0.376996  -0.637234  0  2.292665  0
O  O64  1  0.72769617  0.99748645  0.05367952  1  0  -0.679823  0  2.07744  0  0  -0.63377  0  2.322552  0  0  -0.657726  0  2.312023  0  0  -0.356908  -0.617005  0  2.329368  0
O  O65  1  0.27230036  0.00251348  0.94631939  1  0  -0.679815  0  2.077452  0  0  -0.633788  0  2.322532  0  0  -0.657742  0  2.311995  0  0  -0.35694  -0.617028  0  2.329353  0
O  O66  1  0.09599805  0.16833504  0.07858945  1  0  -0.90387  0  1.887414  0  0  -0.85974  0  2.076102  0  0  -0.877275  0  2.044872  0  0  -0.633299  -0.847313  0  2.097957  0
O  O67  1  0.90400222  0.83166237  0.92141172  1  0  -0.903848  0  1.88743  0  0  -0.859698  0  2.076185  0  0  -0.877253  0  2.044912  0  0  -0.633253  -0.84727  0  2.098045  0
O  O68  1  0.71893500  0.53590738  0.00926617  1  0  -0.92875  0  1.872499  0  0  -0.885151  0  2.064788  0  0  -0.902695  0  2.030968  0  0  -0.649682  -0.872748  0  2.0885  0
O  O69  1  0.28106408  0.46409128  0.99073428  1  0  -0.928741  0  1.872498  0  0  -0.885144  0  2.064776  0  0  -0.902688  0  2.030956  0  0  -0.649685  -0.872735  0  2.088493  0
O  O70  1  0.49784837  0.20956680  0.98888965  1  0  -0.649825  0  2.080448  0  0  -0.603258  0  2.315994  0  0  -0.626317  0  2.30499  0  0  -0.334215  -0.587232  0  2.323236  0
O  O71  1  0.50214800  0.79043190  0.01110914  1  0  -0.649855  0  2.080446  0  0  -0.603256  0  2.316031  0  0  -0.626315  0  2.305027  0  0  -0.334253  -0.587231  0  2.323275  0
O  O72  1  0.06439056  0.50852741  0.12557170  1  0  -0.76829  0  2.070587  0  0  -0.716077  0  2.322703  0  0  -0.742141  0  2.310657  0  0  -0.391412  -0.697817  0  2.330511  0
O  O73  1  0.93561133  0.49147246  0.87442842  1  0  -0.768313  0  2.070657  0  0  -0.71608  0  2.322754  0  0  -0.742156  0  2.310732  0  0  -0.39141  -0.69782  0  2.330554  0
O  O74  1  0.91451730  0.25137252  0.24138699  1  0  -0.771233  0  2.043395  0  0  -0.724101  0  2.304273  0  0  -0.750266  0  2.292309  0  0  -0.425698  -0.70554  0  2.311847  0
O  O75  1  0.08548341  0.74862859  0.75861383  1  0  -0.771221  0  2.043382  0  0  -0.724081  0  2.304275  0  0  -0.750252  0  2.292317  0  0  -0.425693  -0.70552  0  2.311843  0
O  O76  1  0.42708884  0.22070207  0.20066705  1  0  -0.664368  0  2.0036  0  0  -0.604971  0  2.226791  0  0  -0.629225  0  2.213349  0  0  -0.31022  -0.588048  0  2.23558  0
O  O77  1  0.57291173  0.77929780  0.79933436  1  0  -0.664374  0  2.003627  0  0  -0.604945  0  2.226812  0  0  -0.629204  0  2.213373  0  0  -0.310222  -0.588026  0  2.235605  0
O  O78  1  0.12184332  0.74435215  0.60428603  1  0  -0.64655  0  1.973607  0  0  -0.59008  0  2.233143  0  0  -0.615609  0  2.219372  0  0  -0.323349  -0.57219  0  2.241957  0
O  O79  1  0.87815454  0.25564777  0.39571301  1  0  -0.646553  0  1.973483  0  0  -0.590092  0  2.232995  0  0  -0.615624  0  2.219237  0  0  -0.323368  -0.572201  0  2.241822  0
O  O80  1  0.48132108  0.97749815  0.28924993  1  0  -0.548287  0  2.113321  0  0  -0.495582  0  2.328788  0  0  -0.519152  0  2.313283  0  0  -0.324477  -0.479062  0  2.338991  0
O  O81  1  0.51868364  0.02250293  0.71075056  1  0  -0.548197  0  2.113329  0  0  -0.495529  0  2.328771  0  0  -0.519099  0  2.313272  0  0  -0.324454  -0.479005  0  2.338973  0
O  O82  1  0.33890705  0.03799624  0.41547767  1  0  -0.559757  0  1.9259  0  0  -0.518314  0  2.149395  0  0  -0.540851  0  2.143348  0  0  -0.286318  -0.502838  0  2.153236  0
O  O83  1  0.66109217  0.96200366  0.58452220  1  0  -0.559715  0  1.926012  0  0  -0.518303  0  2.149457  0  0  -0.54084  0  2.143414  0  0  -0.286306  -0.502828  0  2.153303  0
