# generated using pymatgen
data_CuMo4H11C12N2O13
_symmetry_space_group_name_H-M   'P 1'
_cell_length_a   8.33742795
_cell_length_b   10.80067971
_cell_length_c   12.47356714
_cell_angle_alpha   110.45480870
_cell_angle_beta   106.66523415
_cell_angle_gamma   96.97832485
_symmetry_Int_Tables_number   1
_chemical_formula_structural   CuMo4H11C12N2O13
_chemical_formula_sum   'Cu2 Mo8 H22 C24 N4 O26'
_cell_volume   976.97401564
_cell_formula_units_Z   2
loop_
 _symmetry_equiv_pos_site_id
 _symmetry_equiv_pos_as_xyz
  1  'x, y, z'
loop_
 _atom_site_type_symbol
 _atom_site_label
 _atom_site_symmetry_multiplicity
 _atom_site_fract_x
 _atom_site_fract_y
 _atom_site_fract_z
 _atom_site_occupancy
 _atom_site_hle17_bader_spin_density
 _atom_site_hle17_ddec_charge
 _atom_site_hle17_ddec_spin_density
 _atom_site_hle17_ddec_sum_bond_order
 _atom_site_hle17_magmom
 _atom_site_hse06_10hf_bader_spin_density
 _atom_site_hse06_10hf_ddec_charge
 _atom_site_hse06_10hf_ddec_spin_density
 _atom_site_hse06_10hf_ddec_sum_bond_order
 _atom_site_hse06_10hf_magmom
 _atom_site_hse06_bader_spin_density
 _atom_site_hse06_ddec_charge
 _atom_site_hse06_ddec_spin_density
 _atom_site_hse06_ddec_sum_bond_order
 _atom_site_hse06_magmom
 _atom_site_pbe_bader_spin_density
 _atom_site_pbe_cm5_charge
 _atom_site_pbe_ddec_charge
 _atom_site_pbe_ddec_spin_density
 _atom_site_pbe_ddec_sum_bond_order
 _atom_site_pbe_magmom
Cu  Cu0  1  0.21934650  0.88707850  0.70299091  1  0  0.811216  0  1.786714  0  0  0.717925  0  2.283626  0  0  0.700211  0  2.244301  0  0  0.591904  0.731752  0  2.307846  0
Cu  Cu1  1  0.78065167  0.11292433  0.29700757  1  0  0.811233  0  1.786714  0  0  0.71797  0  2.283639  0  0  0.700221  0  2.244318  0  0  0.591891  0.731769  0  2.307837  0
Mo  Mo2  1  0.01293988  0.55807854  0.65005949  1  0  2.238521  0  3.973311  0  0  2.243737  0  4.492861  0  0  2.341258  0  4.461412  0  0  1.508849  2.1696  0  4.524749  0
Mo  Mo3  1  0.98706298  0.44192325  0.34993958  1  0  2.238472  0  3.973251  0  0  2.243677  0  4.492817  0  0  2.341202  0  4.46137  0  0  1.508788  2.169537  0  4.524702  0
Mo  Mo4  1  0.62457172  0.57141428  0.65535383  1  0  2.218623  0  4.07899  0  0  2.213545  0  4.612518  0  0  2.314591  0  4.57458  0  0  1.50563  2.138548  0  4.645384  0
Mo  Mo5  1  0.37542706  0.42858650  0.34464415  1  0  2.218618  0  4.078983  0  0  2.213517  0  4.612532  0  0  2.314563  0  4.574589  0  0  1.505633  2.138523  0  4.645394  0
Mo  Mo6  1  0.58880411  0.24954211  0.51371591  1  0  2.195614  0  4.056704  0  0  2.19278  0  4.593909  0  0  2.289925  0  4.560193  0  0  1.501569  2.12081  0  4.624691  0
Mo  Mo7  1  0.41119467  0.75045867  0.48628367  1  0  2.195574  0  4.056755  0  0  2.192737  0  4.593961  0  0  2.289878  0  4.560248  0  0  1.501581  2.12078  0  4.624752  0
Mo  Mo8  1  0.19631546  0.26671888  0.50896688  1  0  2.229548  0  3.987882  0  0  2.230011  0  4.512363  0  0  2.328473  0  4.478343  0  0  1.509333  2.156103  0  4.545438  0
Mo  Mo9  1  0.80368550  0.73328088  0.49103201  1  0  2.229597  0  3.987918  0  0  2.230046  0  4.512402  0  0  2.328508  0  4.478382  0  0  1.50934  2.156142  0  4.545478  0
H  H10  1  0.42981714  0.11602434  0.71681543  1  0  0.099714  0  0.941702  0  0  0.108923  0  1.001907  0  0  0.111717  0  0.998352  0  0  0.117975  0.106741  0  1.004898  0
H  H11  1  0.57018163  0.88397644  0.28318415  1  0  0.099709  0  0.94169  0  0  0.108925  0  1.001894  0  0  0.11172  0  0.998338  0  0  0.117982  0.106742  0  1.004881  0
H  H12  1  0.60936131  0.34369666  0.86823475  1  0  0.122098  0  0.934566  0  0  0.133156  0  0.989327  0  0  0.135781  0  0.988799  0  0  0.11359  0.13122  0  0.989894  0
H  H13  1  0.39063997  0.65630412  0.13176692  1  0  0.122111  0  0.934546  0  0  0.133169  0  0.98931  0  0  0.135793  0  0.988782  0  0  0.113592  0.13123  0  0.989874  0
H  H14  1  0.64398159  0.40807523  0.09207302  1  0  0.108006  0  0.939057  0  0  0.121808  0  0.990954  0  0  0.123851  0  0.989956  0  0  0.112498  0.120216  0  0.991849  0
H  H15  1  0.35601998  0.59192248  0.90792778  1  0  0.107947  0  0.939074  0  0  0.12175  0  0.990981  0  0  0.123789  0  0.989983  0  0  0.112479  0.120158  0  0.991876  0
H  H16  1  0.48735391  0.24277523  0.14651567  1  0  0.117409  0  0.985646  0  0  0.124615  0  1.05029  0  0  0.127624  0  1.048613  0  0  0.107106  0.122369  0  1.051823  0
H  H17  1  0.51264580  0.75722453  0.85348458  1  0  0.117403  0  0.985629  0  0  0.12461  0  1.050286  0  0  0.127615  0  1.04861  0  0  0.107077  0.122364  0  1.051817  0
H  H18  1  0.18170453  0.90494630  0.90163182  1  0  0.088503  0  0.973094  0  0  0.09374  0  1.051398  0  0  0.099543  0  1.044317  0  0  0.101413  0.089377  0  1.05669  0
H  H19  1  0.81829643  0.09505346  0.09836868  1  0  0.088504  0  0.973106  0  0  0.093749  0  1.051396  0  0  0.099548  0  1.044323  0  0  0.101422  0.089388  0  1.056687  0
H  H20  1  0.33315215  0.10076587  0.17620861  1  0  0.124907  0  0.962926  0  0  0.133355  0  1.026102  0  0  0.137163  0  1.023442  0  0  0.111856  0.1305  0  1.028217  0
H  H21  1  0.66684473  0.89923287  0.82379080  1  0  0.124876  0  0.962965  0  0  0.133346  0  1.026126  0  0  0.137153  0  1.023466  0  0  0.111856  0.130493  0  1.028239  0
H  H22  1  0.03063206  0.75678525  0.92874438  1  0  0.121029  0  0.952081  0  0  0.129825  0  1.012742  0  0  0.132734  0  1.012183  0  0  0.114124  0.12775  0  1.013252  0
H  H23  1  0.96936358  0.24321349  0.07125719  1  0  0.121007  0  0.952086  0  0  0.129801  0  1.012742  0  0  0.132711  0  1.012182  0  0  0.114112  0.12773  0  1.013253  0
H  H24  1  0.85686758  0.60238189  0.98154357  1  0  0.118179  0  0.934504  0  0  0.132558  0  0.98399  0  0  0.135126  0  0.981614  0  0  0.117016  0.130636  0  0.985688  0
H  H25  1  0.14313055  0.39761685  0.01845928  1  0  0.118128  0  0.934485  0  0  0.132483  0  0.984014  0  0  0.135053  0  0.981637  0  0  0.11698  0.130565  0  0.985708  0
H  H26  1  0.87408974  0.67037859  0.20121976  1  0  0.134996  0  0.965367  0  0  0.144565  0  1.020718  0  0  0.147863  0  1.019282  0  0  0.113955  0.141993  0  1.022257  0
H  H27  1  0.12591122  0.32962116  0.79878394  1  0  0.134971  0  0.965391  0  0  0.144556  0  1.02072  0  0  0.147852  0  1.019286  0  0  0.113959  0.141989  0  1.02226  0
H  H28  1  0.07480186  0.89467760  0.35883067  1  0  0.115632  0  0.904477  0  0  0.125654  0  0.960023  0  0  0.127861  0  0.958007  0  0  0.141446  0.123945  0  0.961625  0
H  H29  1  0.92519942  0.10532318  0.64117099  1  0  0.115646  0  0.904498  0  0  0.125669  0  0.96004  0  0  0.127877  0  0.958024  0  0  0.141435  0.123965  0  0.96164  0
H  H30  1  0.23502800  0.03059566  0.30267377  1  0  0.326975  0  0.894641  0  0  0.307246  0  0.954852  0  0  0.31707  0  0.946715  0  0  0.313945  0.300124  0  0.960849  0
H  H31  1  0.76497013  0.96940308  0.69732668  1  0  0.32693  0  0.894695  0  0  0.307198  0  0.954905  0  0  0.317024  0  0.946772  0  0  0.313944  0.300079  0  0.960904  0
C  C32  1  0.44193204  0.14863565  0.81236669  1  0  0.146373  0  3.678082  0  0  0.113135  0  3.936968  0  0  0.119848  0  3.952657  0  0  0.042944  0.108489  0  3.926721  0
C  C33  1  0.55806674  0.85136513  0.18763369  1  0  0.146445  0  3.678133  0  0  0.113188  0  3.937039  0  0  0.119904  0  3.952724  0  0  0.042961  0.108542  0  3.926787  0
C  C34  1  0.54449649  0.27611192  0.89875400  1  0  -0.098263  0  3.686623  0  0  -0.110255  0  3.935264  0  0  -0.117724  0  3.959142  0  0  -0.075466  -0.105128  0  3.919202  0
C  C35  1  0.45550479  0.72388886  0.10124687  1  0  -0.098299  0  3.686652  0  0  -0.110294  0  3.935301  0  0  -0.117764  0  3.959178  0  0  -0.075463  -0.105152  0  3.919231  0
C  C36  1  0.56146190  0.31099062  0.02083285  1  0  0.00247  0  3.6934  0  0  -0.016917  0  3.940467  0  0  -0.015304  0  3.962521  0  0  -0.062914  -0.018018  0  3.925762  0
C  C37  1  0.43854031  0.68900914  0.97916788  1  0  0.002596  0  3.693464  0  0  -0.016778  0  3.940516  0  0  -0.015161  0  3.962564  0  0  -0.062863  -0.017894  0  3.925819  0
C  C38  1  0.47297483  0.21851474  0.05140860  1  0  -0.123756  0  3.65169  0  0  -0.139433  0  3.894355  0  0  -0.146693  0  3.917812  0  0  -0.07483  -0.135188  0  3.879291  0
C  C39  1  0.52702456  0.78148399  0.94859209  1  0  -0.123812  0  3.651818  0  0  -0.1395  0  3.894495  0  0  -0.146752  0  3.917946  0  0  -0.074833  -0.135244  0  3.87942  0
C  C40  1  0.36478638  0.09413829  0.95964883  1  0  0.222484  0  3.804229  0  0  0.224924  0  4.041801  0  0  0.229586  0  4.065228  0  0  0.104364  0.221922  0  4.02605  0
C  C41  1  0.63521208  0.90586147  0.04035118  1  0  0.222538  0  3.804245  0  0  0.224973  0  4.041839  0  0  0.229628  0  4.065267  0  0  0.104411  0.221961  0  4.026084  0
C  C42  1  0.26047164  0.99613094  0.98348922  1  0  -0.092753  0  3.709476  0  0  -0.11605  0  3.966528  0  0  -0.11466  0  3.983374  0  0  -0.071898  -0.116945  0  3.955211  0
C  C43  1  0.73952617  0.00386678  0.01651005  1  0  -0.092806  0  3.709529  0  0  -0.116112  0  3.96663  0  0  -0.114723  0  3.983479  0  0  -0.071971  -0.117004  0  3.955307  0
C  C44  1  0.25406159  0.01009698  0.09431749  1  0  -0.142946  0  3.684629  0  0  -0.164371  0  3.940203  0  0  -0.171685  0  3.961619  0  0  -0.082755  -0.159305  0  3.925548  0
C  C45  1  0.74593655  0.98990176  0.90568136  1  0  -0.142901  0  3.684732  0  0  -0.164375  0  3.940298  0  0  -0.171683  0  3.96171  0  0  -0.082761  -0.159313  0  3.925637  0
C  C46  1  0.14679301  0.91020618  0.11376588  1  0  0.264838  0  3.737987  0  0  0.257178  0  3.979452  0  0  0.268617  0  3.999292  0  0  0.133461  0.249764  0  3.965904  0
C  C47  1  0.85320480  0.08979154  0.88623420  1  0  0.264703  0  3.73823  0  0  0.257121  0  3.979605  0  0  0.268551  0  3.999453  0  0  0.133439  0.249706  0  3.96605  0
C  C48  1  0.03816596  0.78557894  0.02306003  1  0  -0.145337  0  3.665706  0  0  -0.163004  0  3.913435  0  0  -0.173106  0  3.936765  0  0  -0.069393  -0.156809  0  3.897885  0
C  C49  1  0.96183029  0.21441776  0.97694024  1  0  -0.145237  0  3.665666  0  0  -0.162907  0  3.91334  0  0  -0.173004  0  3.93667  0  0  -0.069338  -0.156715  0  3.897789  0
C  C50  1  0.94098262  0.69840852  0.05348807  1  0  0.034607  0  3.654348  0  0  0.013904  0  3.901605  0  0  0.01991  0  3.918547  0  0  -0.047277  0.010389  0  3.889923  0
C  C51  1  0.05901520  0.30158920  0.94651281  1  0  0.034672  0  3.654256  0  0  0.013977  0  3.901528  0  0  0.019983  0  3.918469  0  0  -0.047255  0.010473  0  3.889841  0
C  C52  1  0.94921099  0.73528458  0.17437779  1  0  -0.097007  0  3.662015  0  0  -0.113294  0  3.917399  0  0  -0.121566  0  3.937474  0  0  -0.06965  -0.10822  0  3.904501  0
C  C53  1  0.05078966  0.26471416  0.82562394  1  0  -0.096943  0  3.662096  0  0  -0.113244  0  3.917494  0  0  -0.121517  0  3.93757  0  0  -0.069606  -0.108167  0  3.904585  0
C  C54  1  0.05856042  0.85797666  0.26238564  1  0  0.181329  0  3.583595  0  0  0.13664  0  3.84659  0  0  0.14749  0  3.85855  0  0  0.078616  0.129379  0  3.838875  0
C  C55  1  0.94144054  0.14202310  0.73761646  1  0  0.181212  0  3.583635  0  0  0.136524  0  3.846644  0  0  0.147373  0  3.858604  0  0  0.078596  0.129266  0  3.838942  0
N  N56  1  0.35261987  0.05936937  0.84052965  1  0  -0.406531  0  3.372305  0  0  -0.342827  0  3.686491  0  0  -0.352876  0  3.695899  0  0  -0.366911  -0.336081  0  3.679632  0
N  N57  1  0.64737891  0.94063141  0.15947074  1  0  -0.40661  0  3.372416  0  0  -0.342904  0  3.68663  0  0  -0.352943  0  3.696026  0  0  -0.366954  -0.33615  0  3.679751  0
N  N58  1  0.15251567  0.94022810  0.23067759  1  0  -0.254833  0  3.386479  0  0  -0.183529  0  3.601583  0  0  -0.199224  0  3.612858  0  0  -0.335864  -0.173187  0  3.594298  0
N  N59  1  0.84748372  0.05977063  0.76932309  1  0  -0.254683  0  3.386504  0  0  -0.183414  0  3.601603  0  0  -0.199108  0  3.612882  0  0  -0.33584  -0.173069  0  3.594319  0
O  O60  1  0.05593560  0.51994391  0.77562273  1  0  -0.670586  0  1.438546  0  0  -0.666613  0  1.678837  0  0  -0.689795  0  1.671468  0  0  -0.499381  -0.649086  0  1.685302  0
O  O61  1  0.94406851  0.48005788  0.22437658  1  0  -0.670508  0  1.438513  0  0  -0.666524  0  1.678794  0  0  -0.689706  0  1.671427  0  0  -0.499326  -0.64899  0  1.685255  0
O  O62  1  0.84310471  0.67397022  0.66545153  1  0  -0.980984  0  1.774531  0  0  -0.971144  0  2.062911  0  0  -1.01183  0  2.056679  0  0  -0.601147  -0.939841  0  2.06736  0
O  O63  1  0.15689625  0.32602954  0.33454576  1  0  -0.980978  0  1.774519  0  0  -0.971151  0  2.062924  0  0  -1.011829  0  2.056678  0  0  -0.601158  -0.939849  0  2.067376  0
O  O64  1  0.74950218  0.42138268  0.56938192  1  0  -1.010729  0  1.830218  0  0  -1.00573  0  2.133689  0  0  -1.048863  0  2.127198  0  0  -0.611126  -0.972509  0  2.137694  0
O  O65  1  0.25049753  0.57861708  0.43061754  1  0  -1.010709  0  1.830236  0  0  -1.005702  0  2.133703  0  0  -1.048838  0  2.127214  0  0  -0.611121  -0.972482  0  2.137715  0
O  O66  1  0.67228164  0.56229972  0.79428045  1  0  -0.666319  0  1.444016  0  0  -0.656199  0  1.686023  0  0  -0.678854  0  1.675967  0  0  -0.497029  -0.639705  0  1.693991  0
O  O67  1  0.32771778  0.43770310  0.20571827  1  0  -0.666357  0  1.443983  0  0  -0.656208  0  1.685968  0  0  -0.678864  0  1.675912  0  0  -0.497048  -0.639711  0  1.69393  0
O  O68  1  0.43667885  0.41440463  0.55026398  1  0  -1.079201  0  1.929192  0  0  -1.065754  0  2.228116  0  0  -1.110521  0  2.2228  0  0  -0.615295  -1.030801  0  2.230422  0
O  O69  1  0.56331868  0.58559615  0.44973537  1  0  -1.079194  0  1.929179  0  0  -1.065749  0  2.228123  0  0  -1.110509  0  2.222788  0  0  -0.615294  -1.0308  0  2.230449  0
O  O70  1  0.51490755  0.70181882  0.66483383  1  0  -0.769366  0  1.616025  0  0  -0.761614  0  1.893861  0  0  -0.789789  0  1.881064  0  0  -0.534815  -0.741129  0  1.903731  0
O  O71  1  0.48509187  0.29818400  0.33516570  1  0  -0.769352  0  1.616038  0  0  -0.761587  0  1.893877  0  0  -0.789768  0  1.881084  0  0  -0.534799  -0.741092  0  1.903728  0
O  O72  1  0.67051874  0.12739710  0.42683111  1  0  -0.741334  0  1.633597  0  0  -0.724405  0  1.939049  0  0  -0.744416  0  1.919152  0  0  -0.544829  -0.71007  0  1.953665  0
O  O73  1  0.32948222  0.87260266  0.57316858  1  0  -0.741328  0  1.633632  0  0  -0.724395  0  1.939076  0  0  -0.744409  0  1.919185  0  0  -0.544849  -0.710063  0  1.953708  0
O  O74  1  0.63157829  0.23065129  0.64888792  1  0  -0.672467  0  1.442459  0  0  -0.671396  0  1.692354  0  0  -0.697011  0  1.686718  0  0  -0.503631  -0.652907  0  1.697451  0
O  O75  1  0.36842081  0.76935051  0.35111204  1  0  -0.672458  0  1.442509  0  0  -0.671398  0  1.692441  0  0  -0.697015  0  1.686806  0  0  -0.503636  -0.65292  0  1.697544  0
O  O76  1  0.24494621  0.26763034  0.65143604  1  0  -0.655066  0  1.450951  0  0  -0.65217  0  1.697526  0  0  -0.676296  0  1.68996  0  0  -0.490655  -0.634121  0  1.704043  0
O  O77  1  0.75505161  0.73236738  0.34856163  1  0  -0.65512  0  1.451009  0  0  -0.652196  0  1.697565  0  0  -0.676321  0  1.690001  0  0  -0.490665  -0.63416  0  1.704086  0
O  O78  1  0.34159891  0.15942592  0.44202609  1  0  -0.91477  0  1.75966  0  0  -0.901955  0  2.037632  0  0  -0.94277  0  2.032291  0  0  -0.58629  -0.87135  0  2.041787  0
O  O79  1  0.65840237  0.84057486  0.55797397  1  0  -0.914725  0  1.759596  0  0  -0.901899  0  2.03756  0  0  -0.942715  0  2.032224  0  0  -0.586249  -0.87129  0  2.041712  0
O  O80  1  0.08693513  0.42349621  0.53849345  1  0  -0.993241  0  1.870518  0  0  -0.988364  0  2.178278  0  0  -1.031937  0  2.171918  0  0  -0.610303  -0.954184  0  2.182413  0
O  O81  1  0.91306615  0.57650457  0.46150581  1  0  -0.993213  0  1.870445  0  0  -0.988338  0  2.178217  0  0  -1.031908  0  2.171846  0  0  -0.610315  -0.954171  0  2.182366  0
O  O82  1  0.99322699  0.86196475  0.58216357  1  0  -0.756227  0  1.713886  0  0  -0.744504  0  2.040019  0  0  -0.762855  0  2.018945  0  0  -0.547091  -0.731125  0  2.055359  0
O  O83  1  0.00677397  0.13803501  0.41783292  1  0  -0.756189  0  1.713893  0  0  -0.744464  0  2.040017  0  0  -0.762806  0  2.018925  0  0  -0.547057  -0.731086  0  2.055344  0
O  O84  1  0.17768452  0.70440745  0.70011833  1  0  -0.751377  0  1.739511  0  0  -0.739741  0  2.077194  0  0  -0.758502  0  2.057197  0  0  -0.543075  -0.725975  0  2.091784  0
O  O85  1  0.82231583  0.29559435  0.29988026  1  0  -0.751452  0  1.73958  0  0  -0.739805  0  2.077241  0  0  -0.758567  0  2.057248  0  0  -0.543045  -0.726023  0  2.091814  0
