# generated using pymatgen
data_Zn6H66C73(NO8)4
_symmetry_space_group_name_H-M   'P 1'
_cell_length_a   21.30989408
_cell_length_b   21.38197067
_cell_length_c   21.88136899
_cell_angle_alpha   60.80512981
_cell_angle_beta   60.72539570
_cell_angle_gamma   89.73240131
_symmetry_Int_Tables_number   1
_chemical_formula_structural   Zn6H66C73(NO8)4
_chemical_formula_sum   'Zn6 H66 C73 N4 O32'
_cell_volume   7225.18036150
_cell_formula_units_Z   1
loop_
 _symmetry_equiv_pos_site_id
 _symmetry_equiv_pos_as_xyz
  1  'x, y, z'
loop_
 _atom_site_type_symbol
 _atom_site_label
 _atom_site_symmetry_multiplicity
 _atom_site_fract_x
 _atom_site_fract_y
 _atom_site_fract_z
 _atom_site_occupancy
 _atom_site_pbe_bader_charge
 _atom_site_pbe_bader_spin_density
 _atom_site_pbe_cm5_charge
 _atom_site_pbe_ddec_charge
 _atom_site_pbe_ddec_spin_density
 _atom_site_pbe_ddec_sum_bond_order
 _atom_site_pbe_magmom
Zn  Zn0  1  0.00580300  0.93468283  0.49818210  1  1.308121  0  0.721174  0.948479  0  2.184733  0
Zn  Zn1  1  0.00387879  0.05987973  0.50086087  1  1.305309  0  0.724915  0.955948  0  2.107003  0
Zn  Zn2  1  0.42892940  0.50348370  0.49629418  1  1.304946  0  0.718552  0.948662  0  2.167481  0
Zn  Zn3  1  0.55609974  0.50184671  0.49466368  1  1.299372  0  0.72403  0.948556  0  2.134162  0
Zn  Zn4  1  0.54493635  0.03904265  0.42091038  1  1.308675  0  0.721531  0.952459  0  2.156592  0
Zn  Zn5  1  0.45844638  0.95664528  0.59105374  1  1.309336  0  0.727566  0.959793  0  2.121779  0
H  H6  1  0.67866452  0.81427878  0.92209395  1  0.084809  0  0.108704  0.098996  0  0.980612  0
H  H7  1  0.61778431  0.65606182  0.04303643  1  0.040255  0  0.104582  0.092848  0  0.986806  0
H  H8  1  0.70182039  0.83137792  0.03099575  1  0.059945  0  0.106298  0.094664  0  0.984887  0
H  H9  1  0.84899392  0.81857646  0.95131123  1  0.060055  0  0.105852  0.094076  0  0.985741  0
H  H10  1  0.78903288  0.66057264  0.07203043  1  0.063764  0  0.10565  0.094886  0  0.984709  0
H  H11  1  0.76478749  0.64222487  0.96437602  1  0.055868  0  0.104897  0.093914  0  0.986509  0
H  H12  1  0.84529267  0.96588709  0.44335114  1  0.069403  0  0.098975  0.107633  0  0.982601  0
H  H13  1  0.85024894  0.06145247  0.38747221  1  0.028283  0  0.096053  0.095189  0  0.969136  0
H  H14  1  0.73661533  0.01678887  0.40845088  1  0.050369  0  0.09556  0.104244  0  0.987478  0
H  H15  1  0.72144431  0.92370087  0.48590260  1  0.015859  0  0.091445  0.088229  0  0.999523  0
H  H16  1  0.76475660  0.89045502  0.59911544  1  0.024965  0  0.094106  0.098462  0  0.97671  0
H  H17  1  0.63741782  0.87641653  0.64309785  1  0.044776  0  0.092875  0.095804  0  0.978412  0
H  H18  1  0.82352539  0.13092689  0.44873990  1  0.107998  0  0.123657  0.092247  0  0.960949  0
H  H19  1  0.71491826  0.11352026  0.45163561  1  0.053543  0  0.102301  0.114188  0  0.966244  0
H  H20  1  0.66094110  0.07938052  0.56005857  1  0.08789  0  0.104465  0.117232  0  1.009767  0
H  H21  1  0.74530027  0.93168919  0.65709155  1  0.073528  0  0.095483  0.101997  0  0.99322  0
H  H22  1  0.63238398  0.94535870  0.66653819  1  0.061663  0  0.097102  0.104374  0  0.978991  0
H  H23  1  0.35862893  0.22121355  0.93029544  1  0.056401  0  0.109753  0.107085  0  0.97465  0
H  H24  1  0.23738637  0.36171354  0.95500325  1  0.111445  0  0.119658  0.131371  0  0.959354  0
H  H25  1  0.15994135  0.19332512  0.95285182  1  0.100749  0  0.117193  0.120887  0  0.965272  0
H  H26  1  0.22243673  0.10030537  0.03909038  1  0.089994  0  0.112061  0.106193  0  0.975052  0
H  H27  1  0.14068642  0.89394188  0.60449134  1  0.039859  0  0.092747  0.093499  0  0.984278  0
H  H28  1  0.11174976  0.94851626  0.64747718  1  0.027142  0  0.093287  0.092476  0  0.975169  0
H  H29  1  0.21648280  0.95762336  0.65603297  1  0.018711  0  0.092407  0.091685  0  0.978584  0
H  H30  1  0.22851689  0.88326823  0.64207554  1  -0.004255  0  0.094071  0.094276  0  0.984119  0
H  H31  1  0.22036198  0.95555058  0.44747946  1  0.055948  0  0.093211  0.100844  0  0.995809  0
H  H32  1  0.23734821  0.13497422  0.44065713  1  0.013051  0  0.092547  0.09242  0  0.980011  0
H  H33  1  0.18440180  0.08891742  0.55101356  1  0.047913  0  0.092978  0.093352  0  0.977668  0
H  H34  1  0.30039344  0.09109408  0.53795967  1  0.014129  0  0.088923  0.084029  0  0.985774  0
H  H35  1  0.34866102  0.11482310  0.43324969  1  0.026694  0  0.09119  0.089921  0  0.984724  0
H  H36  1  0.27239549  0.05208481  0.38082120  1  0.029193  0  0.090029  0.088222  0  0.977434  0
H  H37  1  0.36619583  0.02015280  0.40242841  1  0.02845  0  0.093999  0.065809  0  0.97431  0
H  H38  1  0.54172656  0.37486163  0.35347421  1  0.036582  0  0.094543  0.09569  0  0.96928  0
H  H39  1  0.44728176  0.34459915  0.43887390  1  0.061648  0  0.095008  0.101603  0  0.990055  0
H  H40  1  0.42643492  0.22291876  0.46693097  1  0.037235  0  0.092284  0.088506  0  0.981808  0
H  H41  1  0.51130349  0.26162456  0.36686096  1  0.054452  0  0.099175  0.104006  0  0.97779  0
H  H42  1  0.64897599  0.36975381  0.37889584  1  0.043783  0  0.095742  0.099122  0  0.971363  0
H  H43  1  0.63156433  0.27867020  0.35236564  1  0.031331  0  0.095047  0.098499  0  0.97544  0
H  H44  1  0.41541738  0.25678273  0.58252809  1  0.044139  0  0.105251  0.081325  0  0.947023  0
H  H45  1  0.42117186  0.14702996  0.59313630  1  0.108686  0  0.122372  0.096962  0  0.967747  0
H  H46  1  0.62461690  0.30109856  0.48121491  1  0.055036  0  0.096881  0.101797  0  0.988069  0
H  H47  1  0.64270038  0.22008162  0.43531781  1  0.034251  0  0.09439  0.09769  0  1.004177  0
H  H48  1  0.51451100  0.73497647  0.38913978  1  0.044449  0  0.097336  0.104634  0  0.978291  0
H  H49  1  0.60487083  0.76051965  0.36842455  1  0.032179  0  0.099073  0.100782  0  0.970863  0
H  H50  1  0.58204025  0.87475657  0.34813045  1  0.064592  0  0.096347  0.102575  0  0.98505  0
H  H51  1  0.48402052  0.83659237  0.39972173  1  0.015476  0  0.092788  0.094008  0  0.973945  0
H  H52  1  0.40463221  0.68748428  0.53093823  1  0.096526  0  0.130816  0.108368  0  0.933065  0
H  H53  1  0.39469546  0.77983370  0.56174744  1  0.051571  0  0.099081  0.107089  0  0.988488  0
H  H54  1  0.62671127  0.70551396  0.47833076  1  0.050759  0  0.09872  0.073112  0  0.964416  0
H  H55  1  0.63563296  0.82749222  0.43012449  1  0.015862  0  0.096627  0.066419  0  0.959877  0
H  H56  1  0.43581317  0.74311368  0.61924063  1  0.071065  0  0.103655  0.113157  0  0.990108  0
H  H57  1  0.36064565  0.32413214  0.99659486  1  0.040133  0  0.099418  0.137024  0  0.985219  0
H  H58  1  0.27340300  0.29094850  0.09421444  1  0.054766  0  0.100421  0.140051  0  0.983409  0
H  H59  1  0.32784046  0.22915281  0.08358986  1  0.048345  0  0.096659  0.132773  0  0.99067  0
H  H60  1  0.25868656  0.85846342  0.54063050  1  0.031957  0  0.087829  0.117631  0  1.011403  0
H  H61  1  0.32395275  0.89556333  0.43224066  1  0.029515  0  0.087128  0.117281  0  0.999873  0
H  H62  1  0.35750381  0.88756397  0.49499845  1  0.022945  0  0.082758  0.115766  0  1.024524  0
H  H63  1  0.53912825  0.25165436  0.61736022  1  0.033645  0  0.094021  0.132414  0  1.004323  0
H  H64  1  0.46965937  0.29803867  0.63723944  1  0.055125  0  0.089891  0.136865  0  1.015791  0
H  H65  1  0.44200873  0.19853254  0.69428958  1  0.035836  0  0.092114  0.131361  0  1.000773  0
H  H66  1  0.49907743  0.65266007  0.65888611  1  0.016099  0  0.084333  0.113184  0  1.01653  0
H  H67  1  0.54181601  0.59447674  0.62538657  1  0.071544  0  0.090576  0.133651  0  1.0113  0
H  H68  1  0.59616494  0.66391240  0.61734320  1  0.016788  0  0.087718  0.119285  0  1.005287  0
H  H69  1  0.60944154  0.86710805  0.52425616  1  0.027917  0  0.086039  0.117494  0  1.044895  0
H  H70  1  0.54339865  0.77871010  0.61480554  1  0.03838  0  0.089666  0.12549  0  1.002881  0
H  H71  1  0.64048207  0.78697712  0.55515254  1  0.023359  0  0.089076  0.118983  0  1.00323  0
C  C72  1  0.88127469  0.01744671  0.51065092  1  1.546234  0  0.227502  0.601334  0  4.07551  0
C  C73  1  0.92652600  0.88845972  0.65762582  1  1.574123  0  0.21979  0.676507  0  4.214567  0
C  C74  1  0.12151254  0.02012450  0.50195640  1  1.52717  0  0.230104  0.605225  0  4.062169  0
C  C75  1  0.07871613  0.05348983  0.33936379  1  1.657662  0  0.224481  0.676544  0  4.209767  0
C  C76  1  0.66971112  0.69228602  0.02180814  1  0.003784  0  -0.067014  -0.076071  0  3.63021  0
C  C77  1  0.70216750  0.77945139  0.95662003  1  -0.023063  0  -0.064006  -0.070627  0  3.617516  0
C  C78  1  0.87834365  0.84200634  0.74784907  1  0.018323  0  -0.056356  -0.207731  0  4.002564  0
C  C79  1  0.58654809  0.63105698  0.24668119  1  0.262674  0  -0.060058  -0.213278  0  4.006205  0
C  C80  1  0.75041852  0.68398356  0.97977096  1  -0.000125  0  -0.068772  -0.079622  0  3.635276  0
C  C81  1  0.78428412  0.77188230  0.91212710  1  0.081093  0  0.008199  0.118493  0  3.807863  0
C  C82  1  0.76488247  0.69480720  0.03800436  1  -0.029566  0  -0.067401  -0.076399  0  3.627771  0
C  C83  1  0.68263473  0.70169357  0.08260499  1  0.139626  0  0.007953  0.118987  0  3.804146  0
C  C84  1  0.79721516  0.78198043  0.97271114  1  0.006852  0  -0.06587  -0.073168  0  3.624419  0
C  C85  1  0.71650390  0.79004759  0.01495199  1  -0.004647  0  -0.064403  -0.072441  0  3.622191  0
C  C86  1  0.83534806  0.80912452  0.82411476  1  -0.22836  0  -0.022516  -0.031352  0  4.085734  0
C  C87  1  0.63065089  0.66486715  0.17043031  1  -0.580078  0  -0.023612  -0.031811  0  4.088011  0
C  C88  1  0.81480610  0.00650685  0.44768711  1  -0.037676  0  -0.155633  -0.173938  0  3.857582  0
C  C89  1  0.73672879  0.98270101  0.46537491  1  -0.025093  0  -0.163429  -0.183804  0  3.873054  0
C  C90  1  0.74617265  0.93658696  0.60445354  1  -0.022204  0  -0.160393  -0.181193  0  3.861161  0
C  C91  1  0.77902396  0.08060410  0.50900958  1  0.183311  0  0.01318  -0.013853  0  3.704026  0
C  C92  1  0.80555367  0.01104049  0.52018974  1  0.041931  0  -0.009199  -0.004018  0  3.781043  0
C  C93  1  0.67636847  0.99107851  0.53579066  1  0.053706  0  -0.014044  0.034868  0  3.796219  0
C  C94  1  0.66721111  0.93303344  0.61923050  1  -0.050496  0  -0.162343  -0.186331  0  3.886464  0
C  C95  1  0.70465814  0.07077105  0.51306783  1  -0.037667  0  -0.149819  -0.223159  0  3.796688  0
C  C96  1  0.30138654  0.22508003  0.96051959  1  -0.003654  0  -0.066971  -0.11752  0  3.598056  0
C  C97  1  0.26948427  0.25259099  0.02149669  1  0.047358  0  0.012455  0.158485  0  3.645581  0
C  C98  1  0.11944718  0.09758918  0.24866126  1  -0.12444  0  -0.03988  -0.175908  0  3.951878  0
C  C99  1  0.34187934  0.36738164  0.74527431  1  -0.283986  0  -0.04545  -0.186327  0  3.978537  0
C  C100  1  0.22661369  0.15868384  0.01959040  1  -0.026362  0  -0.064647  -0.067999  0  3.642039  0
C  C101  1  0.19339012  0.18374467  0.08326834  1  0.180004  0  0.018382  0.061816  0  3.763412  0
C  C102  1  0.19207189  0.20951385  0.97208376  1  0.006082  0  -0.058097  -0.104199  0  3.601954  0
C  C103  1  0.26801308  0.27727531  0.91057227  1  0.133554  0  0.014434  0.135715  0  3.793584  0
C  C104  1  0.16141542  0.23768415  0.03154472  1  0.271656  0  0.097915  0.062521  0  3.638793  0
C  C105  1  0.23491597  0.30370297  0.97367762  1  -0.017471  0  -0.059689  -0.146597  0  3.577756  0
C  C106  1  0.15331966  0.13735813  0.17206268  1  -0.224853  0  -0.02664  -0.030935  0  4.08132  0
C  C107  1  0.30666473  0.32573221  0.82184817  1  0.048781  0  -0.022435  -0.033417  0  4.057624  0
C  C108  1  0.16052525  0.94474010  0.59926847  1  -0.033878  0  -0.154855  -0.175976  0  3.849654  0
C  C109  1  0.22563882  0.94100344  0.61279073  1  0.027199  0  -0.161528  -0.172412  0  3.88381  0
C  C110  1  0.24833852  0.00104689  0.44426631  1  -0.05879  0  -0.159501  -0.214394  0  3.841551  0
C  C111  1  0.22488363  0.08388572  0.49908725  1  -0.017978  0  -0.161432  -0.177642  0  3.88874  0
C  C112  1  0.18839508  0.01420397  0.51017326  1  0.053762  0  -0.015258  0.027156  0  3.809487  0
C  C113  1  0.30076524  0.99450679  0.52781458  1  0.03655  0  -0.014609  -0.011224  0  3.775579  0
C  C114  1  0.31100204  0.98094930  0.46026909  1  0.04978  0  -0.086756  0.044299  0  3.801877  0
C  C115  1  0.29802967  0.07642977  0.49725199  1  -0.021926  0  -0.155417  -0.17222  0  3.864396  0
C  C116  1  0.52541443  0.39235852  0.48007610  1  1.537212  0  0.22726  0.60198  0  4.069307  0
C  C117  1  0.54263937  0.58677492  0.33704682  1  1.591078  0  0.217564  0.67502  0  4.217484  0
C  C118  1  0.51523432  0.61607026  0.50303573  1  1.557607  0  0.223348  0.59557  0  4.116746  0
C  C119  1  0.38814128  0.41646386  0.65482603  1  1.588286  0  0.225284  0.679478  0  4.209162  0
C  C120  1  0.51700540  0.89231736  0.47853386  1  1.537942  0  0.226746  0.601252  0  4.069374  0
C  C121  1  0.60327202  0.98496746  0.53935429  1  1.53788  0  0.228353  0.597815  0  4.069998  0
C  C122  1  0.52349320  0.13432525  0.46805702  1  1.561213  0  0.223329  0.598083  0  4.077298  0
C  C123  1  0.36941462  0.98839355  0.53291769  1  1.536389  0  0.227933  0.60381  0  4.070315  0
C  C124  1  0.49965767  0.32929967  0.41955128  1  -0.049576  0  -0.160021  -0.181154  0  3.875671  0
C  C125  1  0.48708677  0.25340922  0.42846570  1  -0.050988  0  -0.15425  -0.175543  0  3.866104  0
C  C126  1  0.60783982  0.31573548  0.43701428  1  -0.029307  0  -0.162814  -0.182943  0  3.886556  0
C  C127  1  0.47268703  0.25364004  0.56546764  1  0.003659  0  -0.071991  0.0163  0  3.76448  0
C  C128  1  0.52833234  0.32443522  0.47392698  1  0.035337  0  -0.0134  -0.006323  0  3.7772  0
C  C129  1  0.52591434  0.20452196  0.46988380  1  0.030647  0  -0.010857  -0.002914  0  3.790894  0
C  C130  1  0.60804678  0.25414062  0.41931617  1  -0.010177  0  -0.161164  -0.181735  0  3.877138  0
C  C131  1  0.47788774  0.18248226  0.56180470  1  0.203349  0  0.012549  -0.060162  0  3.681588  0
C  C132  1  0.54470859  0.75271544  0.40951272  1  -0.032505  0  -0.153338  -0.17703  0  3.853175  0
C  C133  1  0.53259894  0.82593688  0.40433759  1  -0.035202  0  -0.161818  -0.187018  0  3.905997  0
C  C134  1  0.43724880  0.68853895  0.55699831  1  0.187556  0  0.012867  -0.008597  0  3.714209  0
C  C135  1  0.57222490  0.70820359  0.52070401  1  0.007933  0  -0.083582  0.00665  0  3.772467  0
C  C136  1  0.51713838  0.68814442  0.50154744  1  0.05187  0  -0.010733  -0.040814  0  3.767764  0
C  C137  1  0.51835239  0.81856134  0.48380253  1  0.040778  0  -0.013556  -0.002477  0  3.770429  0
C  C138  1  0.44162758  0.75806245  0.56076190  1  -0.026545  0  -0.159206  -0.232344  0  3.89376  0
C  C139  1  0.58355698  0.79241879  0.49391897  1  0.009011  0  -0.077556  0.010702  0  3.746677  0
C  C140  1  0.30999527  0.27533654  0.05063520  1  -0.064254  0  -0.231631  -0.417605  0  3.986369  0
C  C141  1  0.31278011  0.90109708  0.48375355  1  -0.099618  0  -0.244862  -0.391066  0  3.94448  0
C  C142  1  0.48173387  0.25026567  0.63216607  1  -0.053237  0  -0.250331  -0.411618  0  3.928949  0
C  C143  1  0.55068192  0.65176912  0.61075474  1  -0.070559  0  -0.251499  -0.392672  0  3.938841  0
C  C144  1  0.59434837  0.80672388  0.55058834  1  -0.069017  0  -0.248618  -0.392517  0  3.952534  0
N  N145  1  0.76710983  0.09899167  0.57237654  1  0.455992  0  0.049253  0.53082  0  4.158564  0
N  N146  1  0.08392252  0.24017151  0.07570146  1  0.381664  0  0.05459  0.512443  0  4.231004  0
N  N147  1  0.50392977  0.13073973  0.61660687  1  0.440954  0  0.048043  0.540122  0  4.152818  0
N  N148  1  0.38794907  0.61731178  0.64675800  1  0.483671  0  0.051766  0.517929  0  4.140321  0
O  O149  1  0.91121333  0.96736273  0.50569392  1  -1.183337  0  -0.309221  -0.571984  0  2.364464  0
O  O150  1  0.91047361  0.07198788  0.50806001  1  -1.123967  0  -0.308427  -0.515542  0  2.256876  0
O  O151  1  0.94662991  0.85541100  0.61786329  1  -1.125196  0  -0.32115  -0.530432  0  2.185871  0
O  O152  1  0.94527387  0.95916029  0.62362879  1  -1.135428  0  -0.309854  -0.566578  0  2.257166  0
O  O153  1  0.09636179  0.97031503  0.49688898  1  -1.18895  0  -0.31417  -0.577738  0  2.367753  0
O  O154  1  0.09325617  0.07364051  0.50176265  1  -1.133783  0  -0.314236  -0.525416  0  2.249643  0
O  O155  1  0.06160252  0.98126492  0.37692075  1  -1.117589  0  -0.316294  -0.526308  0  2.193459  0
O  O156  1  0.06296589  0.08912033  0.37473512  1  -1.13626  0  -0.305844  -0.559922  0  2.239758  0
O  O157  1  0.46867218  0.41559607  0.48840763  1  -1.180656  0  -0.310658  -0.57585  0  2.341412  0
O  O158  1  0.57890336  0.42053589  0.47989795  1  -1.12991  0  -0.310626  -0.516682  0  2.25288  0
O  O159  1  0.46979866  0.56620053  0.37659558  1  -1.088759  0  -0.321568  -0.529337  0  2.187939  0
O  O160  1  0.57929819  0.57030528  0.37145677  1  -1.148843  0  -0.31014  -0.565068  0  2.259738  0
O  O161  1  0.46372683  0.59257579  0.49900750  1  -1.186575  0  -0.317234  -0.587319  0  2.379751  0
O  O162  1  0.56864813  0.58719115  0.50170186  1  -1.138361  0  -0.308996  -0.513163  0  2.274991  0
O  O163  1  0.35372738  0.43909484  0.61672265  1  -1.114567  0  -0.316599  -0.525443  0  2.195381  0
O  O164  1  0.45936042  0.43303111  0.61934641  1  -1.134795  0  -0.304286  -0.562991  0  2.261858  0
O  O165  1  0.55601254  0.95499223  0.40568284  1  -1.140598  0  -0.316105  -0.529982  0  2.231749  0
O  O166  1  0.47756781  0.88689466  0.54804716  1  -1.182325  0  -0.310133  -0.568144  0  2.370764  0
O  O167  1  0.61067678  0.01829718  0.46862519  1  -1.185845  0  -0.315502  -0.58127  0  2.39197  0
O  O168  1  0.53930765  0.94829173  0.61119447  1  -1.144045  0  -0.309393  -0.51726  0  2.231407  0
O  O169  1  0.55976769  0.14216509  0.39620410  1  -1.13755  0  -0.316736  -0.52549  0  2.217568  0
O  O170  1  0.48478093  0.07176603  0.53883105  1  -1.194884  0  -0.310226  -0.576452  0  2.40417  0
O  O171  1  0.43349117  0.02124360  0.46284484  1  -1.199391  0  -0.317548  -0.583778  0  2.383249  0
O  O172  1  0.35979465  0.95243269  0.60570431  1  -1.129857  0  -0.314955  -0.525792  0  2.240598  0
O  O173  1  0.73047085  0.04747166  0.64815234  1  -0.466847  0  -0.139071  -0.338997  0  1.903669  0
O  O174  1  0.79281963  0.16579551  0.54339753  1  -0.457303  0  -0.150972  -0.347523  0  1.861113  0
O  O175  1  0.07517876  0.29378403  0.08348770  1  -0.444377  0  -0.141967  -0.336436  0  1.841465  0
O  O176  1  0.03277767  0.18623680  0.10479827  1  -0.448109  0  -0.148265  -0.346357  0  1.844841  0
O  O177  1  0.57246879  0.14469107  0.58732759  1  -0.479038  0  -0.123592  -0.331191  0  1.959573  0
O  O178  1  0.45385294  0.07904076  0.68928902  1  -0.445909  0  -0.14504  -0.349882  0  1.881149  0
O  O179  1  0.33004653  0.62277728  0.69647104  1  -0.463411  0  -0.144137  -0.339899  0  1.876422  0
O  O180  1  0.40652219  0.55925707  0.66363544  1  -0.471611  0  -0.113688  -0.311145  0  1.991102  0
