# generated using pymatgen
data_AgH2C4(NO)5
_symmetry_space_group_name_H-M   'P 1'
_cell_length_a   5.33168516
_cell_length_b   10.20032186
_cell_length_c   14.54074709
_cell_angle_alpha   89.99984057
_cell_angle_beta   90.00023140
_cell_angle_gamma   89.99990905
_symmetry_Int_Tables_number   1
_chemical_formula_structural   AgH2C4(NO)5
_chemical_formula_sum   'Ag4 H8 C16 N20 O20'
_cell_volume   790.79714469
_cell_formula_units_Z   4
loop_
 _symmetry_equiv_pos_site_id
 _symmetry_equiv_pos_as_xyz
  1  'x, y, z'
loop_
 _atom_site_type_symbol
 _atom_site_label
 _atom_site_symmetry_multiplicity
 _atom_site_fract_x
 _atom_site_fract_y
 _atom_site_fract_z
 _atom_site_occupancy
 _atom_site_pbe_bader_spin_density
 _atom_site_pbe_cm5_charge
 _atom_site_pbe_ddec_charge
 _atom_site_pbe_ddec_spin_density
 _atom_site_pbe_ddec_sum_bond_order
 _atom_site_pbe_magmom
Ag  Ag0  1  0.02889668  0.49787291  0.74999885  1  0  0.43598  0.430108  0  1.80742  0
Ag  Ag1  1  0.52889607  0.00212762  0.24999649  1  0  0.435981  0.430096  0  1.807454  0
Ag  Ag2  1  0.97110447  0.50212735  0.25000048  1  0  0.435975  0.430085  0  1.807479  0
Ag  Ag3  1  0.47110508  0.99787460  0.74999734  1  0  0.435979  0.430094  0  1.807438  0
H  H4  1  0.48233278  0.31334052  0.64934566  1  0  0.155789  0.137397  0  0.9883  0
H  H5  1  0.98232897  0.18665081  0.35065379  1  0  0.155827  0.137403  0  0.988343  0
H  H6  1  0.51767101  0.68665918  0.14934489  1  0  0.155765  0.137321  0  0.988401  0
H  H7  1  0.01767892  0.81334510  0.85065363  1  0  0.155782  0.137391  0  0.988338  0
H  H8  1  0.51767024  0.68665778  0.35065367  1  0  0.155783  0.137362  0  0.98838  0
H  H9  1  0.01766656  0.81334160  0.64934485  1  0  0.155773  0.137378  0  0.988336  0
H  H10  1  0.48232264  0.31334304  0.85065581  1  0  0.155782  0.137405  0  0.988384  0
H  H11  1  0.98233161  0.18665908  0.14934845  1  0  0.155787  0.137391  0  0.988298  0
C  C12  1  0.10542096  0.45905793  0.51381851  1  0  0.22837  0.228747  0  4.035619  0
C  C13  1  0.60540970  0.04093372  0.48618107  1  0  0.228353  0.228857  0  4.035609  0
C  C14  1  0.89457946  0.54094233  0.01381788  1  0  0.228396  0.228908  0  4.035367  0
C  C15  1  0.39458654  0.95906359  0.98618257  1  0  0.228417  0.22889  0  4.035451  0
C  C16  1  0.89458019  0.54093743  0.48618288  1  0  0.228346  0.228891  0  4.035556  0
C  C17  1  0.39457081  0.95905576  0.51381619  1  0  0.228312  0.228681  0  4.035828  0
C  C18  1  0.10541981  0.45906185  0.98618419  1  0  0.228349  0.228718  0  4.035586  0
C  C19  1  0.60542961  0.04094451  0.01381676  1  0  0.228347  0.22874  0  4.035681  0
C  C20  1  0.36618903  0.35770104  0.59616807  1  0  0.183215  0.244648  0  3.832705  0
C  C21  1  0.86619156  0.14229333  0.40382914  1  0  0.1832  0.244727  0  3.832475  0
C  C22  1  0.63381043  0.64230084  0.09617100  1  0  0.183207  0.24471  0  3.832593  0
C  C23  1  0.13382253  0.85770629  0.90382976  1  0  0.183259  0.244654  0  3.832841  0
C  C24  1  0.63380837  0.64229725  0.40383057  1  0  0.183205  0.244673  0  3.83272  0
C  C25  1  0.13380021  0.85769909  0.59616950  1  0  0.183216  0.244624  0  3.832697  0
C  C26  1  0.36618322  0.35770432  0.90383177  1  0  0.183231  0.244618  0  3.832747  0
C  C27  1  0.86618799  0.14229789  0.09617095  1  0  0.183214  0.24464  0  3.832869  0
N  N28  1  0.25123765  0.40155589  0.45261067  1  0  -0.189999  -0.165488  0  2.910457  0
N  N29  1  0.75123252  0.09843956  0.54738775  1  0  -0.189905  -0.165417  0  2.910331  0
N  N30  1  0.74875823  0.59844745  0.95261061  1  0  -0.190033  -0.165592  0  2.910446  0
N  N31  1  0.24876078  0.90155860  0.04738962  1  0  -0.189966  -0.165456  0  2.910308  0
N  N32  1  0.74875037  0.59843849  0.54738866  1  0  -0.189989  -0.16561  0  2.910354  0
N  N33  1  0.24874613  0.90155580  0.45260883  1  0  -0.190016  -0.165594  0  2.910443  0
N  N34  1  0.25124480  0.40155771  0.04739215  1  0  -0.189974  -0.165421  0  2.910455  0
N  N35  1  0.75125538  0.09844557  0.95261039  1  0  -0.189987  -0.165508  0  2.910429  0
N  N36  1  0.17073856  0.43408399  0.60413443  1  0  -0.326904  -0.313541  0  3.423739  0
N  N37  1  0.67072998  0.06590662  0.39586455  1  0  -0.326966  -0.313657  0  3.423515  0
N  N38  1  0.82926474  0.56591589  0.10413779  1  0  -0.326883  -0.313563  0  3.423561  0
N  N39  1  0.32926902  0.93408911  0.89586256  1  0  -0.327011  -0.313648  0  3.423753  0
N  N40  1  0.82926447  0.56591430  0.39586627  1  0  -0.326919  -0.313599  0  3.423676  0
N  N41  1  0.32926179  0.93408089  0.60413271  1  0  -0.326848  -0.313447  0  3.42371  0
N  N42  1  0.17073454  0.43408632  0.89586497  1  0  -0.326903  -0.313481  0  3.423681  0
N  N43  1  0.67073963  0.06591899  0.10413745  1  0  -0.326912  -0.313547  0  3.423957  0
N  N44  1  0.54850701  0.66073128  0.75000115  1  0  0.093219  0.722148  0  4.399537  0
N  N45  1  0.04851010  0.83926807  0.25000086  1  0  0.093256  0.722267  0  4.399418  0
N  N46  1  0.45149414  0.33927192  0.24999955  1  0  0.093188  0.722103  0  4.399643  0
N  N47  1  0.95149105  0.16073120  0.74999985  1  0  0.093199  0.722187  0  4.399486  0
O  O48  1  0.42589390  0.33364902  0.50766237  1  0  -0.022214  -0.027481  0  2.545026  0
O  O49  1  0.92589171  0.16634628  0.49233768  1  0  -0.022205  -0.027495  0  2.544926  0
O  O50  1  0.57410645  0.66635421  0.00766104  1  0  -0.022197  -0.027461  0  2.544953  0
O  O51  1  0.07411398  0.83365297  0.99233757  1  0  -0.022201  -0.027464  0  2.54504  0
O  O52  1  0.57409787  0.66634732  0.49233627  1  0  -0.022187  -0.027403  0  2.544829  0
O  O53  1  0.07409443  0.83365104  0.50766302  1  0  -0.022217  -0.027407  0  2.544922  0
O  O54  1  0.42589095  0.33365193  0.99233898  1  0  -0.022235  -0.027546  0  2.545068  0
O  O55  1  0.92590217  0.16635121  0.00766314  1  0  -0.02223  -0.027458  0  2.544913  0
O  O56  1  0.59599500  0.53849590  0.74999992  1  0  -0.196784  -0.450653  0  2.202884  0
O  O57  1  0.09599772  0.96150341  0.24999734  1  0  -0.196822  -0.45071  0  2.202856  0
O  O58  1  0.40400803  0.46150632  0.25000009  1  0  -0.196787  -0.450641  0  2.202848  0
O  O59  1  0.90400531  0.03849488  0.74999717  1  0  -0.196816  -0.45071  0  2.202826  0
O  O60  1  0.72415867  0.74400995  0.75000189  1  0  -0.192306  -0.453514  0  2.033235  0
O  O61  1  0.22416201  0.75599024  0.25000519  1  0  -0.192286  -0.453543  0  2.033221  0
O  O62  1  0.27584436  0.25599325  0.24999744  1  0  -0.192246  -0.45346  0  2.033347  0
O  O63  1  0.77583727  0.24400904  0.75000308  1  0  -0.192278  -0.453505  0  2.033241  0
O  O64  1  0.32102353  0.69799196  0.75000095  1  0  -0.196617  -0.456707  0  2.093503  0
O  O65  1  0.82102576  0.80200814  0.25000078  1  0  -0.196633  -0.456723  0  2.093441  0
O  O66  1  0.67897762  0.30201025  0.25000113  1  0  -0.196637  -0.456719  0  2.093533  0
O  O67  1  0.17897726  0.19799211  0.75000062  1  0  -0.196588  -0.456696  0  2.093505  0
