# generated using pymatgen
data_CoH10C11N7O2
_symmetry_space_group_name_H-M   'P 1'
_cell_length_a   9.46427171
_cell_length_b   11.37069615
_cell_length_c   12.72980488
_cell_angle_alpha   90.00032033
_cell_angle_beta   94.81860588
_cell_angle_gamma   90.00158177
_symmetry_Int_Tables_number   1
_chemical_formula_structural   CoH10C11N7O2
_chemical_formula_sum   'Co4 H40 C44 N28 O8'
_cell_volume   1365.08069876
_cell_formula_units_Z   4
loop_
 _symmetry_equiv_pos_site_id
 _symmetry_equiv_pos_as_xyz
  1  'x, y, z'
loop_
 _atom_site_type_symbol
 _atom_site_label
 _atom_site_symmetry_multiplicity
 _atom_site_fract_x
 _atom_site_fract_y
 _atom_site_fract_z
 _atom_site_occupancy
 _atom_site_pbe_bader_charge
 _atom_site_pbe_bader_spin_density
 _atom_site_pbe_cm5_charge
 _atom_site_pbe_ddec_charge
 _atom_site_pbe_ddec_spin_density
 _atom_site_pbe_ddec_sum_bond_order
 _atom_site_pbe_magmom
Co  Co0  1  0.06237852  0.41650366  0.92683097  1  1.194858  2.491974  0.663622  0.743987  2.746567  2.678932  2.47
Co  Co1  1  0.43761202  0.91650181  0.57314545  1  1.194539  2.492036  0.663706  0.744092  2.746543  2.67864  2.47
Co  Co2  1  0.93771409  0.58347621  0.07317126  1  1.194622  2.491999  0.663699  0.744123  2.746794  2.67875  2.47
Co  Co3  1  0.56229320  0.08347806  0.42681727  1  1.194603  2.492  0.663686  0.744164  2.74678  2.678698  2.47
H  H4  1  0.16670152  0.02452670  0.65951850  1  0.171794  -1.1e-05  0.133663  0.114941  -0.000123  1.011256  0.0
H  H5  1  0.33328726  0.52456899  0.84051476  1  0.171523  -1.1e-05  0.133559  0.114801  -0.000123  1.011226  0.0
H  H6  1  0.83317996  0.97544966  0.34048109  1  0.170941  -1.1e-05  0.133782  0.115107  -0.000123  1.011169  0.0
H  H7  1  0.66681031  0.47544694  0.15952003  1  0.171072  -1.1e-05  0.133814  0.115228  -0.000123  1.011067  0.0
H  H8  1  0.03277448  0.92763417  0.69655316  1  0.138367  0.000261  0.136051  0.108264  0.000131  0.979914  0.0
H  H9  1  0.46719991  0.42766281  0.80349128  1  0.138806  0.000261  0.136126  0.108301  0.000131  0.979592  0.0
H  H10  1  0.96709187  0.07236593  0.30347211  1  0.137746  0.000261  0.13608  0.108344  0.000131  0.979384  0.0
H  H11  1  0.53291358  0.57236279  0.19654303  1  0.137779  0.000261  0.136132  0.108408  0.000131  0.979448  0.0
H  H12  1  0.92283715  0.15843830  0.00123502  1  0.116725  0.001087  0.116301  0.101887  0.000417  1.05653  0.001
H  H13  1  0.57710328  0.65842499  0.49876144  1  0.11699  0.001086  0.116199  0.101631  0.000417  1.056701  0.001
H  H14  1  0.07722493  0.84153541  0.99884290  1  0.117622  0.001085  0.116078  0.101433  0.000416  1.057163  0.001
H  H15  1  0.42281172  0.34153113  0.50117995  1  0.117321  0.001086  0.116072  0.101457  0.000417  1.056949  0.001
H  H16  1  0.79063120  0.53612704  0.60050334  1  0.111881  0.000384  0.095669  0.094991  0.000215  1.059781  0.0
H  H17  1  0.70938967  0.03612648  0.89947082  1  0.111887  0.000383  0.095691  0.09501  0.000215  1.059779  0.0
H  H18  1  0.20944988  0.46389504  0.39948554  1  0.111409  0.000384  0.095765  0.095082  0.000215  1.059498  0.0
H  H19  1  0.29057180  0.96389649  0.10049025  1  0.111758  0.000384  0.095684  0.095005  0.000215  1.059917  0.0
H  H20  1  0.16077632  0.24379173  0.74615063  1  0.16506  0.000891  0.133422  0.101445  0.00023  1.043759  0.0
H  H21  1  0.33919363  0.74379865  0.75385755  1  0.164909  0.000891  0.133502  0.101783  0.00023  1.043497  0.0
H  H22  1  0.83918140  0.75618902  0.25386360  1  0.165447  0.000891  0.133526  0.101763  0.00023  1.04364  0.0
H  H23  1  0.66080896  0.25618649  0.24612832  1  0.165402  0.00089  0.133548  0.101791  0.00023  1.043597  0.0
H  H24  1  0.76841554  0.97258403  0.62415617  1  0.169911  0.000288  0.140353  0.12402  -0.000266  1.020938  0.0
H  H25  1  0.73156059  0.47262571  0.87582627  1  0.170524  0.000289  0.14045  0.124235  -0.000266  1.020648  0.0
H  H26  1  0.23148835  0.02735802  0.37583160  1  0.171099  0.000289  0.140425  0.124255  -0.000266  1.020888  0.0
H  H27  1  0.26850880  0.52737526  0.12416416  1  0.170827  0.000288  0.140413  0.124238  -0.000266  1.020866  0.0
H  H28  1  0.22655319  0.43585337  0.59623273  1  0.080791  0.000788  0.095638  0.093723  0.000488  1.047482  0.0
H  H29  1  0.27346481  0.93584630  0.90373534  1  0.081009  0.000788  0.095617  0.093785  0.000487  1.047486  0.0
H  H30  1  0.77352996  0.56418279  0.40376100  1  0.081405  0.000787  0.095546  0.093743  0.000487  1.047423  0.0
H  H31  1  0.72650196  0.06415203  0.09622609  1  0.081575  0.000788  0.095557  0.093617  0.000488  1.047364  0.0
H  H32  1  0.92485283  0.96555656  0.86700898  1  0.157376  0.001269  0.128189  0.127519  0.000675  1.011692  0.001
H  H33  1  0.57516269  0.46557665  0.63303115  1  0.157716  0.001269  0.128204  0.127619  0.000674  1.01166  0.001
H  H34  1  0.07515526  0.03442947  0.13305818  1  0.157964  0.001268  0.128153  0.127516  0.000675  1.01185  0.001
H  H35  1  0.42488750  0.53442872  0.36696819  1  0.157969  0.001268  0.128197  0.127571  0.000675  1.011805  0.001
H  H36  1  0.09171627  0.20426978  0.53946929  1  0.148516  0.000903  0.124315  0.127881  0.000338  1.009238  0.0
H  H37  1  0.40831195  0.70431401  0.96058376  1  0.148143  0.000903  0.124232  0.127761  0.000338  1.009452  0.0
H  H38  1  0.90813463  0.79579012  0.46061148  1  0.147545  0.000904  0.124271  0.127769  0.000338  1.009489  0.0
H  H39  1  0.59184245  0.29578635  0.03939520  1  0.147637  0.000904  0.124252  0.127753  0.000338  1.009288  0.0
H  H40  1  0.84077420  0.25430618  0.41924591  1  0.130056  0.001053  0.118939  0.113008  0.000338  1.021574  0.001
H  H41  1  0.65927496  0.75431054  0.08079717  1  0.12976  0.001053  0.118935  0.113106  0.000338  1.021565  0.001
H  H42  1  0.15908331  0.74570886  0.58081254  1  0.129479  0.001054  0.118931  0.113078  0.000339  1.021618  0.001
H  H43  1  0.34088044  0.24571770  0.91918736  1  0.129763  0.001054  0.118854  0.112857  0.000339  1.021706  0.001
C  C44  1  0.01698980  0.46296261  0.72673173  1  1.517851  -0.003213  0.190776  0.541517  -0.004963  4.213888  -0.004
C  C45  1  0.48302194  0.96297472  0.77323745  1  1.518321  -0.003214  0.19056  0.54111  -0.004964  4.214098  -0.004
C  C46  1  0.98308598  0.53700847  0.27325679  1  1.518693  -0.003216  0.19085  0.541961  -0.004967  4.213256  -0.004
C  C47  1  0.51691840  0.03702273  0.22671510  1  1.517958  -0.003216  0.190931  0.5423  -0.004966  4.213268  -0.004
C  C48  1  0.00889172  0.48383735  0.61002927  1  -0.063658  0.00166  -0.016563  -0.024496  0.000819  3.967931  0.001
C  C49  1  0.49111768  0.98383622  0.88994602  1  -0.063733  0.00166  -0.016666  -0.024736  0.000819  3.967596  0.001
C  C50  1  0.99118189  0.51616538  0.38996303  1  -0.063523  0.001661  -0.016571  -0.024534  0.000819  3.967265  0.001
C  C51  1  0.50883855  0.01615597  0.11000919  1  -0.063055  0.001662  -0.016704  -0.024935  0.00082  3.967758  0.001
C  C52  1  0.05869685  0.02001880  0.68371441  1  0.633802  0.001895  0.062061  0.004923  0.001154  3.856214  0.002
C  C53  1  0.44129067  0.52005369  0.81631956  1  0.634775  0.001894  0.062264  0.005277  0.001154  3.855595  0.002
C  C54  1  0.94119924  0.97997338  0.31630818  1  0.635641  0.001895  0.061935  0.005119  0.001155  3.855334  0.002
C  C55  1  0.55879541  0.47997103  0.18369794  1  0.635428  0.001895  0.061938  0.004806  0.001155  3.85521  0.002
C  C56  1  0.97206733  0.14857219  0.92812081  1  0.402737  0.000411  -0.004426  -0.032464  -0.000494  3.988457  0.001
C  C57  1  0.52790283  0.64856818  0.57189376  1  0.402455  0.000414  -0.004518  -0.032259  -0.000492  3.988425  0.001
C  C58  1  0.02797260  0.85141384  0.07194539  1  0.401497  0.000412  -0.004286  -0.03198  -0.000495  3.988935  0.001
C  C59  1  0.47205544  0.35140905  0.42806945  1  0.403065  0.000408  -0.004258  -0.032044  -0.000495  3.988737  0.001
C  C60  1  0.88144861  0.52002730  0.55550541  1  0.000565  0.000735  -0.087995  -0.095138  0.000182  3.965156  0.001
C  C61  1  0.61857369  0.02001886  0.94446808  1  -4.9e-05  0.000735  -0.088016  -0.095279  0.000182  3.965236  0.001
C  C62  1  0.11863562  0.47998774  0.44448683  1  -0.000539  0.000735  -0.088114  -0.095284  0.000182  3.964686  0.001
C  C63  1  0.38138361  0.97997772  0.05548642  1  -4.4e-05  0.000734  -0.08817  -0.095434  0.000182  3.965286  0.001
C  C64  1  0.09594414  0.19621312  0.79815199  1  0.962094  -0.004916  0.143186  0.101923  -0.006507  3.88053  -0.003
C  C65  1  0.40402374  0.69622302  0.70185610  1  0.962823  -0.004916  0.143009  0.101621  -0.006505  3.880446  -0.003
C  C66  1  0.90403673  0.80376939  0.20188110  1  0.961865  -0.004918  0.143175  0.10211  -0.006505  3.880468  -0.003
C  C67  1  0.59596306  0.30376477  0.29811770  1  0.962242  -0.004919  0.143154  0.102037  -0.006507  3.880534  -0.003
C  C68  1  0.82112962  0.04049172  0.58209850  1  0.986337  1.9e-05  0.147111  0.102541  -0.000802  3.880896  0.0
C  C69  1  0.67886145  0.54052555  0.91790190  1  0.985605  2.1e-05  0.146827  0.102168  -0.000805  3.880838  0.0
C  C70  1  0.17876977  0.95947760  0.41791253  1  0.988205  2e-05  0.146882  0.102236  -0.000801  3.881851  0.0
C  C71  1  0.32121641  0.45948422  0.08209069  1  0.987782  1.8e-05  0.146903  0.102136  -0.000804  3.881607  0.0
C  C72  1  0.12780617  0.46424105  0.55339259  1  -0.05868  0.000524  -0.090764  -0.10629  -2e-06  3.978627  0.001
C  C73  1  0.37221089  0.96424406  0.94658088  1  -0.059631  0.000523  -0.090615  -0.106036  -2e-06  3.978145  0.001
C  C74  1  0.87227489  0.53576960  0.44659864  1  -0.058258  0.000523  -0.090713  -0.106442  -2e-06  3.978338  0.001
C  C75  1  0.62774850  0.03575867  0.05337691  1  -0.058288  0.000523  -0.090602  -0.105924  -2e-06  3.978033  0.001
C  C76  1  0.97206070  0.05205611  0.86338761  1  0.269335  0.00387  0.003939  -0.103974  0.002003  3.927281  0.003
C  C77  1  0.52793169  0.55207144  0.63663565  1  0.269366  0.003868  0.004026  -0.103924  0.002002  3.927216  0.003
C  C78  1  0.02794120  0.94792727  0.13666263  1  0.270187  0.003867  0.004074  -0.103678  0.002002  3.927452  0.003
C  C79  1  0.47208044  0.44791898  0.36335088  1  0.269159  0.003869  0.003988  -0.103827  0.002002  3.927401  0.003
C  C80  1  0.98762788  0.16438754  0.53804468  1  0.276971  0.003733  -0.002254  -0.114197  0.002046  3.932802  0.002
C  C81  1  0.51238100  0.66442107  0.96198587  1  0.277543  0.003735  -0.002091  -0.113783  0.002047  3.93203  0.002
C  C82  1  0.01223161  0.83565653  0.46202726  1  0.276151  0.003735  -0.002295  -0.114094  0.002047  3.933265  0.002
C  C83  1  0.48773533  0.33565466  0.03798106  1  0.277209  0.003733  -0.002231  -0.114172  0.002046  3.933427  0.002
C  C84  1  0.86267733  0.18802850  0.47950633  1  0.383933  -4.5e-05  0.000894  -0.018622  -0.000742  3.98119  0.0
C  C85  1  0.63736590  0.68805720  0.02052384  1  0.383383  -4.6e-05  0.000902  -0.018901  -0.000744  3.980879  0.0
C  C86  1  0.13718765  0.81198918  0.52054791  1  0.384659  -4e-05  0.001029  -0.018469  -0.000739  3.980541  0.0
C  C87  1  0.36278422  0.31199566  0.97945876  1  0.383878  -4.2e-05  0.001124  -0.018275  -0.00074  3.981181  0.0
N  N88  1  0.05152390  0.08356080  0.78182121  1  -1.262097  0.001088  -0.244292  0.02538  0.0001  3.781045  0.001
N  N89  1  0.44846438  0.58357954  0.71820095  1  -1.263164  0.001089  -0.244477  0.025  0.0001  3.781026  0.001
N  N90  1  0.94843472  0.91642698  0.21820800  1  -1.263174  0.001088  -0.244557  0.02455  0.0001  3.781064  0.001
N  N91  1  0.55157098  0.41642055  0.28179659  1  -1.263645  0.001088  -0.244515  0.024739  0.0001  3.780975  0.001
N  N92  1  0.06828226  0.59760363  0.95528346  1  -0.370971  0.055232  -0.325011  -0.554203  0.035813  3.32038  0.052
N  N93  1  0.43169761  0.09761415  0.54468941  1  -0.369967  0.055268  -0.325057  -0.554201  0.035842  3.319948  0.052
N  N94  1  0.93181148  0.40237096  0.04471178  1  -0.370625  0.055314  -0.324921  -0.554238  0.035856  3.320288  0.052
N  N95  1  0.56818328  0.90237187  0.45526615  1  -0.369953  0.055242  -0.324938  -0.554235  0.035827  3.320659  0.052
N  N96  1  0.95990195  0.07019123  0.60227059  1  -1.250622  0.003239  -0.246583  0.008878  0.001531  3.797015  0.002
N  N97  1  0.54009235  0.57023401  0.89774728  1  -1.251131  0.003238  -0.246551  0.008825  0.00153  3.796761  0.002
N  N98  1  0.03997479  0.92982206  0.39777503  1  -1.25153  0.003243  -0.246293  0.008756  0.001533  3.797452  0.002
N  N99  1  0.46000687  0.42982237  0.10223184  1  -1.251583  0.00324  -0.246318  0.009088  0.001531  3.79707  0.002
N  N100  1  0.04841370  0.23835323  0.88598272  1  -1.184987  0.058035  -0.347887  -0.277577  0.032228  3.576286  0.049
N  N101  1  0.45154020  0.73835039  0.61401573  1  -1.185756  0.058034  -0.347577  -0.277522  0.032227  3.575875  0.049
N  N102  1  0.95160734  0.76162576  0.11406333  1  -1.185422  0.058031  -0.347791  -0.277877  0.032226  3.576152  0.049
N  N103  1  0.54840332  0.26162420  0.38593783  1  -1.185535  0.058039  -0.347827  -0.277803  0.03223  3.576375  0.049
N  N104  1  0.75978241  0.10959467  0.50716700  1  -1.188035  0.059249  -0.349732  -0.290201  0.03199  3.592409  0.05
N  N105  1  0.74022863  0.60961642  0.99283548  1  -1.18715  0.059244  -0.34972  -0.290147  0.03199  3.592677  0.05
N  N106  1  0.24010421  0.89038168  0.49284788  1  -1.18854  0.059232  -0.349825  -0.290335  0.031994  3.592472  0.05
N  N107  1  0.25987474  0.39038895  0.00715257  1  -1.188596  0.059248  -0.349908  -0.290368  0.031989  3.592612  0.05
N  N108  1  0.07757675  0.67132521  0.88786341  1  -0.313884  0.023118  0.09542  0.445146  0.00404  4.422907  0.006
N  N109  1  0.42239448  0.17132418  0.61212687  1  -0.314555  0.023129  0.095414  0.444992  0.004047  4.423059  0.006
N  N110  1  0.92246378  0.32866345  0.11214705  1  -0.314756  0.023152  0.095288  0.444857  0.004055  4.423236  0.006
N  N111  1  0.57755196  0.82865129  0.38785046  1  -0.314609  0.02314  0.095341  0.445016  0.004048  4.423538  0.006
N  N112  1  0.09137028  0.74245597  0.82321433  1  0.000843  0.169283  -0.179438  -0.372055  0.085983  2.545143  0.12
N  N113  1  0.40858803  0.24243273  0.67678520  1  0.000704  0.169248  -0.179372  -0.371884  0.085964  2.545462  0.119
N  N114  1  0.90861607  0.25756435  0.17680186  1  0.001214  0.169264  -0.179402  -0.371747  0.085974  2.545591  0.12
N  N115  1  0.59141870  0.75752955  0.32321116  1  0.000486  0.169273  -0.17945  -0.37193  0.085979  2.545501  0.12
O  O116  1  0.13979665  0.44432654  0.77548923  1  -1.162548  0.075117  -0.319424  -0.548898  0.039716  2.297334  0.065
O  O117  1  0.36021000  0.94434659  0.72448355  1  -1.162768  0.075128  -0.319473  -0.548836  0.03972  2.297378  0.065
O  O118  1  0.86027812  0.55563311  0.22449451  1  -1.162568  0.075129  -0.319532  -0.549121  0.039723  2.29741  0.065
O  O119  1  0.63972700  0.05565439  0.27548370  1  -1.162456  0.07513  -0.319473  -0.54932  0.039723  2.297282  0.065
O  O120  1  0.90597644  0.46101237  0.77598640  1  -1.163548  0.05201  -0.315237  -0.543842  0.026766  2.172691  0.045
O  O121  1  0.59403223  0.96101058  0.72398099  1  -1.16398  0.052  -0.314979  -0.543472  0.026764  2.172966  0.045
O  O122  1  0.09409826  0.53896838  0.22400283  1  -1.16487  0.052033  -0.315201  -0.54405  0.026772  2.172587  0.045
O  O123  1  0.40589971  0.03896665  0.27596313  1  -1.16441  0.052023  -0.315238  -0.544052  0.026764  2.172482  0.045
