# generated using pymatgen
data_AgH9C6N5O2
_symmetry_space_group_name_H-M   'P 1'
_cell_length_a   9.23163097
_cell_length_b   9.76087186
_cell_length_c   11.21378812
_cell_angle_alpha   89.99986836
_cell_angle_beta   111.23116857
_cell_angle_gamma   90.00075244
_symmetry_Int_Tables_number   1
_chemical_formula_structural   AgH9C6N5O2
_chemical_formula_sum   'Ag4 H36 C24 N20 O8'
_cell_volume   941.87756713
_cell_formula_units_Z   4
loop_
 _symmetry_equiv_pos_site_id
 _symmetry_equiv_pos_as_xyz
  1  'x, y, z'
loop_
 _atom_site_type_symbol
 _atom_site_label
 _atom_site_symmetry_multiplicity
 _atom_site_fract_x
 _atom_site_fract_y
 _atom_site_fract_z
 _atom_site_occupancy
 _atom_site_hle17_bader_spin_density
 _atom_site_hle17_ddec_charge
 _atom_site_hle17_ddec_spin_density
 _atom_site_hle17_ddec_sum_bond_order
 _atom_site_hle17_magmom
 _atom_site_hse06_10hf_bader_spin_density
 _atom_site_hse06_10hf_ddec_charge
 _atom_site_hse06_10hf_ddec_spin_density
 _atom_site_hse06_10hf_ddec_sum_bond_order
 _atom_site_hse06_10hf_magmom
 _atom_site_hse06_bader_spin_density
 _atom_site_hse06_ddec_charge
 _atom_site_hse06_ddec_spin_density
 _atom_site_hse06_ddec_sum_bond_order
 _atom_site_hse06_magmom
 _atom_site_pbe_bader_spin_density
 _atom_site_pbe_cm5_charge
 _atom_site_pbe_ddec_charge
 _atom_site_pbe_ddec_spin_density
 _atom_site_pbe_ddec_sum_bond_order
 _atom_site_pbe_magmom
Ag  Ag0  1  0.24999537  0.19634433  0.25000163  1  0  0.505959  0  1.461353  0  0  0.363556  0  1.89889  0  0  0.397314  0  1.851245  0  0  0.468431  0.337501  0  1.9351  0
Ag  Ag1  1  0.75000635  0.80366137  0.74999826  1  0  0.506003  0  1.461297  0  0  0.363552  0  1.898806  0  0  0.397302  0  1.851182  0  0  0.468454  0.337499  0  1.935014  0
Ag  Ag2  1  0.75000170  0.49694491  0.75000253  1  0  0.535811  0  1.446146  0  0  0.399888  0  1.894671  0  0  0.436673  0  1.839466  0  0  0.412688  0.373784  0  1.932704  0
Ag  Ag3  1  0.24999769  0.50306181  0.24999755  1  0  0.535804  0  1.446152  0  0  0.399904  0  1.894677  0  0  0.436683  0  1.839467  0  0  0.412688  0.373794  0  1.932702  0
H  H4  1  0.07841608  0.96994222  0.23419490  1  0  0.116241  0  0.966426  0  0  0.13066  0  1.040497  0  0  0.133249  0  1.038362  0  0  0.086497  0.128997  0  1.041841  0
H  H5  1  0.42156766  0.96993815  0.26581538  1  0  0.11629  0  0.966518  0  0  0.130719  0  1.040573  0  0  0.133281  0  1.038465  0  0  0.086497  0.129059  0  1.041913  0
H  H6  1  0.92159267  0.03004914  0.76578749  1  0  0.116169  0  0.966544  0  0  0.130618  0  1.040564  0  0  0.133205  0  1.038432  0  0  0.086491  0.128953  0  1.041908  0
H  H7  1  0.57842234  0.03005320  0.73420864  1  0  0.116179  0  0.966379  0  0  0.130615  0  1.040464  0  0  0.133201  0  1.03833  0  0  0.0865  0.128952  0  1.041809  0
H  H8  1  0.93964336  0.04317779  0.29132061  1  0  0.146358  0  0.918356  0  0  0.167937  0  0.975169  0  0  0.170925  0  0.973409  0  0  0.106598  0.165892  0  0.976533  0
H  H9  1  0.56033767  0.04317658  0.20868725  1  0  0.14638  0  0.91831  0  0  0.167972  0  0.975103  0  0  0.170966  0  0.973327  0  0  0.106613  0.165929  0  0.976465  0
H  H10  1  0.06037349  0.95680844  0.70867491  1  0  0.146349  0  0.918509  0  0  0.167945  0  0.975278  0  0  0.170934  0  0.973519  0  0  0.106592  0.165899  0  0.976644  0
H  H11  1  0.43963842  0.95680965  0.79132189  1  0  0.146351  0  0.918446  0  0  0.167937  0  0.975232  0  0  0.170927  0  0.97347  0  0  0.106594  0.165891  0  0.9766  0
H  H12  1  0.88055520  0.91236224  0.17291375  1  0  0.139033  0  0.928986  0  0  0.159722  0  0.983787  0  0  0.162553  0  0.982498  0  0  0.100009  0.157868  0  0.984478  0
H  H13  1  0.61942963  0.91235735  0.32709080  1  0  0.139077  0  0.928858  0  0  0.159748  0  0.98368  0  0  0.162581  0  0.982389  0  0  0.10001  0.157894  0  0.984371  0
H  H14  1  0.11945355  0.08763220  0.82707220  1  0  0.13898  0  0.929018  0  0  0.159714  0  0.983773  0  0  0.162547  0  0.982484  0  0  0.099992  0.157861  0  0.984461  0
H  H15  1  0.38056040  0.08763606  0.67292521  1  0  0.138962  0  0.928926  0  0  0.159633  0  0.983758  0  0  0.162465  0  0.982469  0  0  0.099982  0.157782  0  0.984445  0
H  H16  1  0.78909039  0.31599973  0.36942115  1  0  0.091712  0  0.99465  0  0  0.107866  0  1.054323  0  0  0.108295  0  1.056344  0  0  0.096733  0.107043  0  1.053458  0
H  H17  1  0.71090528  0.31600878  0.13057004  1  0  0.091713  0  0.994585  0  0  0.107851  0  1.054303  0  0  0.10828  0  1.056324  0  0  0.096752  0.107035  0  1.053426  0
H  H18  1  0.21091485  0.68398446  0.63057089  1  0  0.091707  0  0.994499  0  0  0.107864  0  1.054228  0  0  0.108292  0  1.056249  0  0  0.096737  0.107051  0  1.053352  0
H  H19  1  0.28908599  0.68399180  0.86942226  1  0  0.091746  0  0.99462  0  0  0.107873  0  1.054313  0  0  0.108302  0  1.056334  0  0  0.096771  0.107049  0  1.053447  0
H  H20  1  0.79662482  0.49715982  0.37061549  1  0  0.10709  0  0.921802  0  0  0.127273  0  0.973142  0  0  0.129127  0  0.973028  0  0  0.102143  0.125738  0  0.973555  0
H  H21  1  0.70337702  0.49716878  0.12938788  1  0  0.107041  0  0.921829  0  0  0.12723  0  0.973163  0  0  0.129084  0  0.973048  0  0  0.102126  0.125695  0  0.973574  0
H  H22  1  0.20337688  0.50282539  0.62938885  1  0  0.107172  0  0.921827  0  0  0.12739  0  0.973121  0  0  0.129245  0  0.973005  0  0  0.102186  0.12586  0  0.973534  0
H  H23  1  0.29662236  0.50283180  0.87061310  1  0  0.107063  0  0.921788  0  0  0.127262  0  0.973092  0  0  0.129116  0  0.972977  0  0  0.102118  0.125725  0  0.973506  0
H  H24  1  0.07157068  0.41578795  0.89679424  1  0  0.347208  0  0.91795  0  0  0.324024  0  0.986462  0  0  0.333033  0  0.978699  0  0  0.298917  0.317696  0  0.99191  0
H  H25  1  0.42842958  0.41579258  0.60320642  1  0  0.347181  0  0.917945  0  0  0.324045  0  0.986411  0  0  0.333052  0  0.978649  0  0  0.298906  0.317718  0  0.991857  0
H  H26  1  0.92843219  0.58421980  0.10320601  1  0  0.347171  0  0.917699  0  0  0.323871  0  0.986393  0  0  0.332874  0  0.97864  0  0  0.298858  0.317549  0  0.991833  0
H  H27  1  0.57156749  0.58421824  0.39679297  1  0  0.347135  0  0.917734  0  0  0.323916  0  0.986311  0  0  0.33292  0  0.978555  0  0  0.298871  0.31759  0  0.991759  0
H  H28  1  0.21753171  0.33206796  0.02559110  1  0  0.331354  0  0.950403  0  0  0.307824  0  1.026368  0  0  0.317499  0  1.016313  0  0  0.285026  0.301146  0  1.033116  0
H  H29  1  0.28246573  0.33207084  0.47440855  1  0  0.331381  0  0.950354  0  0  0.307865  0  1.026297  0  0  0.31754  0  1.016242  0  0  0.28503  0.301192  0  1.033033  0
H  H30  1  0.78246885  0.66793569  0.97440756  1  0  0.331395  0  0.950374  0  0  0.307796  0  1.026399  0  0  0.31747  0  1.016344  0  0  0.28502  0.301123  0  1.03313  0
H  H31  1  0.71753714  0.66793486  0.52559437  1  0  0.331348  0  0.950356  0  0  0.307799  0  1.026327  0  0  0.317474  0  1.016273  0  0  0.28499  0.301128  0  1.033056  0
H  H32  1  0.55206322  0.34292660  0.83144970  1  0  0.335089  0  0.923849  0  0  0.314677  0  0.989584  0  0  0.322683  0  0.983304  0  0  0.299502  0.30899  0  0.994015  0
H  H33  1  0.94793785  0.34293029  0.66855498  1  0  0.335036  0  0.923852  0  0  0.314619  0  0.989612  0  0  0.322627  0  0.983337  0  0  0.299454  0.308933  0  0.99404  0
H  H34  1  0.44794312  0.65707500  0.16855604  1  0  0.335005  0  0.923909  0  0  0.31462  0  0.989617  0  0  0.322625  0  0.98333  0  0  0.299462  0.308929  0  0.994055  0
H  H35  1  0.05206154  0.65707439  0.33144421  1  0  0.335143  0  0.923738  0  0  0.314712  0  0.989496  0  0  0.322722  0  0.98322  0  0  0.299505  0.309017  0  0.993942  0
H  H36  1  0.50861474  0.21868219  0.92607990  1  0  0.349368  0  0.854791  0  0  0.337342  0  0.905684  0  0  0.344752  0  0.89941  0  0  0.321763  0.331893  0  0.910423  0
H  H37  1  0.99138330  0.21868153  0.57392591  1  0  0.349311  0  0.854794  0  0  0.337375  0  0.905582  0  0  0.344788  0  0.899301  0  0  0.321778  0.331923  0  0.910321  0
H  H38  1  0.49138582  0.78131839  0.07391875  1  0  0.349336  0  0.854815  0  0  0.337308  0  0.905718  0  0  0.344718  0  0.899446  0  0  0.321743  0.331856  0  0.910455  0
H  H39  1  0.00862071  0.78131392  0.42608181  1  0  0.349293  0  0.854819  0  0  0.337336  0  0.905626  0  0  0.34475  0  0.899343  0  0  0.321758  0.331887  0  0.910359  0
C  C40  1  0.98980085  0.27665326  0.99245080  1  0  0.681416  0  3.833718  0  0  0.631062  0  4.104288  0  0  0.660336  0  4.112005  0  0  0.34708  0.611159  0  4.098818  0
C  C41  1  0.51019459  0.27666117  0.50755054  1  0  0.681357  0  3.833769  0  0  0.631134  0  4.104211  0  0  0.660408  0  4.111926  0  0  0.3472  0.611215  0  4.098762  0
C  C42  1  0.01020320  0.72335244  0.00754801  1  0  0.681258  0  3.833962  0  0  0.630873  0  4.104541  0  0  0.660148  0  4.112257  0  0  0.346992  0.61095  0  4.099104  0
C  C43  1  0.48980478  0.72335272  0.49245310  1  0  0.681387  0  3.833832  0  0  0.631  0  4.104456  0  0  0.660272  0  4.112173  0  0  0.346963  0.611032  0  4.099072  0
C  C44  1  0.73339622  0.22548008  0.94451733  1  0  0.668056  0  3.867714  0  0  0.622166  0  4.148463  0  0  0.651608  0  4.152233  0  0  0.348371  0.602464  0  4.145363  0
C  C45  1  0.76660078  0.22548694  0.55548280  1  0  0.668268  0  3.867338  0  0  0.622251  0  4.148294  0  0  0.651688  0  4.15207  0  0  0.348387  0.602549  0  4.145193  0
C  C46  1  0.26661015  0.77451845  0.05548218  1  0  0.668009  0  3.867753  0  0  0.622149  0  4.148463  0  0  0.651588  0  4.152239  0  0  0.34833  0.602451  0  4.145356  0
C  C47  1  0.23339512  0.77451876  0.44451624  1  0  0.668256  0  3.86736  0  0  0.622201  0  4.148357  0  0  0.651644  0  4.152127  0  0  0.348364  0.602501  0  4.145256  0
C  C48  1  0.91572007  0.10759324  0.10356888  1  0  0.539951  0  3.743933  0  0  0.51904  0  4.005908  0  0  0.542752  0  4.01604  0  0  0.250381  0.502772  0  3.998645  0
C  C49  1  0.58426893  0.10759081  0.39643411  1  0  0.539684  0  3.744332  0  0  0.518814  0  4.006306  0  0  0.542529  0  4.016442  0  0  0.250272  0.502541  0  3.999042  0
C  C50  1  0.08428864  0.89240426  0.89642776  1  0  0.540027  0  3.74406  0  0  0.519103  0  4.006041  0  0  0.542818  0  4.016176  0  0  0.250429  0.502834  0  3.998779  0
C  C51  1  0.41572346  0.89240669  0.60357190  1  0  0.539779  0  3.74435  0  0  0.518872  0  4.006321  0  0  0.542583  0  4.016459  0  0  0.250315  0.502597  0  3.999062  0
C  C52  1  0.95668531  0.00154239  0.20604967  1  0  -0.409671  0  3.686941  0  0  -0.491268  0  3.927159  0  0  -0.496955  0  3.93089  0  0  -0.241767  -0.487039  0  3.92416  0
C  C53  1  0.54329743  0.00153972  0.29395700  1  0  -0.409718  0  3.68698  0  0  -0.491322  0  3.927208  0  0  -0.496966  0  3.930932  0  0  -0.241746  -0.487098  0  3.924203  0
C  C54  1  0.04332576  0.99845000  0.79393787  1  0  -0.409591  0  3.687098  0  0  -0.491256  0  3.927321  0  0  -0.496928  0  3.931023  0  0  -0.241765  -0.487023  0  3.924323  0
C  C55  1  0.45668679  0.99845266  0.70605637  1  0  -0.409504  0  3.686904  0  0  -0.491097  0  3.927143  0  0  -0.496774  0  3.930877  0  0  -0.241736  -0.486866  0  3.924145  0
C  C56  1  0.97679809  0.39956622  0.32673695  1  0  0.703822  0  3.832752  0  0  0.650181  0  4.137535  0  0  0.683509  0  4.132289  0  0  0.2058  0.627577  0  4.139558  0
C  C57  1  0.52319765  0.39956670  0.17326033  1  0  0.703811  0  3.832664  0  0  0.650141  0  4.137544  0  0  0.683467  0  4.1323  0  0  0.205793  0.62754  0  4.139568  0
C  C58  1  0.02320364  0.60043128  0.67325938  1  0  0.703957  0  3.832642  0  0  0.650274  0  4.137506  0  0  0.683608  0  4.132256  0  0  0.205851  0.627671  0  4.139541  0
C  C59  1  0.47679940  0.60043388  0.82674084  1  0  0.703692  0  3.832757  0  0  0.65003  0  4.137581  0  0  0.683354  0  4.132339  0  0  0.205724  0.627423  0  4.139604  0
C  C60  1  0.80896941  0.40498787  0.31845362  1  0  -0.23852  0  3.672568  0  0  -0.277531  0  3.920715  0  0  -0.282635  0  3.929614  0  0  -0.172485  -0.273716  0  3.914292  0
C  C61  1  0.69102874  0.40499244  0.18154526  1  0  -0.238503  0  3.672534  0  0  -0.277498  0  3.920673  0  0  -0.282599  0  3.929572  0  0  -0.172552  -0.273691  0  3.914252  0
C  C62  1  0.19103348  0.59500246  0.68154484  1  0  -0.238643  0  3.672489  0  0  -0.277744  0  3.920688  0  0  -0.282844  0  3.929579  0  0  -0.172586  -0.273956  0  3.914284  0
C  C63  1  0.30896833  0.59500814  0.81845413  1  0  -0.238535  0  3.672528  0  0  -0.277479  0  3.920588  0  0  -0.28258  0  3.929486  0  0  -0.172488  -0.273647  0  3.91415  0
N  N64  1  0.10172562  0.34592337  0.97011938  1  0  -0.697244  0  3.105826  0  0  -0.657847  0  3.350375  0  0  -0.679922  0  3.341376  0  0  -0.569917  -0.642431  0  3.356469  0
N  N65  1  0.39827592  0.34592783  0.52988091  1  0  -0.697186  0  3.105932  0  0  -0.657879  0  3.350404  0  0  -0.679951  0  3.341404  0  0  -0.569933  -0.642466  0  3.356499  0
N  N66  1  0.89827262  0.65408540  0.02987680  1  0  -0.697195  0  3.10548  0  0  -0.657633  0  3.350282  0  0  -0.679704  0  3.34129  0  0  -0.569864  -0.64222  0  3.356371  0
N  N67  1  0.60172694  0.65408504  0.47012378  1  0  -0.697194  0  3.105564  0  0  -0.657708  0  3.350234  0  0  -0.67978  0  3.341243  0  0  -0.569819  -0.642278  0  3.356344  0
N  N68  1  0.58225711  0.25520300  0.88467641  1  0  -0.670612  0  3.062281  0  0  -0.629545  0  3.291577  0  0  -0.651883  0  3.286926  0  0  -0.561156  -0.61415  0  3.29461  0
N  N69  1  0.91773337  0.25520747  0.61532081  1  0  -0.670539  0  3.062245  0  0  -0.629542  0  3.291545  0  0  -0.651879  0  3.286895  0  0  -0.561123  -0.614144  0  3.294573  0
N  N70  1  0.41774112  0.74480065  0.11532154  1  0  -0.67048  0  3.062507  0  0  -0.62945  0  3.291797  0  0  -0.651781  0  3.287149  0  0  -0.561066  -0.61405  0  3.294829  0
N  N71  1  0.08226602  0.74479925  0.38467839  1  0  -0.670637  0  3.062273  0  0  -0.629564  0  3.291575  0  0  -0.651907  0  3.286923  0  0  -0.561145  -0.614167  0  3.294616  0
N  N72  1  0.84053834  0.29917706  0.91689950  1  0  -0.601527  0  2.992258  0  0  -0.542272  0  3.270897  0  0  -0.569433  0  3.276058  0  0  -0.352813  -0.524007  0  3.267585  0
N  N73  1  0.65945630  0.29918560  0.58309620  1  0  -0.601657  0  2.992268  0  0  -0.542385  0  3.270911  0  0  -0.569543  0  3.276069  0  0  -0.352891  -0.524119  0  3.267605  0
N  N74  1  0.15945757  0.70082557  0.08309776  1  0  -0.601369  0  2.992393  0  0  -0.542105  0  3.271004  0  0  -0.569267  0  3.276168  0  0  -0.352698  -0.523833  0  3.267696  0
N  N75  1  0.34054659  0.70082625  0.41690137  1  0  -0.6016  0  2.992136  0  0  -0.542285  0  3.270847  0  0  -0.569446  0  3.276007  0  0  -0.352771  -0.524002  0  3.267558  0
N  N76  1  0.03184256  0.18555727  0.09290010  1  0  -0.574724  0  3.167613  0  0  -0.482781  0  3.442279  0  0  -0.515521  0  3.452705  0  0  -0.379925  -0.45945  0  3.434738  0
N  N77  1  0.46814917  0.18555648  0.40710259  1  0  -0.574584  0  3.167594  0  0  -0.482788  0  3.442342  0  0  -0.515532  0  3.452772  0  0  -0.379939  -0.459446  0  3.434797  0
N  N78  1  0.96816149  0.81444433  0.90709604  1  0  -0.574817  0  3.167728  0  0  -0.482815  0  3.442339  0  0  -0.515555  0  3.452767  0  0  -0.379973  -0.459473  0  3.434789  0
N  N79  1  0.53184671  0.81444820  0.59290268  1  0  -0.574588  0  3.167699  0  0  -0.48265  0  3.442368  0  0  -0.515391  0  3.452801  0  0  -0.379833  -0.459282  0  3.434815  0
N  N80  1  0.76654286  0.12127460  0.03115367  1  0  -0.57046  0  2.909543  0  0  -0.536205  0  3.174558  0  0  -0.558505  0  3.179604  0  0  -0.35431  -0.521073  0  3.171441  0
N  N81  1  0.73344751  0.12127894  0.46884791  1  0  -0.570407  0  2.909434  0  0  -0.536078  0  3.174428  0  0  -0.558381  0  3.179482  0  0  -0.354244  -0.520943  0  3.171308  0
N  N82  1  0.23345887  0.87872188  0.96884087  1  0  -0.57043  0  2.909674  0  0  -0.53618  0  3.174665  0  0  -0.558484  0  3.179717  0  0  -0.354277  -0.521048  0  3.171548  0
N  N83  1  0.26654953  0.87872368  0.53115860  1  0  -0.570457  0  2.909524  0  0  -0.536144  0  3.174592  0  0  -0.558447  0  3.179644  0  0  -0.354258  -0.521007  0  3.171474  0
O  O84  1  0.01180429  0.48221896  0.25069271  1  0  -0.674337  0  2.139644  0  0  -0.579021  0  2.392893  0  0  -0.612414  0  2.383475  0  0  -0.335666  -0.555146  0  2.397564  0
O  O85  1  0.48819194  0.48222088  0.24930180  1  0  -0.674279  0  2.139622  0  0  -0.579053  0  2.39297  0  0  -0.612445  0  2.383549  0  0  -0.335669  -0.555176  0  2.397638  0
O  O86  1  0.98819626  0.51778469  0.74930772  1  0  -0.67428  0  2.139555  0  0  -0.57897  0  2.392824  0  0  -0.612378  0  2.383411  0  0  -0.335644  -0.555102  0  2.39751  0
O  O87  1  0.51180746  0.51778584  0.75069739  1  0  -0.67418  0  2.139619  0  0  -0.578927  0  2.392905  0  0  -0.612325  0  2.383499  0  0  -0.335616  -0.555055  0  2.397579  0
O  O88  1  0.07121660  0.32027048  0.40530363  1  0  -0.64056  0  1.940787  0  0  -0.585062  0  2.170997  0  0  -0.610088  0  2.160932  0  0  -0.32136  -0.567905  0  2.178172  0
O  O89  1  0.42878300  0.32026695  0.09469490  1  0  -0.640503  0  1.940745  0  0  -0.584971  0  2.17096  0  0  -0.609999  0  2.160898  0  0  -0.321293  -0.567813  0  2.178131  0
O  O90  1  0.92878631  0.67972600  0.59468860  1  0  -0.640613  0  1.940761  0  0  -0.585095  0  2.170999  0  0  -0.610119  0  2.160929  0  0  -0.32138  -0.567931  0  2.178169  0
O  O91  1  0.57121869  0.67972953  0.90531301  1  0  -0.640531  0  1.940751  0  0  -0.584998  0  2.170952  0  0  -0.610022  0  2.160888  0  0  -0.321328  -0.567839  0  2.178124  0
