# generated using pymatgen
data_ZnH12C16(NO4)2
_symmetry_space_group_name_H-M   'P 1'
_cell_length_a   7.21483884
_cell_length_b   7.29217363
_cell_length_c   17.74084523
_cell_angle_alpha   84.24242838
_cell_angle_beta   78.27172418
_cell_angle_gamma   60.32323486
_symmetry_Int_Tables_number   1
_chemical_formula_structural   ZnH12C16(NO4)2
_chemical_formula_sum   'Zn2 H24 C32 N4 O16'
_cell_volume   794.01916162
_cell_formula_units_Z   2
loop_
 _symmetry_equiv_pos_site_id
 _symmetry_equiv_pos_as_xyz
  1  'x, y, z'
loop_
 _atom_site_type_symbol
 _atom_site_label
 _atom_site_symmetry_multiplicity
 _atom_site_fract_x
 _atom_site_fract_y
 _atom_site_fract_z
 _atom_site_occupancy
 _atom_site_hle17_bader_spin_density
 _atom_site_hle17_ddec_charge
 _atom_site_hle17_ddec_spin_density
 _atom_site_hle17_ddec_sum_bond_order
 _atom_site_hle17_magmom
 _atom_site_hse06_10hf_bader_spin_density
 _atom_site_hse06_10hf_ddec_charge
 _atom_site_hse06_10hf_ddec_spin_density
 _atom_site_hse06_10hf_ddec_sum_bond_order
 _atom_site_hse06_10hf_magmom
 _atom_site_hse06_bader_spin_density
 _atom_site_hse06_ddec_charge
 _atom_site_hse06_ddec_spin_density
 _atom_site_hse06_ddec_sum_bond_order
 _atom_site_hse06_magmom
 _atom_site_pbe_bader_spin_density
 _atom_site_pbe_cm5_charge
 _atom_site_pbe_ddec_charge
 _atom_site_pbe_ddec_spin_density
 _atom_site_pbe_ddec_sum_bond_order
 _atom_site_pbe_magmom
Zn  Zn0  1  0.76569208  0.00016881  0.99998650  1  0  1.160682  0  1.747224  0  0  0.985908  0  2.239941  0  0  1.037874  0  2.170365  0  0  0.691082  0.949003  0  2.288329  0
Zn  Zn1  1  0.51537519  0.50017749  0.50001990  1  0  1.160566  0  1.747976  0  0  0.985867  0  2.240655  0  0  1.037822  0  2.171087  0  0  0.691177  0.948972  0  2.289025  0
H  H2  1  0.93158830  0.90463593  0.69443209  1  0  0.126456  0  0.936879  0  0  0.131679  0  1.00341  0  0  0.136017  0  0.998707  0  0  0.137146  0.128393  0  1.006989  0
H  H3  1  0.53076965  0.09529387  0.30553942  1  0  0.125896  0  0.936055  0  0  0.130956  0  1.002944  0  0  0.135258  0  0.99833  0  0  0.136937  0.127692  0  1.006468  0
H  H4  1  0.37626954  0.40483404  0.80547450  1  0  0.125838  0  0.936364  0  0  0.130674  0  1.003497  0  0  0.134966  0  0.998889  0  0  0.136956  0.127414  0  1.007021  0
H  H5  1  0.58643388  0.59513021  0.19455126  1  0  0.126121  0  0.936437  0  0  0.131419  0  1.002879  0  0  0.135715  0  0.998239  0  0  0.137208  0.128137  0  1.006454  0
H  H6  1  0.27675842  0.82801508  0.74965407  1  0  0.139622  0  0.954848  0  0  0.144729  0  1.019033  0  0  0.149249  0  1.016545  0  0  0.117315  0.141458  0  1.020997  0
H  H7  1  0.85433883  0.17177206  0.25046393  1  0  0.139147  0  0.95379  0  0  0.144025  0  1.018315  0  0  0.148587  0  1.015848  0  0  0.117162  0.140718  0  1.02027  0
H  H8  1  0.77695443  0.32727976  0.75047326  1  0  0.14007  0  0.953284  0  0  0.144811  0  1.017873  0  0  0.149366  0  1.015404  0  0  0.11736  0.141506  0  1.019834  0
H  H9  1  0.85459877  0.67250735  0.24939880  1  0  0.139652  0  0.953917  0  0  0.144767  0  1.017976  0  0  0.149269  0  1.015548  0  0  0.117391  0.141503  0  1.019905  0
H  H10  1  0.43540147  0.84520093  0.86014888  1  0  0.131479  0  0.903969  0  0  0.142537  0  0.957463  0  0  0.146503  0  0.953524  0  0  0.125314  0.139508  0  0.960507  0
H  H11  1  0.14068396  0.15429757  0.13991062  1  0  0.13114  0  0.904001  0  0  0.142556  0  0.957126  0  0  0.146523  0  0.953181  0  0  0.125073  0.139529  0  0.96018  0
H  H12  1  0.04553454  0.34505647  0.63989757  1  0  0.130818  0  0.90413  0  0  0.142569  0  0.956952  0  0  0.146549  0  0.952972  0  0  0.125003  0.13953  0  0.960033  0
H  H13  1  0.03023305  0.65474489  0.36002961  1  0  0.131561  0  0.904363  0  0  0.142928  0  0.957535  0  0  0.146894  0  0.953605  0  0  0.125536  0.139892  0  0.960591  0
H  H14  1  0.94186601  0.91636129  0.57547493  1  0  0.136567  0  0.954743  0  0  0.153015  0  1.017729  0  0  0.155674  0  1.015579  0  0  0.11495  0.150981  0  1.019378  0
H  H15  1  0.43392135  0.08348729  0.42455757  1  0  0.136433  0  0.955233  0  0  0.153009  0  1.01793  0  0  0.155718  0  1.015713  0  0  0.114914  0.150943  0  1.019623  0
H  H16  1  0.26736393  0.41718905  0.92450317  1  0  0.136389  0  0.954696  0  0  0.152554  0  1.017853  0  0  0.155278  0  1.015608  0  0  0.114733  0.150488  0  1.019543  0
H  H17  1  0.60882856  0.58325261  0.07549705  1  0  0.136199  0  0.954797  0  0  0.152888  0  1.017622  0  0  0.155524  0  1.015518  0  0  0.114986  0.150859  0  1.019274  0
H  H18  1  0.69275643  0.01122727  0.54046188  1  0  0.124092  0  0.941935  0  0  0.139755  0  1.009733  0  0  0.141374  0  1.008698  0  0  0.112055  0.138367  0  1.010684  0
H  H19  1  0.24459378  0.98881155  0.45955064  1  0  0.123259  0  0.943899  0  0  0.139147  0  1.011381  0  0  0.14072  0  1.010403  0  0  0.111933  0.137824  0  1.01225  0
H  H20  1  0.98320087  0.51208231  0.95941861  1  0  0.123243  0  0.943398  0  0  0.138993  0  1.01116  0  0  0.14057  0  1.010178  0  0  0.111744  0.137665  0  1.012033  0
H  H21  1  0.45461200  0.48842209  0.04049284  1  0  0.123713  0  0.942112  0  0  0.139212  0  1.010419  0  0  0.140824  0  1.009373  0  0  0.112033  0.137861  0  1.011328  0
H  H22  1  0.87532550  0.73504876  0.54151617  1  0  0.13888  0  0.916323  0  0  0.160146  0  0.969627  0  0  0.162078  0  0.967749  0  0  0.118946  0.158589  0  0.971148  0
H  H23  1  0.15199082  0.26494415  0.45847949  1  0  0.13898  0  0.915645  0  0  0.160449  0  0.968773  0  0  0.16242  0  0.966843  0  0  0.119062  0.158866  0  0.97033  0
H  H24  1  0.16691176  0.23593488  0.95857698  1  0  0.138992  0  0.915729  0  0  0.160299  0  0.968968  0  0  0.162244  0  0.967086  0  0  0.119187  0.158718  0  0.970528  0
H  H25  1  0.36095981  0.76455010  0.04148035  1  0  0.139153  0  0.915634  0  0  0.160547  0  0.968947  0  0  0.162511  0  0.967024  0  0  0.119047  0.158971  0  0.970486  0
C  C26  1  0.79964332  0.88698626  0.84948243  1  0  0.633588  0  3.964515  0  0  0.582469  0  4.263892  0  0  0.616163  0  4.259129  0  0  0.200482  0.559731  0  4.266315  0
C  C27  1  0.53596928  0.11297710  0.15050766  1  0  0.63223  0  3.964542  0  0  0.580831  0  4.264508  0  0  0.614493  0  4.25975  0  0  0.199102  0.558133  0  4.266914  0
C  C28  1  0.39926138  0.38673897  0.65045522  1  0  0.632223  0  3.964873  0  0  0.580636  0  4.264959  0  0  0.614338  0  4.260189  0  0  0.198878  0.557897  0  4.267374  0
C  C29  1  0.43628368  0.61304748  0.34955290  1  0  0.633067  0  3.965108  0  0  0.581605  0  4.264925  0  0  0.615303  0  4.260165  0  0  0.199703  0.55887  0  4.267339  0
C  C30  1  0.69609944  0.87488200  0.78578658  1  0  -0.104389  0  3.746058  0  0  -0.083515  0  3.997112  0  0  -0.095893  0  4.019359  0  0  -0.007308  -0.075976  0  3.982494  0
C  C31  1  0.35677503  0.12494317  0.21422260  1  0  -0.103159  0  3.744914  0  0  -0.082291  0  3.995776  0  0  -0.094533  0  4.017851  0  0  -0.006691  -0.07487  0  3.981306  0
C  C32  1  0.23216369  0.37466971  0.71419728  1  0  -0.104668  0  3.745907  0  0  -0.083253  0  3.996255  0  0  -0.095646  0  4.018513  0  0  -0.006922  -0.075719  0  3.981646  0
C  C33  1  0.32085672  0.62512841  0.28578673  1  0  -0.104004  0  3.746355  0  0  -0.08269  0  3.997159  0  0  -0.095059  0  4.019406  0  0  -0.006931  -0.075167  0  3.982556  0
C  C34  1  0.78854966  0.88459760  0.70981549  1  0  0.087976  0  3.553136  0  0  0.03562  0  3.802749  0  0  0.045261  0  3.817037  0  0  0.075177  0.029523  0  3.793186  0
C  C35  1  0.38305734  0.11530661  0.29018368  1  0  0.088913  0  3.550606  0  0  0.036961  0  3.800203  0  0  0.046563  0  3.814444  0  0  0.07556  0.030904  0  3.790661  0
C  C36  1  0.24872295  0.38457327  0.79014907  1  0  0.089515  0  3.551654  0  0  0.037554  0  3.801077  0  0  0.047204  0  3.815363  0  0  0.075912  0.031461  0  3.791505  0
C  C37  1  0.42329821  0.61534327  0.20984564  1  0  0.087969  0  3.552564  0  0  0.03563  0  3.802016  0  0  0.04528  0  3.816322  0  0  0.075255  0.029549  0  3.792444  0
C  C38  1  0.52253239  0.84848741  0.66426354  1  0  0.090345  0  3.575096  0  0  0.082195  0  3.815321  0  0  0.087943  0  3.829857  0  0  0.140066  0.07813  0  3.805936  0
C  C39  1  0.03529774  0.15157933  0.33580639  1  0  0.090413  0  3.575462  0  0  0.083245  0  3.81445  0  0  0.088766  0  3.829328  0  0  0.140065  0.07926  0  3.804943  0
C  C40  1  0.93740823  0.34814850  0.83578559  1  0  0.091434  0  3.574577  0  0  0.083887  0  3.814201  0  0  0.089704  0  3.828651  0  0  0.139669  0.079784  0  3.804842  0
C  C41  1  0.12122949  0.65177612  0.16414390  1  0  0.089989  0  3.575748  0  0  0.08183  0  3.815982  0  0  0.087591  0  3.830502  0  0  0.139854  0.077756  0  3.806614  0
C  C42  1  0.42369125  0.84107426  0.73972100  1  0  -0.103456  0  3.678  0  0  -0.1276  0  3.940112  0  0  -0.135278  0  3.95901  0  0  -0.065384  -0.122861  0  3.927813  0
C  C43  1  0.00445795  0.15875853  0.26036512  1  0  -0.102054  0  3.675877  0  0  -0.126376  0  3.93808  0  0  -0.134057  0  3.956964  0  0  -0.064988  -0.121605  0  3.925801  0
C  C44  1  0.91390151  0.34056213  0.76035688  1  0  -0.103763  0  3.676468  0  0  -0.127828  0  3.938899  0  0  -0.135613  0  3.957724  0  0  -0.065035  -0.12302  0  3.926658  0
C  C45  1  0.01470186  0.65924857  0.23956085  1  0  -0.103872  0  3.677619  0  0  -0.127693  0  3.939915  0  0  -0.135355  0  3.958731  0  0  -0.065243  -0.122978  0  3.927707  0
C  C46  1  0.50998605  0.85316795  0.80095434  1  0  0.024547  0  3.636877  0  0  -0.014622  0  3.902555  0  0  -0.00519  0  3.913554  0  0  -0.045296  -0.020637  0  3.895176  0
C  C47  1  0.16411039  0.14652396  0.19909810  1  0  0.023174  0  3.635334  0  0  -0.016208  0  3.901055  0  0  -0.006799  0  3.91202  0  0  -0.045789  -0.022208  0  3.893715  0
C  C48  1  0.06118998  0.35288497  0.69908061  1  0  0.024411  0  3.63563  0  0  -0.015485  0  3.901221  0  0  -0.00603  0  3.912233  0  0  -0.04557  -0.02151  0  3.893833  0
C  C49  1  0.11298781  0.64692190  0.30085992  1  0  0.024578  0  3.637099  0  0  -0.015303  0  3.903012  0  0  -0.005875  0  3.914037  0  0  -0.04559  -0.021326  0  3.895633  0
C  C50  1  0.81161889  0.88408941  0.57139471  1  0  -0.192338  0  3.5347  0  0  -0.299043  0  3.780789  0  0  -0.296398  0  3.786995  0  0  -0.1329  -0.300457  0  3.776829  0
C  C51  1  0.26728617  0.11586618  0.42863239  1  0  -0.190836  0  3.536142  0  0  -0.297841  0  3.781874  0  0  -0.295225  0  3.788114  0  0  -0.132703  -0.299248  0  3.77787  0
C  C52  1  0.13313605  0.38478244  0.92859304  1  0  -0.190943  0  3.535262  0  0  -0.297405  0  3.781135  0  0  -0.294778  0  3.787341  0  0  -0.132696  -0.298815  0  3.777132  0
C  C53  1  0.44629112  0.61561627  0.07138961  1  0  -0.191648  0  3.534041  0  0  -0.298861  0  3.780884  0  0  -0.29616  0  3.786979  0  0  -0.132754  -0.300321  0  3.776961  0
C  C54  1  0.42747556  0.82308311  0.59986670  1  0  0.619317  0  3.971778  0  0  0.569004  0  4.270167  0  0  0.602307  0  4.262989  0  0  0.214653  0.546315  0  4.274137  0
C  C55  1  0.85040867  0.17740847  0.40024671  1  0  0.619446  0  3.968437  0  0  0.568604  0  4.267292  0  0  0.601994  0  4.259999  0  0  0.21407  0.545885  0  4.271319  0
C  C56  1  0.77813882  0.32264733  0.90021699  1  0  0.61892  0  3.969242  0  0  0.568  0  4.268377  0  0  0.601311  0  4.261128  0  0  0.21414  0.545321  0  4.272384  0
C  C57  1  0.00103982  0.67717451  0.09966981  1  0  0.620064  0  3.969197  0  0  0.569219  0  4.268394  0  0  0.60255  0  4.261146  0  0  0.214337  0.546506  0  4.272414  0
N  N58  1  0.70418585  0.86995069  0.65056783  1  0  0.033544  0  3.50528  0  0  0.131187  0  3.710657  0  0  0.118472  0  3.736412  0  0  -0.194832  0.139213  0  3.693433  0
N  N59  1  0.22481208  0.13003827  0.34946042  1  0  0.032256  0  3.506111  0  0  0.129291  0  3.71185  0  0  0.116621  0  3.737684  0  0  -0.194791  0.137295  0  3.6946  0
N  N60  1  0.10519505  0.36998524  0.84943143  1  0  0.032011  0  3.506468  0  0  0.129207  0  3.712201  0  0  0.116461  0  3.737966  0  0  -0.19495  0.137242  0  3.694983  0
N  N61  1  0.32445655  0.63006173  0.15053140  1  0  0.034027  0  3.505334  0  0  0.131756  0  3.710771  0  0  0.119044  0  3.736548  0  0  -0.195112  0.139777  0  3.693549  0
O  O62  1  0.68264095  0.90965941  0.91735933  1  0  -0.655925  0  2.018752  0  0  -0.586307  0  2.292487  0  0  -0.616069  0  2.276231  0  0  -0.329132  -0.5654  0  2.303  0
O  O63  1  0.50952451  0.09023146  0.08263895  1  0  -0.655076  0  2.019453  0  0  -0.58519  0  2.293146  0  0  -0.614978  0  2.276961  0  0  -0.328194  -0.564244  0  2.303548  0
O  O64  1  0.34994662  0.40941078  0.58261228  1  0  -0.654953  0  2.020193  0  0  -0.585164  0  2.294001  0  0  -0.614937  0  2.27778  0  0  -0.328293  -0.564242  0  2.304478  0
O  O65  1  0.34171455  0.59059526  0.41741139  1  0  -0.655525  0  2.018393  0  0  -0.585763  0  2.292211  0  0  -0.615527  0  2.275971  0  0  -0.32861  -0.564848  0  2.302703  0
O  O66  1  0.98234152  0.87377003  0.83348041  1  0  -0.595783  0  1.919678  0  0  -0.552263  0  2.142586  0  0  -0.575529  0  2.136474  0  0  -0.312815  -0.536051  0  2.146308  0
O  O67  1  0.68937363  0.12633790  0.16651181  1  0  -0.595783  0  1.918828  0  0  -0.552248  0  2.142113  0  0  -0.575538  0  2.136035  0  0  -0.312703  -0.535976  0  2.145725  0
O  O68  1  0.56605568  0.37347906  0.66640452  1  0  -0.595393  0  1.918014  0  0  -0.551738  0  2.141133  0  0  -0.575007  0  2.135028  0  0  -0.312446  -0.535495  0  2.144809  0
O  O69  1  0.60578699  0.62620888  0.33360872  1  0  -0.595639  0  1.919269  0  0  -0.552297  0  2.142598  0  0  -0.575546  0  2.136449  0  0  -0.312786  -0.53605  0  2.146261  0
O  O70  1  0.22621306  0.90693695  0.60967317  1  0  -0.576956  0  1.924813  0  0  -0.533325  0  2.143169  0  0  -0.557436  0  2.136204  0  0  -0.298427  -0.515861  0  2.147182  0
O  O71  1  0.74264760  0.09367437  0.39053555  1  0  -0.577089  0  1.922246  0  0  -0.533284  0  2.140781  0  0  -0.557392  0  2.133761  0  0  -0.298179  -0.515827  0  2.144797  0
O  O72  1  0.58663831  0.40654328  0.89047771  1  0  -0.57661  0  1.923574  0  0  -0.532557  0  2.141965  0  0  -0.556682  0  2.135009  0  0  -0.297883  -0.515093  0  2.145931  0
O  O73  1  0.88386944  0.59313338  0.10935967  1  0  -0.577225  0  1.922659  0  0  -0.533292  0  2.141098  0  0  -0.55742  0  2.13413  0  0  -0.298305  -0.515823  0  2.145131  0
O  O74  1  0.56716922  0.70608996  0.54364944  1  0  -0.637791  0  2.077953  0  0  -0.568631  0  2.35028  0  0  -0.598163  0  2.333161  0  0  -0.315546  -0.547575  0  2.361296  0
O  O75  1  0.81699433  0.29458335  0.45637781  1  0  -0.637818  0  2.077993  0  0  -0.568627  0  2.350475  0  0  -0.598191  0  2.333339  0  0  -0.315446  -0.547489  0  2.361357  0
O  O76  1  0.86175553  0.20557419  0.95638389  1  0  -0.63776  0  2.077104  0  0  -0.568581  0  2.349811  0  0  -0.598136  0  2.332652  0  0  -0.315473  -0.547439  0  2.360689  0
O  O77  1  0.02365989  0.79430002  0.04353614  1  0  -0.638449  0  2.077487  0  0  -0.568887  0  2.349739  0  0  -0.598457  0  2.332616  0  0  -0.315448  -0.547808  0  2.360758  0
