# generated using pymatgen
data_TbH7C13(NO3)2
_symmetry_space_group_name_H-M   'P 1'
_cell_length_a   6.75266810
_cell_length_b   12.91050672
_cell_length_c   14.58600000
_cell_angle_alpha   90.00000000
_cell_angle_beta   92.44576277
_cell_angle_gamma   90.00000000
_symmetry_Int_Tables_number   1
_chemical_formula_structural   TbH7C13(NO3)2
_chemical_formula_sum   'Tb4 H28 C52 N8 O24'
_cell_volume   1270.45447400
_cell_formula_units_Z   4
loop_
 _symmetry_equiv_pos_site_id
 _symmetry_equiv_pos_as_xyz
  1  'x, y, z'
loop_
 _atom_site_type_symbol
 _atom_site_label
 _atom_site_symmetry_multiplicity
 _atom_site_fract_x
 _atom_site_fract_y
 _atom_site_fract_z
 _atom_site_occupancy
 _atom_site_hle17_bader_spin_density
 _atom_site_hle17_ddec_charge
 _atom_site_hle17_ddec_spin_density
 _atom_site_hle17_ddec_sum_bond_order
 _atom_site_hle17_magmom
 _atom_site_hse06_10hf_bader_spin_density
 _atom_site_hse06_10hf_ddec_charge
 _atom_site_hse06_10hf_ddec_spin_density
 _atom_site_hse06_10hf_ddec_sum_bond_order
 _atom_site_hse06_10hf_magmom
 _atom_site_hse06_bader_spin_density
 _atom_site_hse06_ddec_charge
 _atom_site_hse06_ddec_spin_density
 _atom_site_hse06_ddec_sum_bond_order
 _atom_site_hse06_magmom
 _atom_site_pbe_bader_charge
 _atom_site_pbe_bader_spin_density
 _atom_site_pbe_cm5_charge
 _atom_site_pbe_ddec_charge
 _atom_site_pbe_ddec_spin_density
 _atom_site_pbe_ddec_sum_bond_order
 _atom_site_pbe_magmom
Tb  Tb0  1  0.38615482  0.62754934  0.44657718  1  0  2.285766  0  1.681097  0  0  2.144324  0  2.147147  0  0  2.262631  0  1.975333  0  2.187665  0  1.541766  2.107408  0  2.180582  0
Tb  Tb1  1  0.11384245  0.12755115  0.55342349  1  0  2.285731  0  1.681186  0  0  2.144244  0  2.1473  0  0  2.262576  0  1.975436  0  2.187626  0  1.541776  2.107326  0  2.180736  0
Tb  Tb2  1  0.61384268  0.37244936  0.55342352  1  0  2.285744  0  1.681122  0  0  2.144275  0  2.147207  0  0  2.262594  0  1.975363  0  2.187671  0  1.541787  2.107361  0  2.180645  0
Tb  Tb3  1  0.88615654  0.87244988  0.44657588  1  0  2.285762  0  1.681043  0  0  2.144268  0  2.147162  0  0  2.262617  0  1.975278  0  2.187626  0  1.541752  2.10735  0  2.180598  0
H  H4  1  0.80275350  0.49578534  0.75842193  1  0  0.099751  0  0.938193  0  0  0.109389  0  0.999045  0  0  0.112293  0  0.997535  0  0.085409  0  0.112809  0.107127  0  1.000581  0
H  H5  1  0.69724276  0.99578198  0.24157810  1  0  0.099792  0  0.938094  0  0  0.109401  0  0.998979  0  0  0.112306  0  0.997469  0  0.085451  0  0.112836  0.107137  0  1.000517  0
H  H6  1  0.19724845  0.50421569  0.24157818  1  0  0.099772  0  0.938169  0  0  0.109413  0  0.999026  0  0  0.112317  0  0.997515  0  0.085417  0  0.112816  0.107149  0  1.000563  0
H  H7  1  0.30275178  0.00421517  0.75842392  1  0  0.099768  0  0.938195  0  0  0.1094  0  0.999051  0  0  0.112304  0  0.997542  0  0.085447  0  0.112829  0.107137  0  1.000588  0
H  H8  1  0.72303681  0.52141950  0.92551358  1  0  0.12076  0  0.949881  0  0  0.124884  0  1.016182  0  0  0.129285  0  1.013746  0  0.115442  0  0.11027  0.121745  0  1.018063  0
H  H9  1  0.77696538  0.02141821  0.07448726  1  0  0.120803  0  0.949849  0  0  0.124911  0  1.01617  0  0  0.129312  0  1.013734  0  0.115474  0  0.110279  0.121771  0  1.018053  0
H  H10  1  0.27696514  0.47858153  0.07448653  1  0  0.120779  0  0.949863  0  0  0.124885  0  1.016186  0  0  0.129286  0  1.013751  0  0.115463  0  0.110268  0.121745  0  1.01807  0
H  H11  1  0.22303509  0.97858049  0.92551625  1  0  0.120753  0  0.949855  0  0  0.124862  0  1.016185  0  0  0.129264  0  1.013749  0  0.115436  0  0.110263  0.121723  0  1.018067  0
H  H12  1  0.09461920  0.21242853  0.83976865  1  0  0.068478  0  0.980533  0  0  0.074999  0  1.050425  0  0  0.07688  0  1.049969  0  0.101088  0  0.109873  0.073693  0  1.050601  0
H  H13  1  0.40538104  0.71242672  0.16022796  1  0  0.068462  0  0.980517  0  0  0.074959  0  1.05042  0  0  0.076837  0  1.049959  0  0.101081  0  0.109877  0.073654  0  1.050594  0
H  H14  1  0.90538127  0.78757172  0.16022731  1  0  0.068485  0  0.980536  0  0  0.074973  0  1.050451  0  0  0.076852  0  1.049993  0  0.101098  0  0.109877  0.073669  0  1.050621  0
H  H15  1  0.59462091  0.28757121  0.83977009  1  0  0.068485  0  0.98052  0  0  0.075  0  1.050407  0  0  0.076881  0  1.049951  0  0.10109  0  0.109878  0.073695  0  1.050581  0
H  H16  1  0.94809072  0.24738998  0.10962586  1  0  0.115105  0  0.960285  0  0  0.120011  0  1.026717  0  0  0.123779  0  1.025738  0  0.09509  0  0.106544  0.117302  0  1.027605  0
H  H17  1  0.55191739  0.74738895  0.89037646  1  0  0.115099  0  0.960216  0  0  0.119996  0  1.026659  0  0  0.123766  0  1.025676  0  0.095145  0  0.106552  0.117287  0  1.027546  0
H  H18  1  0.05191271  0.75260950  0.89037565  1  0  0.115095  0  0.960291  0  0  0.119999  0  1.026716  0  0  0.123767  0  1.025737  0  0.095137  0  0.106566  0.11729  0  1.027604  0
H  H19  1  0.44809048  0.25261053  0.10962445  1  0  0.115121  0  0.96025  0  0  0.120004  0  1.026701  0  0  0.123773  0  1.02572  0  0.095095  0  0.106565  0.117294  0  1.027588  0
H  H20  1  0.85651161  0.27718354  0.27474176  1  0  0.102103  0  0.931585  0  0  0.113837  0  0.987798  0  0  0.117167  0  0.985075  0  0.097676  0  0.109001  0.111471  0  0.98948  0
H  H21  1  0.64348761  0.77718173  0.72525902  1  0  0.102041  0  0.931663  0  0  0.113779  0  0.987872  0  0  0.117108  0  0.985164  0  0.097686  0  0.10898  0.111417  0  0.989549  0
H  H22  1  0.14348886  0.72281749  0.72525832  1  0  0.102091  0  0.931584  0  0  0.113824  0  0.987793  0  0  0.117153  0  0.985084  0  0.097694  0  0.108996  0.111461  0  0.989472  0
H  H23  1  0.35651137  0.22281775  0.27474103  1  0  0.102053  0  0.931641  0  0  0.113792  0  0.987846  0  0  0.117122  0  0.985136  0  0.097684  0  0.108979  0.111431  0  0.989521  0
H  H24  1  0.58708369  0.56382915  0.18541715  1  0  0.082465  0  0.946833  0  0  0.087862  0  1.01563  0  0  0.09116  0  1.012606  0  0.102557  0  0.114586  0.085576  0  1.017569  0
H  H25  1  0.91291701  0.06382863  0.81458228  1  0  0.082507  0  0.946834  0  0  0.087892  0  1.015635  0  0  0.091191  0  1.012611  0  0.102553  0  0.114572  0.085607  0  1.017576  0
H  H26  1  0.41291826  0.43617111  0.81458227  1  0  0.082494  0  0.946837  0  0  0.087876  0  1.015641  0  0  0.091175  0  1.012617  0  0.102511  0  0.114568  0.085592  0  1.01758  0
H  H27  1  0.08708049  0.93617162  0.18541706  1  0  0.082485  0  0.946843  0  0  0.087882  0  1.015633  0  0  0.09118  0  1.012608  0  0.102528  0  0.114576  0.085596  0  1.017573  0
H  H28  1  0.94469489  0.63034009  0.55810669  1  0  0.043141  0  0.902588  0  0  0.049911  0  0.969708  0  0  0.051117  0  0.964568  0  0.143259  0  0.140688  0.048703  0  0.973946  0
H  H29  1  0.55530581  0.13034655  0.44189685  1  0  0.043257  0  0.902368  0  0  0.049996  0  0.969533  0  0  0.051203  0  0.964394  0  0.143234  0  0.140703  0.048786  0  0.973778  0
H  H30  1  0.05530706  0.36965319  0.44189616  1  0  0.043262  0  0.902374  0  0  0.050002  0  0.969533  0  0  0.051209  0  0.964395  0  0.143243  0  0.140707  0.048792  0  0.973777  0
H  H31  1  0.44469317  0.86966145  0.55810594  1  0  0.043122  0  0.902497  0  0  0.049885  0  0.969634  0  0  0.051092  0  0.964493  0  0.143312  0  0.140661  0.048678  0  0.97387  0
C  C32  1  0.98761482  0.32581525  0.68955931  1  0  0.738709  0  3.845284  0  0  0.690007  0  4.135821  0  0  0.726981  0  4.128743  0  1.591063  0  0.238583  0.664771  0  4.143709  0
C  C33  1  0.51238440  0.82581344  0.31043941  1  0  0.738899  0  3.844955  0  0  0.690203  0  4.135472  0  0  0.727177  0  4.128387  0  1.591064  0  0.238582  0.664962  0  4.143371  0
C  C34  1  0.01238713  0.67418500  0.31043737  1  0  0.738843  0  3.844963  0  0  0.69012  0  4.135518  0  0  0.727094  0  4.128434  0  1.591017  0  0.23858  0.664878  0  4.143416  0
C  C35  1  0.48761458  0.17418371  0.68955996  1  0  0.738706  0  3.845168  0  0  0.690046  0  4.135644  0  0  0.727019  0  4.128562  0  1.59105  0  0.238572  0.664805  0  4.143536  0
C  C36  1  0.95431763  0.35149356  0.78711073  1  0  -0.132869  0  3.739747  0  0  -0.109113  0  3.975236  0  0  -0.120805  0  3.996325  0  -0.008131  0  -0.012236  -0.101401  0  3.960465  0
C  C37  1  0.54567862  0.85149020  0.21288793  1  0  -0.13306  0  3.740008  0  0  -0.109285  0  3.975467  0  0  -0.120982  0  3.996555  0  -0.008205  0  -0.012288  -0.101566  0  3.960688  0
C  C38  1  0.04567839  0.64850747  0.21288652  1  0  -0.132935  0  3.739949  0  0  -0.109156  0  3.975421  0  0  -0.120851  0  3.996507  0  -0.008211  0  -0.012252  -0.101435  0  3.960636  0
C  C39  1  0.45432036  0.14850540  0.78711144  1  0  -0.13289  0  3.739784  0  0  -0.109143  0  3.975267  0  0  -0.120836  0  3.996354  0  -0.008201  0  -0.012239  -0.101428  0  3.96049  0
C  C40  1  0.85012609  0.44042810  0.81124662  1  0  -0.018052  0  3.727243  0  0  -0.048613  0  3.983836  0  0  -0.044309  0  4.001887  0  -0.095161  0  -0.062381  -0.051131  0  3.971507  0
C  C41  1  0.64987164  0.94042552  0.18875207  1  0  -0.018003  0  3.726983  0  0  -0.048548  0  3.983569  0  0  -0.044242  0  4.001618  0  -0.095129  0  -0.062375  -0.051069  0  3.971243  0
C  C42  1  0.14987438  0.55957215  0.18875209  1  0  -0.018062  0  3.727123  0  0  -0.048646  0  3.983715  0  0  -0.044341  0  4.001762  0  -0.095109  0  -0.062389  -0.051168  0  3.971388  0
C  C43  1  0.35012586  0.05957164  0.81124795  1  0  -0.018031  0  3.727212  0  0  -0.048594  0  3.983821  0  0  -0.044288  0  4.001868  0  -0.095156  0  -0.062373  -0.051113  0  3.971492  0
C  C44  1  0.80571354  0.45475055  0.90228405  1  0  -0.135472  0  3.68906  0  0  -0.15352  0  3.939961  0  0  -0.161038  0  3.960181  0  0.009052  0  -0.075576  -0.148672  0  3.926271  0
C  C45  1  0.69428864  0.95474796  0.09771472  1  0  -0.135495  0  3.68903  0  0  -0.153549  0  3.939913  0  0  -0.161067  0  3.960134  0  0.009066  0  -0.075551  -0.148701  0  3.926225  0
C  C46  1  0.19428841  0.54525048  0.09771537  1  0  -0.135463  0  3.689031  0  0  -0.153482  0  3.939948  0  0  -0.161  0  3.960169  0  0.009065  0  -0.07554  -0.148636  0  3.926262  0
C  C47  1  0.30571035  0.04524997  0.90228533  1  0  -0.135411  0  3.68903  0  0  -0.153463  0  3.939944  0  0  -0.160981  0  3.960163  0  0.009041  0  -0.075543  -0.148616  0  3.926254  0
C  C48  1  0.86599206  0.37901611  0.96690560  1  0  0.18761  0  3.742209  0  0  0.186852  0  3.986888  0  0  0.19394  0  4.004035  0  0.51073  0  0.130872  0.182276  0  3.975062  0
C  C49  1  0.63400864  0.87901352  0.03309314  1  0  0.187544  0  3.742373  0  0  0.186856  0  3.986977  0  0  0.193945  0  4.004117  0  0.510762  0  0.130874  0.182278  0  3.975149  0
C  C50  1  0.13400989  0.62098725  0.03309450  1  0  0.187632  0  3.74224  0  0  0.186855  0  3.986961  0  0  0.193942  0  4.004107  0  0.510758  0  0.1309  0.182279  0  3.975134  0
C  C51  1  0.36598886  0.12098441  0.96690619  1  0  0.187585  0  3.742338  0  0  0.186847  0  3.986998  0  0  0.193939  0  4.004142  0  0.510659  0  0.130852  0.18227  0  3.975171  0
C  C52  1  0.01274139  0.28195485  0.85714257  1  0  0.139849  0  3.686272  0  0  0.103841  0  3.945773  0  0  0.111598  0  3.961295  0  0.534434  0  0.05817  0.099022  0  3.934665  0
C  C53  1  0.48725736  0.78195537  0.14285538  1  0  0.139922  0  3.686298  0  0  0.103941  0  3.945798  0  0  0.111706  0  3.961315  0  0.534462  0  0.058194  0.099118  0  3.934691  0
C  C54  1  0.98725759  0.71804463  0.14285473  1  0  0.139839  0  3.686405  0  0  0.103867  0  3.945884  0  0  0.111629  0  3.961402  0  0.534461  0  0.058181  0.099047  0  3.934773  0
C  C55  1  0.51274310  0.21804489  0.85714401  1  0  0.139808  0  3.686255  0  0  0.10382  0  3.945736  0  0  0.111578  0  3.961256  0  0.534495  0  0.058138  0.098999  0  3.934628  0
C  C56  1  0.81345828  0.39071666  0.06374791  1  0  0.190515  0  3.744231  0  0  0.18832  0  3.98929  0  0  0.19587  0  4.006486  0  0.533312  0  0.131823  0.1834  0  3.977586  0
C  C57  1  0.68654687  0.89071639  0.93625230  1  0  0.190488  0  3.744313  0  0  0.188269  0  3.989357  0  0  0.195815  0  4.006554  0  0.533087  0  0.131823  0.183349  0  3.977652  0
C  C58  1  0.18654515  0.60928360  0.93625223  1  0  0.190311  0  3.744338  0  0  0.18812  0  3.989405  0  0  0.195673  0  4.006596  0  0.533126  0  0.131737  0.1832  0  3.9777  0
C  C59  1  0.31345360  0.10928308  0.06374709  1  0  0.190459  0  3.744364  0  0  0.188282  0  3.989369  0  0  0.195821  0  4.006583  0  0.533141  0  0.131848  0.183362  0  3.977664  0
C  C60  1  0.86768033  0.31597056  0.13034771  1  0  -0.138224  0  3.693491  0  0  -0.155902  0  3.94252  0  0  -0.163554  0  3.962899  0  0.020485  0  -0.078236  -0.151003  0  3.928737  0
C  C61  1  0.63232333  0.81597030  0.86965316  1  0  -0.138094  0  3.693374  0  0  -0.155742  0  3.94238  0  0  -0.16339  0  3.962758  0  0.020462  0  -0.07817  -0.150845  0  3.928599  0
C  C62  1  0.13231717  0.68402892  0.86965231  1  0  -0.138067  0  3.693573  0  0  -0.155724  0  3.94257  0  0  -0.163375  0  3.96295  0  0.02038  0  -0.078174  -0.150826  0  3.928787  0
C  C63  1  0.36767565  0.18402996  0.13034689  1  0  -0.138181  0  3.693451  0  0  -0.155829  0  3.942454  0  0  -0.163478  0  3.962837  0  0.020421  0  -0.078242  -0.150931  0  3.928672  0
C  C64  1  0.81727358  0.33269879  0.22053862  1  0  -0.020994  0  3.721595  0  0  -0.047107  0  3.968867  0  0  -0.042865  0  3.987316  0  -0.085454  0  -0.067428  -0.049255  0  3.955443  0
C  C65  1  0.68272712  0.83269776  0.77946355  1  0  -0.020999  0  3.72166  0  0  -0.047145  0  3.968949  0  0  -0.042912  0  3.987403  0  -0.085459  0  -0.067474  -0.049295  0  3.95553  0
C  C66  1  0.18272540  0.66730146  0.77946417  1  0  -0.021018  0  3.7217  0  0  -0.047144  0  3.968976  0  0  -0.042912  0  3.987432  0  -0.085392  0  -0.067462  -0.049295  0  3.955557  0
C  C67  1  0.31727039  0.16730250  0.22053647  1  0  -0.020993  0  3.721673  0  0  -0.047119  0  3.968966  0  0  -0.042887  0  3.987422  0  -0.085418  0  -0.067451  -0.049269  0  3.955544  0
C  C68  1  0.65549380  0.44945796  0.33599532  1  0  0.731195  0  3.850495  0  0  0.685887  0  4.139378  0  0  0.722663  0  4.131474  0  1.578023  0  0.234177  0.661375  0  4.146177  0
C  C69  1  0.84450393  0.94945847  0.66400542  1  0  0.73086  0  3.850988  0  0  0.685526  0  4.139881  0  0  0.722323  0  4.131964  0  1.578013  0  0.233993  0.661014  0  4.146672  0
C  C70  1  0.34450666  0.55054075  0.66400613  1  0  0.730941  0  3.850753  0  0  0.68565  0  4.139611  0  0  0.72243  0  4.131706  0  1.577908  0  0.23403  0.661136  0  4.146402  0
C  C71  1  0.15549357  0.05054333  0.33599460  1  0  0.731111  0  3.850746  0  0  0.685797  0  4.139627  0  0  0.722581  0  4.131715  0  1.578011  0  0.234123  0.661284  0  4.146426  0
C  C72  1  0.71471696  0.42336216  0.24172381  1  0  -0.138689  0  3.746996  0  0  -0.115361  0  3.980754  0  0  -0.128048  0  4.003578  0  -0.037507  0  -0.021585  -0.106841  0  3.964194  0
C  C73  1  0.78528374  0.92336035  0.75827767  1  0  -0.138557  0  3.747097  0  0  -0.115183  0  3.980774  0  0  -0.127876  0  4.003597  0  -0.03744  0  -0.02149  -0.106664  0  3.964211  0
C  C74  1  0.28528647  0.57663964  0.75827769  1  0  -0.138543  0  3.747086  0  0  -0.115209  0  3.980784  0  0  -0.127896  0  4.003612  0  -0.03744  0  -0.021503  -0.106686  0  3.96422  0
C  C75  1  0.21471376  0.07663990  0.24172303  1  0  -0.138606  0  3.747055  0  0  -0.115282  0  3.980799  0  0  -0.127969  0  4.003622  0  -0.037513  0  -0.021514  -0.106762  0  3.964239  0
C  C76  1  0.66650245  0.49279011  0.17012821  1  0  0.1289  0  3.718337  0  0  0.095022  0  3.977174  0  0  0.10237  0  3.993649  0  0.562126  0  0.055414  0.090487  0  3.965426  0
C  C77  1  0.83350122  0.99278907  0.82987128  1  0  0.128816  0  3.718388  0  0  0.094945  0  3.977198  0  0  0.102294  0  3.993671  0  0.562102  0  0.055396  0.090411  0  3.965446  0
C  C78  1  0.33350395  0.50721092  0.82987130  1  0  0.128813  0  3.718364  0  0  0.094957  0  3.977172  0  0  0.102304  0  3.993649  0  0.562057  0  0.05541  0.090425  0  3.965418  0
C  C79  1  0.16649925  0.00721118  0.17012879  1  0  0.128866  0  3.718307  0  0  0.095007  0  3.977121  0  0  0.102356  0  3.993593  0  0.562153  0  0.055419  0.090472  0  3.965373  0
C  C80  1  0.79076509  0.63037185  0.52937047  1  0  0.663823  0  3.804467  0  0  0.594458  0  4.108981  0  0  0.630439  0  4.103649  0  1.533982  0  0.182472  0.569908  0  4.118927  0
C  C81  1  0.70923709  0.13037676  0.47063173  1  0  0.663759  0  3.804284  0  0  0.594396  0  4.108836  0  0  0.630375  0  4.103508  0  1.533706  0  0.182495  0.569845  0  4.11878  0
C  C82  1  0.20923686  0.36962298  0.47063169  1  0  0.663731  0  3.804163  0  0  0.594368  0  4.108711  0  0  0.630346  0  4.103383  0  1.533707  0  0.182483  0.569815  0  4.118655  0
C  C83  1  0.29076337  0.86962969  0.52936903  1  0  0.663923  0  3.804221  0  0  0.594561  0  4.108735  0  0  0.63054  0  4.103405  0  1.533978  0  0.182528  0.570008  0  4.118684  0
N  N84  1  0.97058084  0.29437110  0.94488438  1  0  -0.316602  0  3.0302  0  0  -0.286981  0  3.299565  0  0  -0.297922  0  3.31293  0  -1.161439  0  -0.307837  -0.279522  0  3.290285  0
N  N85  1  0.52942282  0.79436851  0.05511443  1  0  -0.316542  0  3.030198  0  0  -0.28696  0  3.299537  0  0  -0.297901  0  3.3129  0  -1.161556  0  -0.307856  -0.279501  0  3.29026  0
N  N86  1  0.02942259  0.70563071  0.05511439  1  0  -0.316549  0  3.030202  0  0  -0.286934  0  3.299555  0  0  -0.297875  0  3.312921  0  -1.161574  0  -0.307871  -0.279477  0  3.290279  0
N  N87  1  0.47058061  0.20562942  0.94488503  1  0  -0.316554  0  3.030156  0  0  -0.286953  0  3.29951  0  0  -0.297893  0  3.312874  0  -1.161465  0  -0.307823  -0.279495  0  3.290231  0
N  N88  1  0.71278559  0.47752580  0.08358131  1  0  -0.319  0  3.065286  0  0  -0.287316  0  3.333093  0  0  -0.298698  0  3.347337  0  -1.215484  0  -0.307069  -0.279664  0  3.32333  0
N  N89  1  0.78721659  0.97752631  0.91641883  1  0  -0.31906  0  3.065253  0  0  -0.287381  0  3.333056  0  0  -0.298764  0  3.347306  0  -1.215286  0  -0.307121  -0.27973  0  3.323292  0
N  N90  1  0.28722080  0.52247291  0.91641957  1  0  -0.318965  0  3.065238  0  0  -0.287286  0  3.33302  0  0  -0.29867  0  3.347267  0  -1.215226  0  -0.307067  -0.279634  0  3.323256  0
N  N91  1  0.21278239  0.02247394  0.08358121  1  0  -0.319034  0  3.065235  0  0  -0.287368  0  3.333033  0  0  -0.298748  0  3.347283  0  -1.215275  0  -0.307122  -0.279717  0  3.323269  0
O  O92  1  0.08086247  0.24359772  0.67218713  1  0  -0.717808  0  2.07129  0  0  -0.66815  0  2.332991  0  0  -0.703573  0  2.320907  0  -1.19206  0  -0.388859  -0.64983  0  2.339146  0
O  O93  1  0.41913925  0.74359514  0.32781226  1  0  -0.717858  0  2.071165  0  0  -0.668221  0  2.332858  0  0  -0.703641  0  2.320772  0  -1.192162  0  -0.388848  -0.649903  0  2.339017  0
O  O94  1  0.91914096  0.75640331  0.32781027  1  0  -0.717816  0  2.071103  0  0  -0.668151  0  2.332814  0  0  -0.70357  0  2.320706  0  -1.192044  0  -0.388813  -0.649833  0  2.338973  0
O  O95  1  0.58085974  0.25640202  0.67218711  1  0  -0.717751  0  2.071202  0  0  -0.668107  0  2.332869  0  0  -0.703526  0  2.32078  0  -1.192026  0  -0.388823  -0.649785  0  2.339026  0
O  O96  1  0.56968508  0.53633216  0.34593179  1  0  -0.731147  0  2.060426  0  0  -0.683184  0  2.319543  0  0  -0.718549  0  2.305867  0  -1.193535  0  -0.404848  -0.665282  0  2.326391  0
O  O97  1  0.93030969  0.03633242  0.65406821  1  0  -0.731067  0  2.060547  0  0  -0.683092  0  2.31968  0  0  -0.718465  0  2.305993  0  -1.193622  0  -0.40483  -0.665198  0  2.326547  0
O  O98  1  0.43031094  0.46366732  0.65406889  1  0  -0.731034  0  2.060325  0  0  -0.683075  0  2.319448  0  0  -0.718437  0  2.305765  0  -1.19356  0  -0.404793  -0.665201  0  2.326364  0
O  O99  1  0.06968337  0.96366861  0.34593035  1  0  -0.731143  0  2.060472  0  0  -0.68317  0  2.319599  0  0  -0.718545  0  2.305916  0  -1.193508  0  -0.404859  -0.665265  0  2.326442  0
O  O100  1  0.91346841  0.38664090  0.62719018  1  0  -0.762652  0  2.003416  0  0  -0.712346  0  2.264543  0  0  -0.74853  0  2.248973  0  -1.204367  0  -0.429579  -0.693981  0  2.273344  0
O  O101  1  0.58653229  0.88663755  0.37280857  1  0  -0.76277  0  2.003236  0  0  -0.712458  0  2.264358  0  0  -0.748648  0  2.248781  0  -1.204276  0  -0.429622  -0.694097  0  2.273167  0
O  O102  1  0.08653502  0.61336012  0.37280584  1  0  -0.762735  0  2.003165  0  0  -0.712425  0  2.264299  0  0  -0.748609  0  2.248726  0  -1.204283  0  -0.429622  -0.694063  0  2.273107  0
O  O103  1  0.41346521  0.11335883  0.62719145  1  0  -0.762688  0  2.00338  0  0  -0.712396  0  2.264491  0  0  -0.748583  0  2.248919  0  -1.20437  0  -0.429607  -0.694032  0  2.273296  0
O  O104  1  0.68713384  0.54891416  0.53381908  1  0  -0.767387  0  2.232728  0  0  -0.703235  0  2.49679  0  0  -0.745188  0  2.483558  0  -1.213297  0  -0.42117  -0.68463  0  2.503652  0
O  O105  1  0.81286242  0.04891520  0.46618232  1  0  -0.767337  0  2.232661  0  0  -0.703164  0  2.496702  0  0  -0.745126  0  2.483474  0  -1.213192  0  -0.421136  -0.68456  0  2.50356  0
O  O106  1  0.31286367  0.45108532  0.46618231  1  0  -0.767349  0  2.232608  0  0  -0.703184  0  2.496651  0  0  -0.745137  0  2.483422  0  -1.213194  0  -0.42114  -0.684578  0  2.50351  0
O  O107  1  0.18713212  0.95108660  0.53381765  1  0  -0.767395  0  2.232738  0  0  -0.703229  0  2.496796  0  0  -0.745189  0  2.483566  0  -1.21333  0  -0.421174  -0.684626  0  2.503657  0
O  O108  1  0.69234690  0.38365419  0.40004370  1  0  -0.748872  0  2.018953  0  0  -0.70141  0  2.274201  0  0  -0.736372  0  2.259092  0  -1.197391  0  -0.406232  -0.683324  0  2.281689  0
O  O109  1  0.80764046  0.88365470  0.59995684  1  0  -0.748677  0  2.019026  0  0  -0.701205  0  2.274274  0  0  -0.736179  0  2.259164  0  -1.197364  0  -0.406085  -0.683119  0  2.281758  0
O  O110  1  0.30764319  0.61634451  0.59995755  1  0  -0.748803  0  2.019026  0  0  -0.701353  0  2.274271  0  0  -0.736316  0  2.259162  0  -1.19733  0  -0.406178  -0.683265  0  2.281759  0
O  O111  1  0.19234666  0.11634710  0.40004229  1  0  -0.748836  0  2.019043  0  0  -0.701368  0  2.274301  0  0  -0.736336  0  2.259191  0  -1.197349  0  -0.406183  -0.683283  0  2.281789  0
O  O112  1  0.71684695  0.71203479  0.49258380  1  0  -0.750436  0  2.117209  0  0  -0.697379  0  2.390743  0  0  -0.738744  0  2.377647  0  -1.197515  0  -0.394016  -0.679724  0  2.398526  0
O  O113  1  0.78315968  0.21203738  0.50741849  1  0  -0.750483  0  2.117263  0  0  -0.697399  0  2.390762  0  0  -0.738764  0  2.377675  0  -1.197354  0  -0.394092  -0.679744  0  2.398543  0
O  O114  1  0.28316093  0.28796236  0.50741916  1  0  -0.750441  0  2.117189  0  0  -0.697377  0  2.39072  0  0  -0.738739  0  2.377632  0  -1.19736  0  -0.394086  -0.679719  0  2.398501  0
O  O115  1  0.21684523  0.78796520  0.49258305  1  0  -0.750488  0  2.117044  0  0  -0.69744  0  2.390593  0  0  -0.738807  0  2.377508  0  -1.197527  0  -0.394036  -0.679785  0  2.398377  0
