# generated using pymatgen
data_LaH15C16(NO5)2
_symmetry_space_group_name_H-M   'P 1'
_cell_length_a   7.23588066
_cell_length_b   10.68223435
_cell_length_c   12.06598921
_cell_angle_alpha   91.19025932
_cell_angle_beta   104.12464326
_cell_angle_gamma   95.66187748
_symmetry_Int_Tables_number   1
_chemical_formula_structural   LaH15C16(NO5)2
_chemical_formula_sum   'La2 H30 C32 N4 O20'
_cell_volume   899.06375266
_cell_formula_units_Z   2
loop_
 _symmetry_equiv_pos_site_id
 _symmetry_equiv_pos_as_xyz
  1  'x, y, z'
loop_
 _atom_site_type_symbol
 _atom_site_label
 _atom_site_symmetry_multiplicity
 _atom_site_fract_x
 _atom_site_fract_y
 _atom_site_fract_z
 _atom_site_occupancy
 _atom_site_hle17_bader_spin_density
 _atom_site_hle17_ddec_charge
 _atom_site_hle17_ddec_spin_density
 _atom_site_hle17_ddec_sum_bond_order
 _atom_site_hle17_magmom
 _atom_site_hse06_10hf_bader_spin_density
 _atom_site_hse06_10hf_ddec_charge
 _atom_site_hse06_10hf_ddec_spin_density
 _atom_site_hse06_10hf_ddec_sum_bond_order
 _atom_site_hse06_10hf_magmom
 _atom_site_hse06_bader_spin_density
 _atom_site_hse06_ddec_charge
 _atom_site_hse06_ddec_spin_density
 _atom_site_hse06_ddec_sum_bond_order
 _atom_site_hse06_magmom
 _atom_site_pbe_bader_spin_density
 _atom_site_pbe_cm5_charge
 _atom_site_pbe_ddec_charge
 _atom_site_pbe_ddec_spin_density
 _atom_site_pbe_ddec_sum_bond_order
 _atom_site_pbe_magmom
La  La0  1  0.43650225  0.32594128  0.17153680  1  0  2.087055  0  1.794505  0  0  1.962135  0  2.324111  0  0  2.063735  0  2.22394  0  0  1.408729  1.886129  0  2.39366  0
La  La1  1  0.56350164  0.67405826  0.82846206  1  0  2.087135  0  1.794433  0  0  1.962229  0  2.324028  0  0  2.063837  0  2.22384  0  0  1.408749  1.886227  0  2.393608  0
H  H2  1  0.73762036  0.44025815  0.49509847  1  0  0.104085  0  0.966533  0  0  0.109477  0  1.039716  0  0  0.114062  0  1.035928  0  0  0.101511  0.106155  0  1.042547  0
H  H3  1  0.26237715  0.55973751  0.50489801  1  0  0.104059  0  0.966567  0  0  0.10945  0  1.039738  0  0  0.114036  0  1.035951  0  0  0.101511  0.10613  0  1.042574  0
H  H4  1  0.86575751  0.27294069  0.82378329  1  0  0.116288  0  0.944879  0  0  0.129238  0  1.00096  0  0  0.132922  0  0.998942  0  0  0.112222  0.126581  0  1.002511  0
H  H5  1  0.13424618  0.72705882  0.17621389  1  0  0.116283  0  0.944853  0  0  0.12924  0  1.000937  0  0  0.132924  0  0.998919  0  0  0.112209  0.126582  0  1.002482  0
H  H6  1  0.94415157  0.07510626  0.52634472  1  0  0.094616  0  0.978941  0  0  0.103359  0  1.047028  0  0  0.107288  0  1.044381  0  0  0.096249  0.100493  0  1.049085  0
H  H7  1  0.05585790  0.92489242  0.47365473  1  0  0.09463  0  0.979005  0  0  0.103391  0  1.047065  0  0  0.107307  0  1.044435  0  0  0.096246  0.100524  0  1.049126  0
H  H8  1  0.54279276  0.87209676  0.08860219  1  0  0.131804  0  0.935578  0  0  0.137048  0  1.002781  0  0  0.141693  0  0.998038  0  0  0.122723  0.133608  0  1.00636  0
H  H9  1  0.45719149  0.12790255  0.91139707  1  0  0.131736  0  0.935667  0  0  0.136972  0  1.002891  0  0  0.141619  0  0.998146  0  0  0.12271  0.133531  0  1.006471  0
H  H10  1  0.70471167  0.60807582  0.35167626  1  0  0.124799  0  0.931487  0  0  0.132873  0  0.995384  0  0  0.13641  0  0.993097  0  0  0.120069  0.130304  0  0.997055  0
H  H11  1  0.29529024  0.39192660  0.64832657  1  0  0.124875  0  0.931548  0  0  0.132931  0  0.995465  0  0  0.136459  0  0.993197  0  0  0.120097  0.130373  0  0.997104  0
H  H12  1  0.56219060  0.97466776  0.43787725  1  0  0.105146  0  0.969014  0  0  0.113005  0  1.038793  0  0  0.116688  0  1.035539  0  0  0.106103  0.110265  0  1.041313  0
H  H13  1  0.43780956  0.02533366  0.56212373  1  0  0.105229  0  0.968931  0  0  0.113089  0  1.038711  0  0  0.116769  0  1.035465  0  0  0.106145  0.110353  0  1.041218  0
H  H14  1  0.00752686  0.98308447  0.71680871  1  0  0.333086  0  0.924377  0  0  0.315241  0  0.988521  0  0  0.322076  0  0.983308  0  0  0.299365  0.310463  0  0.992064  0
H  H15  1  0.99248150  0.01691517  0.28319229  1  0  0.333086  0  0.924452  0  0  0.315235  0  0.988605  0  0  0.32207  0  0.983393  0  0  0.299364  0.310459  0  0.992147  0
H  H16  1  0.97596397  0.06559817  0.83467541  1  0  0.332059  0  0.866132  0  0  0.329039  0  0.904349  0  0  0.334421  0  0.901314  0  0  0.324722  0.325158  0  0.906668  0
H  H17  1  0.02404024  0.93440235  0.16532515  1  0  0.332043  0  0.866123  0  0  0.329021  0  0.904346  0  0  0.334404  0  0.901311  0  0  0.324721  0.32514  0  0.90666  0
H  H18  1  0.65191676  0.66793724  0.54532513  1  0  0.353561  0  0.856539  0  0  0.33413  0  0.91705  0  0  0.342787  0  0.909597  0  0  0.320583  0.327938  0  0.922462  0
H  H19  1  0.34808649  0.33206610  0.45467619  1  0  0.353715  0  0.85638  0  0  0.334193  0  0.917007  0  0  0.342851  0  0.909553  0  0  0.320622  0.328006  0  0.922435  0
H  H20  1  0.60644660  0.81375356  0.57448351  1  0  0.355211  0  0.872473  0  0  0.333487  0  0.937721  0  0  0.342637  0  0.92987  0  0  0.318347  0.327002  0  0.943273  0
H  H21  1  0.39355958  0.18624892  0.42551978  1  0  0.355172  0  0.872439  0  0  0.333427  0  0.937723  0  0  0.342576  0  0.929871  0  0  0.318323  0.326954  0  0.943267  0
H  H22  1  0.17176712  0.21167213  0.43107412  1  0  0.335055  0  0.90594  0  0  0.310195  0  0.973658  0  0  0.319492  0  0.966654  0  0  0.303646  0.303704  0  0.978499  0
H  H23  1  0.82823581  0.78833023  0.56892549  1  0  0.335098  0  0.905899  0  0  0.310235  0  0.973614  0  0  0.319533  0  0.966609  0  0  0.303669  0.303724  0  0.978463  0
H  H24  1  0.03885520  0.22151952  0.21734550  1  0  0.42338  0  0.876591  0  0  0.391448  0  0.942052  0  0  0.403775  0  0.924068  0  0  0.294654  0.382596  0  0.954923  0
H  H25  1  0.96114472  0.77848002  0.78265543  1  0  0.423403  0  0.876555  0  0  0.391481  0  0.941996  0  0  0.403806  0  0.924015  0  0  0.294671  0.382618  0  0.954882  0
H  H26  1  0.80560155  0.39544362  0.95351499  1  0  0.426503  0  0.872102  0  0  0.396831  0  0.934321  0  0  0.407763  0  0.918102  0  0  0.295444  0.388989  0  0.945949  0
H  H27  1  0.19439233  0.60455394  0.04648445  1  0  0.426491  0  0.872133  0  0  0.396801  0  0.93438  0  0  0.407736  0  0.918158  0  0  0.295433  0.388958  0  0.946004  0
H  H28  1  0.78187999  0.42870372  0.07528812  1  0  0.410463  0  0.894237  0  0  0.378246  0  0.96089  0  0  0.388973  0  0.945223  0  0  0.296588  0.370668  0  0.97194  0
H  H29  1  0.21812246  0.57129488  0.92471141  1  0  0.410438  0  0.894268  0  0  0.378216  0  0.960925  0  0  0.388942  0  0.945258  0  0  0.296575  0.370637  0  0.971976  0
H  H30  1  0.99130383  0.28960032  0.09977718  1  0  0.443718  0  0.853518  0  0  0.415281  0  0.911713  0  0  0.426914  0  0.894893  0  0  0.293091  0.406949  0  0.923732  0
H  H31  1  0.00869695  0.71039637  0.90022216  1  0  0.443699  0  0.853548  0  0  0.415261  0  0.911745  0  0  0.426894  0  0.894924  0  0  0.29309  0.406926  0  0.923767  0
C  C32  1  0.84524369  0.25821623  0.49933478  1  0  -0.071907  0  3.821258  0  0  -0.051556  0  4.06563  0  0  -0.056448  0  4.087525  0  0  -0.0298  -0.048321  0  4.050727  0
C  C33  1  0.15475976  0.74178139  0.50066236  1  0  -0.071832  0  3.821261  0  0  -0.051494  0  4.065623  0  0  -0.056388  0  4.087517  0  0  -0.029785  -0.04826  0  4.050731  0
C  C34  1  0.78804436  0.36336101  0.54796861  1  0  -0.122485  0  3.731503  0  0  -0.161305  0  3.989472  0  0  -0.162531  0  4.008665  0  0  -0.103536  -0.160248  0  3.976554  0
C  C35  1  0.21195512  0.63663660  0.45203060  1  0  -0.122441  0  3.731402  0  0  -0.161241  0  3.989379  0  0  -0.162468  0  4.008574  0  0  -0.103527  -0.160183  0  3.976471  0
C  C36  1  0.79735069  0.36731267  0.66542674  1  0  -0.047847  0  3.808239  0  0  -0.02298  0  4.042749  0  0  -0.027753  0  4.064141  0  0  -0.022234  -0.019992  0  4.028404  0
C  C37  1  0.20264716  0.63268489  0.33457063  1  0  -0.047907  0  3.808196  0  0  -0.023064  0  4.042733  0  0  -0.027839  0  4.064126  0  0  -0.022256  -0.020082  0  4.028395  0
C  C38  1  0.86003300  0.26791806  0.73281205  1  0  -0.175455  0  3.658981  0  0  -0.206865  0  3.910379  0  0  -0.210635  0  3.929413  0  0  -0.089985  -0.204093  0  3.897371  0
C  C39  1  0.13996790  0.73207957  0.26718731  1  0  -0.175414  0  3.659037  0  0  -0.206866  0  3.910443  0  0  -0.210637  0  3.929485  0  0  -0.089976  -0.204085  0  3.897422  0
C  C40  1  0.90982069  0.15885581  0.68428883  1  0  0.326076  0  3.891845  0  0  0.319392  0  4.148139  0  0  0.329441  0  4.169171  0  0  0.101863  0.312491  0  4.133459  0
C  C41  1  0.09018330  0.84114375  0.31571087  1  0  0.326103  0  3.891922  0  0  0.319498  0  4.148117  0  0  0.329548  0  4.169142  0  0  0.101937  0.312595  0  4.133439  0
C  C42  1  0.90237373  0.15669978  0.56619456  1  0  -0.204075  0  3.698353  0  0  -0.229172  0  3.949841  0  0  -0.233946  0  3.969588  0  0  -0.103674  -0.225679  0  3.936341  0
C  C43  1  0.09763314  0.84330074  0.43380463  1  0  -0.204217  0  3.698485  0  0  -0.229352  0  3.94996  0  0  -0.234118  0  3.969713  0  0  -0.103723  -0.225861  0  3.936471  0
C  C44  1  0.85059938  0.25582471  0.37570849  1  0  0.686932  0  3.861269  0  0  0.635027  0  4.157753  0  0  0.670328  0  4.148411  0  0  0.226904  0.610847  0  4.163454  0
C  C45  1  0.14940055  0.74417943  0.62428750  1  0  0.687041  0  3.861318  0  0  0.635188  0  4.157706  0  0  0.670492  0  4.148359  0  0  0.227053  0.610993  0  4.16342  0
C  C46  1  0.73137190  0.47545038  0.71973263  1  0  0.654919  0  3.893269  0  0  0.608162  0  4.183289  0  0  0.642589  0  4.177381  0  0  0.206643  0.584693  0  4.186338  0
C  C47  1  0.26862749  0.52454814  0.28026492  1  0  0.654959  0  3.893299  0  0  0.608244  0  4.183255  0  0  0.64267  0  4.177347  0  0  0.206704  0.58477  0  4.186301  0
C  C48  1  0.54192674  0.93488542  0.25956080  1  0  -0.041984  0  3.748704  0  0  -0.017398  0  3.985829  0  0  -0.025166  0  4.006433  0  0  -0.009671  -0.01284  0  3.972408  0
C  C49  1  0.45806581  0.06511213  0.74043933  1  0  -0.041959  0  3.748686  0  0  -0.017393  0  3.985852  0  0  -0.025161  0  4.006454  0  0  -0.009687  -0.012836  0  3.972432  0
C  C50  1  0.56693054  0.84760690  0.17789252  1  0  -0.044481  0  3.628189  0  0  -0.087151  0  3.881149  0  0  -0.08224  0  3.895167  0  0  -0.056324  -0.090091  0  3.871791  0
C  C51  1  0.43305862  0.15239443  0.82211061  1  0  -0.044331  0  3.628102  0  0  -0.087081  0  3.881046  0  0  -0.082169  0  3.89506  0  0  -0.056321  -0.090011  0  3.871687  0
C  C52  1  0.62317527  0.72950914  0.21154202  1  0  -0.0584  0  3.741396  0  0  -0.035358  0  3.981603  0  0  -0.04422  0  4.003286  0  0  -0.005774  -0.029831  0  3.967284  0
C  C53  1  0.37681657  0.27049311  0.78845891  1  0  -0.058656  0  3.741774  0  0  -0.03541  0  3.981683  0  0  -0.044266  0  4.003368  0  0  -0.005824  -0.029892  0  3.967382  0
C  C54  1  0.65752946  0.69951576  0.32664686  1  0  -0.135137  0  3.682811  0  0  -0.173013  0  3.93924  0  0  -0.172648  0  3.958542  0  0  -0.069484  -0.172878  0  3.926129  0
C  C55  1  0.34246601  0.30049035  0.67335698  1  0  -0.135234  0  3.682853  0  0  -0.17315  0  3.939211  0  0  -0.172787  0  3.958509  0  0  -0.069533  -0.173002  0  3.926103  0
C  C56  1  0.63465036  0.78807845  0.40692791  1  0  0.243339  0  3.741675  0  0  0.244682  0  3.993878  0  0  0.246248  0  4.017674  0  0  0.084126  0.243313  0  3.977776  0
C  C57  1  0.36534659  0.21192010  0.59307269  1  0  0.243488  0  3.741495  0  0  0.244823  0  3.993688  0  0  0.246393  0  4.017478  0  0  0.084187  0.243481  0  3.977574  0
C  C58  1  0.57719794  0.90487302  0.37457632  1  0  -0.139159  0  3.685654  0  0  -0.177197  0  3.941423  0  0  -0.176325  0  3.959716  0  0  -0.078719  -0.177398  0  3.929099  0
C  C59  1  0.42279452  0.09513026  0.62542883  1  0  -0.139331  0  3.685906  0  0  -0.177356  0  3.941674  0  0  -0.17649  0  3.959972  0  0  -0.078743  -0.17755  0  3.929333  0
C  C60  1  0.48422474  0.06215212  0.22683535  1  0  0.648151  0  3.913931  0  0  0.600094  0  4.210223  0  0  0.634755  0  4.205477  0  0  0.202912  0.57649  0  4.212531  0
C  C61  1  0.51576575  0.93784921  0.77316708  1  0  0.648362  0  3.913946  0  0  0.60033  0  4.210191  0  0  0.634992  0  4.205438  0  0  0.203024  0.576711  0  4.212524  0
C  C62  1  0.65247830  0.63466006  0.12589149  1  0  0.711757  0  3.85939  0  0  0.661793  0  4.154699  0  0  0.699322  0  4.145049  0  0  0.244742  0.63582  0  4.160781  0
C  C63  1  0.34751053  0.36533937  0.87411075  1  0  0.711682  0  3.859808  0  0  0.661722  0  4.155008  0  0  0.699234  0  4.145385  0  0  0.244698  0.635748  0  4.161107  0
N  N64  1  0.96191157  0.05961611  0.74925406  1  0  -0.656537  0  3.136549  0  0  -0.619955  0  3.361921  0  0  -0.640585  0  3.364058  0  0  -0.585305  -0.605369  0  3.359956  0
N  N65  1  0.03809564  0.94038632  0.25074601  1  0  -0.656542  0  3.13662  0  0  -0.619982  0  3.361959  0  0  -0.64061  0  3.364097  0  0  -0.585344  -0.605391  0  3.359995  0
N  N66  1  0.67962018  0.76205652  0.52744294  1  0  -0.554802  0  3.211958  0  0  -0.503004  0  3.40964  0  0  -0.519248  0  3.406265  0  0  -0.592569  -0.491906  0  3.412475  0
N  N67  1  0.32038055  0.23794776  0.47255978  1  0  -0.554854  0  3.211807  0  0  -0.50299  0  3.409626  0  0  -0.519232  0  3.406248  0  0  -0.592581  -0.491956  0  3.412505  0
O  O68  1  0.74911344  0.32514689  0.30777660  1  0  -0.683472  0  2.027245  0  0  -0.635483  0  2.285967  0  0  -0.668233  0  2.276011  0  0  -0.388034  -0.611803  0  2.291858  0
O  O69  1  0.25089344  0.67485456  0.69222177  1  0  -0.683542  0  2.027151  0  0  -0.635581  0  2.285861  0  0  -0.668327  0  2.275892  0  0  -0.388115  -0.611908  0  2.291775  0
O  O70  1  0.96474461  0.18473846  0.34495510  1  0  -0.65241  0  2.015274  0  0  -0.583287  0  2.22986  0  0  -0.608789  0  2.219251  0  0  -0.307479  -0.565575  0  2.236841  0
O  O71  1  0.03525621  0.81526008  0.65504259  1  0  -0.652452  0  2.015476  0  0  -0.583347  0  2.230023  0  0  -0.608849  0  2.219411  0  0  -0.307506  -0.565579  0  2.236971  0
O  O72  1  0.64594223  0.55906654  0.65721768  1  0  -0.699866  0  1.96792  0  0  -0.650903  0  2.217233  0  0  -0.681533  0  2.208184  0  0  -0.369029  -0.628922  0  2.22252  0
O  O73  1  0.35406028  0.44093483  0.34277938  1  0  -0.69988  0  1.967989  0  0  -0.6509  0  2.217254  0  0  -0.681528  0  2.208203  0  0  -0.369039  -0.628914  0  2.222534  0
O  O74  1  0.75325793  0.48231787  0.82789537  1  0  -0.682023  0  2.04746  0  0  -0.628513  0  2.286364  0  0  -0.659998  0  2.278831  0  0  -0.352666  -0.606005  0  2.290672  0
O  O75  1  0.24673994  0.51768061  0.17210118  1  0  -0.682085  0  2.047495  0  0  -0.628566  0  2.286376  0  0  -0.660051  0  2.278844  0  0  -0.352726  -0.606051  0  2.290668  0
O  O76  1  0.48331567  0.09907723  0.12735618  1  0  -0.639382  0  1.907076  0  0  -0.59883  0  2.139844  0  0  -0.628666  0  2.129997  0  0  -0.359672  -0.577479  0  2.145779  0
O  O77  1  0.51667061  0.90092106  0.87263747  1  0  -0.639508  0  1.907329  0  0  -0.598961  0  2.140089  0  0  -0.628795  0  2.130234  0  0  -0.359785  -0.5776  0  2.14603  0
O  O78  1  0.44231143  0.13401558  0.30220718  1  0  -0.707561  0  2.025461  0  0  -0.656185  0  2.273388  0  0  -0.68862  0  2.267972  0  0  -0.372446  -0.633048  0  2.276071  0
O  O79  1  0.55769813  0.86599255  0.69779485  1  0  -0.707639  0  2.025223  0  0  -0.656302  0  2.273196  0  0  -0.688739  0  2.26778  0  0  -0.372432  -0.63317  0  2.275918  0
O  O80  1  0.68008635  0.67372897  0.03194666  1  0  -0.691783  0  1.998751  0  0  -0.643162  0  2.257612  0  0  -0.677294  0  2.245224  0  0  -0.400152  -0.618463  0  2.265315  0
O  O81  1  0.31990231  0.32627227  0.96805225  1  0  -0.691585  0  1.999052  0  0  -0.642989  0  2.257897  0  0  -0.677113  0  2.245518  0  0  -0.400011  -0.618286  0  2.265599  0
O  O82  1  0.65224348  0.51966355  0.15221704  1  0  -0.703829  0  2.053694  0  0  -0.645913  0  2.30254  0  0  -0.679584  0  2.292301  0  0  -0.363789  -0.621739  0  2.308828  0
O  O83  1  0.34774429  0.48033868  0.84778511  1  0  -0.703867  0  2.053678  0  0  -0.645944  0  2.302469  0  0  -0.679611  0  2.292247  0  0  -0.363832  -0.621761  0  2.308737  0
O  O84  1  0.81023260  0.35915784  0.02874734  1  0  -0.835087  0  1.802804  0  0  -0.782537  0  1.955214  0  0  -0.802364  0  1.923177  0  0  -0.571769  -0.768402  0  1.977728  0
O  O85  1  0.18976400  0.64083881  0.97125238  1  0  -0.835044  0  1.802846  0  0  -0.78248  0  1.955295  0  0  -0.80231  0  1.923251  0  0  -0.571752  -0.768342  0  1.977818  0
O  O86  1  0.09242507  0.24362076  0.15107349  1  0  -0.900368  0  1.801203  0  0  -0.850473  0  1.984312  0  0  -0.877548  0  1.949076  0  0  -0.649176  -0.830647  0  2.008805  0
O  O87  1  0.90757428  0.75637591  0.84892569  1  0  -0.900362  0  1.801199  0  0  -0.850478  0  1.984328  0  0  -0.877555  0  1.949094  0  0  -0.649186  -0.830646  0  2.008837  0
