# generated using pymatgen
data_ZnH13C13NO5
_symmetry_space_group_name_H-M   'P 1'
_cell_length_a   9.69493719
_cell_length_b   11.27088101
_cell_length_c   11.05445190
_cell_angle_alpha   89.65628792
_cell_angle_beta   113.71295605
_cell_angle_gamma   100.02818393
_symmetry_Int_Tables_number   1
_chemical_formula_structural   ZnH13C13NO5
_chemical_formula_sum   'Zn2 H26 C26 N2 O10'
_cell_volume   1086.29598693
_cell_formula_units_Z   2
loop_
 _symmetry_equiv_pos_site_id
 _symmetry_equiv_pos_as_xyz
  1  'x, y, z'
loop_
 _atom_site_type_symbol
 _atom_site_label
 _atom_site_symmetry_multiplicity
 _atom_site_fract_x
 _atom_site_fract_y
 _atom_site_fract_z
 _atom_site_occupancy
 _atom_site_pbe_bader_charge
 _atom_site_pbe_bader_spin_density
 _atom_site_pbe_cm5_charge
 _atom_site_pbe_ddec_charge
 _atom_site_pbe_ddec_spin_density
 _atom_site_pbe_ddec_sum_bond_order
 _atom_site_pbe_magmom
Zn  Zn0  1  0.64913448  0.49584685  0.54999366  1  1.288657  0  0.671725  0.85501  0  2.429004  0
Zn  Zn1  1  0.33054867  0.48658196  0.43238179  1  1.288258  0  0.667154  0.854361  0  2.386327  0
H  H2  1  0.34019376  0.33592728  0.81876570  1  0.102956  0  0.107312  0.124532  0  0.997312  0
H  H3  1  0.29821352  0.07908657  0.40586076  1  0.078506  0  0.105137  0.13502  0  1.004006  0
H  H4  1  0.83704941  0.53386158  0.39391551  1  0.165856  0  0.135581  0.103968  0  0.995347  0
H  H5  1  0.14890411  0.46131599  0.59248020  1  0.194519  0  0.136313  0.108839  0  0.997492  0
H  H6  1  0.94821010  0.45793813  0.66496410  1  0.422666  0  0.325832  0.29552  0  0.89594  0
H  H7  1  0.03097325  0.52504400  0.31704862  1  0.425284  0  0.324848  0.295277  0  0.895915  0
H  H8  1  0.69177702  0.70475476  0.84760355  1  0.118208  0  0.10115  0.114348  0  1.020543  0
H  H9  1  0.82909109  0.87493838  0.01714837  1  0.048579  0  0.096076  0.090829  0  1.016926  0
H  H10  1  0.80770307  0.86969847  0.23512440  1  0.087264  0  0.10018  0.097941  0  0.993854  0
H  H11  1  0.64776502  0.69621545  0.28182598  1  0.06865  0  0.099066  0.111439  0  1.024617  0
H  H12  1  0.35474766  0.88298694  0.47565098  1  0.130243  0  0.110304  0.124085  0  0.982009  0
H  H13  1  0.70517304  0.89795611  0.59678262  1  0.089643  0  0.108632  0.124466  0  0.997808  0
H  H14  1  0.28918463  0.18776596  0.16966071  1  0.065661  0  0.101767  0.076641  0  0.973417  0
H  H15  1  0.47641627  0.27098639  0.20702686  1  0.074886  0  0.098295  0.070792  0  0.99918  0
H  H16  1  0.29624403  0.07842842  0.97622195  1  0.00865  0  0.088484  0.080864  0  0.976441  0
H  H17  1  0.48003091  0.16430375  0.00880515  1  0.011488  0  0.087344  0.079611  0  0.995438  0
H  H18  1  0.58985503  0.07482771  0.22981393  1  0.041658  0  0.084068  0.110102  0  1.003266  0
H  H19  1  0.49971816  0.95864374  0.09997603  1  0.043456  0  0.084909  0.114093  0  1.016756  0
H  H20  1  0.40609524  0.99046784  0.20130571  1  0.020346  0  0.083057  0.109733  0  1.010714  0
H  H21  1  0.81211272  0.03581325  0.79435375  1  0.03088  0  0.098931  0.060935  0  0.973688  0
H  H22  1  0.61993976  0.00572766  0.78141014  1  0.038704  0  0.099093  0.062122  0  0.992258  0
H  H23  1  0.82613241  0.25688065  0.84096210  1  0.032637  0  0.094713  0.09404  0  0.963558  0
H  H24  1  0.63907265  0.22542515  0.83513885  1  0.033929  0  0.091956  0.090726  0  0.977448  0
H  H25  1  0.72826384  0.09299644  0.02915740  1  0.018194  0  0.084084  0.108356  0  1.025282  0
H  H26  1  0.83656105  0.24237926  0.07117761  1  0.022284  0  0.089378  0.119873  0  0.99598  0
H  H27  1  0.91649278  0.12538613  0.03345199  1  0.009741  0  0.08496  0.10905  0  1.007186  0
C  C28  1  0.43627645  0.25875271  0.47924126  1  1.58542  0  0.203483  0.651301  0  4.179344  0
C  C29  1  0.58867329  0.60103683  0.96557843  1  0.027209  0  -0.008147  0.048663  0  3.961258  0
C  C30  1  0.50216926  0.50334404  0.86801176  1  -0.027627  0  -0.014777  -0.057743  0  3.967534  0
C  C31  1  0.40671209  0.40998545  0.89359722  1  -0.07035  0  -0.098091  -0.218027  0  4.012043  0
C  C32  1  0.39586435  0.40585693  0.01704641  1  0.505389  0  0.078174  0.230134  0  4.090589  0
C  C33  1  0.47830002  0.49888057  0.11455077  1  0.00561  0  -0.020988  -0.180211  0  3.931055  0
C  C34  1  0.41043311  0.12587869  0.47568778  1  -0.074714  0  -0.111027  -0.365774  0  3.863074  0
C  C35  1  0.51311252  0.05688392  0.54834347  1  0.552997  0  0.09425  0.291833  0  4.077246  0
C  C36  1  0.58371305  0.85708074  0.55285488  1  -0.025341  0  -0.092246  -0.208128  0  3.907118  0
C  C37  1  0.47550148  0.92575328  0.52481270  1  -0.098962  0  -0.079484  -0.137549  0  3.99485  0
C  C38  1  0.06688989  0.48675635  0.49829882  1  0.643645  0  0.115889  0.166501  0  3.86415  0
C  C39  1  0.50949573  0.49711455  0.73538414  1  1.551657  0  0.216367  0.599833  0  4.169292  0
C  C40  1  0.91661661  0.50537981  0.48728727  1  0.686357  0  0.116903  0.171212  0  3.864627  0
C  C41  1  0.54806246  0.72508427  0.52126736  1  1.536253  0  0.20455  0.629805  0  4.191244  0
C  C42  1  0.46919114  0.49469097  0.24701869  1  1.57501  0  0.215868  0.618279  0  4.187841  0
C  C43  1  0.68175585  0.70288876  0.94220532  1  -0.007512  0  -0.094065  -0.127876  0  3.980231  0
C  C44  1  0.75890143  0.79734412  0.03734019  1  -0.096478  0  -0.10367  -0.102711  0  4.070806  0
C  C45  1  0.74698896  0.79425227  0.16068929  1  -0.073932  0  -0.099271  -0.091931  0  4.072027  0
C  C46  1  0.65741373  0.69708187  0.18681876  1  -0.089497  0  -0.101283  -0.149093  0  3.988243  0
C  C47  1  0.57538375  0.59823934  0.09061770  1  0.022204  0  -0.006733  0.067179  0  3.978046  0
C  C48  1  0.37058562  0.22358527  0.12625532  1  0.378599  0  -0.069984  0.032529  0  3.866242  0
C  C49  1  0.40428698  0.12355164  0.05625960  1  -0.001955  0  -0.172004  -0.138361  0  3.995805  0
C  C50  1  0.47902745  0.03190785  0.15183861  1  -0.094216  0  -0.245829  -0.352009  0  3.981614  0
C  C51  1  0.70850701  0.07515201  0.77043528  1  0.413751  0  -0.063574  0.034499  0  3.880527  0
C  C52  1  0.74398682  0.18780590  0.86072904  1  0.006035  0  -0.168138  -0.131155  0  3.977007  0
C  C53  1  0.80961257  0.16044422  0.00653365  1  -0.048523  0  -0.242772  -0.353553  0  3.979216  0
N  N54  1  0.10988638  0.49942651  0.40268728  1  -1.158838  0  -0.42192  -0.365721  0  3.211095  0
N  N55  1  0.87074886  0.48668062  0.58067421  1  -1.151742  0  -0.423456  -0.36572  0  3.209918  0
O  O56  1  0.57118376  0.31812335  0.54519774  1  -1.156469  0  -0.320804  -0.552678  0  2.360278  0
O  O57  1  0.31807819  0.30495705  0.41302248  1  -1.151877  0  -0.332959  -0.566062  0  2.258399  0
O  O58  1  0.64044676  0.52236431  0.73072863  1  -1.153673  0  -0.315298  -0.537736  0  2.288943  0
O  O59  1  0.38193816  0.46465684  0.63620952  1  -1.182633  0  -0.315225  -0.569285  0  2.356989  0
O  O60  1  0.66214426  0.67691201  0.53101047  1  -1.15633  0  -0.3309  -0.563658  0  2.28189  0
O  O61  1  0.41075683  0.66914543  0.48845017  1  -1.169315  0  -0.323912  -0.561734  0  2.296575  0
O  O62  1  0.58883848  0.47465845  0.34298802  1  -1.182333  0  -0.313357  -0.581556  0  2.357829  0
O  O63  1  0.34644987  0.51141073  0.25400924  1  -1.141719  0  -0.31286  -0.523961  0  2.24782  0
O  O64  1  0.29839168  0.30949242  0.03444101  1  -1.072223  0  -0.212543  -0.247986  0  2.481035  0
O  O65  1  0.65823001  0.10731685  0.63392212  1  -1.065681  0  -0.190513  -0.214125  0  2.516091  0
