# generated using pymatgen
data_CaH10(C5N4)2
_symmetry_space_group_name_H-M   'P 1'
_cell_length_a   7.05951043
_cell_length_b   7.05950669
_cell_length_c   8.82632014
_cell_angle_alpha   113.58823849
_cell_angle_beta   113.58886692
_cell_angle_gamma   90.01268031
_symmetry_Int_Tables_number   1
_chemical_formula_structural   CaH10(C5N4)2
_chemical_formula_sum   'Ca1 H10 C10 N8'
_cell_volume   362.63990386
_cell_formula_units_Z   1
loop_
 _symmetry_equiv_pos_site_id
 _symmetry_equiv_pos_as_xyz
  1  'x, y, z'
loop_
 _atom_site_type_symbol
 _atom_site_label
 _atom_site_symmetry_multiplicity
 _atom_site_fract_x
 _atom_site_fract_y
 _atom_site_fract_z
 _atom_site_occupancy
 _atom_site_pbe_bader_spin_density
 _atom_site_pbe_cm5_charge
 _atom_site_pbe_ddec_charge
 _atom_site_pbe_ddec_spin_density
 _atom_site_pbe_ddec_sum_bond_order
 _atom_site_pbe_magmom
Ca  Ca0  1  0.00003488  0.00000473  0.00000130  1  0  1.004168  1.209584  0  1.848822  0
H  H1  1  0.38821862  0.38819829  0.36178063  1  0  0.116109  0.072055  0  1.026321  0
H  H2  1  0.61168470  0.02662006  0.63828452  1  0  0.116206  0.07194  0  1.02692  0
H  H3  1  0.97314533  0.97312334  0.36162052  1  0  0.116491  0.072119  0  1.027701  0
H  H4  1  0.02660647  0.61169908  0.63827898  1  0  0.116252  0.071981  0  1.027058  0
H  H5  1  0.57024646  0.57027690  0.70785121  1  0  0.111205  0.107095  0  1.040273  0
H  H6  1  0.42990277  0.86263087  0.29222894  1  0  0.111092  0.107139  0  1.040354  0
H  H7  1  0.13736369  0.13738471  0.70771105  1  0  0.110893  0.106779  0  1.040467  0
H  H8  1  0.86261194  0.42992102  0.29221463  1  0  0.11108  0.107182  0  1.04023  0
H  H9  1  0.44032579  0.44040094  0.88091505  1  0  0.108621  0.098791  0  1.030712  0
H  H10  1  0.55979687  0.55982849  0.11907990  1  0  0.108708  0.099053  0  1.03072  0
C  C11  1  0.33774885  0.33773611  0.44393690  1  0  0.052487  0.09161  0  3.96854  0
C  C12  1  0.66219085  0.89401929  0.55611449  1  0  0.052751  0.092373  0  3.967631  0
C  C13  1  0.10582287  0.10581359  0.44382976  1  0  0.05304  0.092939  0  3.970225  0
C  C14  1  0.89401027  0.66220400  0.55611222  1  0  0.052694  0.092352  0  3.967881  0
C  C15  1  0.43844804  0.43846353  0.63547377  1  0  -0.079694  -0.126061  0  3.956312  0
C  C16  1  0.56162630  0.80322458  0.36458878  1  0  -0.079818  -0.126728  0  3.957475  0
C  C17  1  0.19675992  0.19677772  0.63535495  1  0  -0.080404  -0.127723  0  3.958031  0
C  C18  1  0.80320975  0.56165487  0.36459188  1  0  -0.07977  -0.126775  0  3.95712  0
C  C19  1  0.36571915  0.36575405  0.73163504  1  0  -0.062034  -0.020899  0  3.953826  0
C  C20  1  0.63436798  0.63439358  0.26836103  1  0  -0.062381  -0.021678  0  3.955513  0
N  N21  1  0.33318640  0.00014933  0.00022300  1  0  -0.342162  -0.569794  0  2.822472  0
N  N22  1  0.00019177  0.33318100  0.00027197  1  0  -0.342195  -0.569664  0  2.823153  0
N  N23  1  0.66689150  0.99991656  0.99978825  1  0  -0.342257  -0.570094  0  2.824034  0
N  N24  1  0.99997853  0.66683456  0.99973117  1  0  -0.342108  -0.570097  0  2.823792  0
N  N25  1  0.50005855  0.00003279  0.00000559  1  0  0.10092  0.484627  0  4.567411  0
N  N26  1  0.00008501  0.50000779  0.00000174  1  0  0.100796  0.484532  0  4.567984  0
N  N27  1  0.17433591  0.17430912  0.34899058  1  0  -0.365361  -0.316367  0  3.46233  0
N  N28  1  0.82553107  0.82553967  0.65102130  1  0  -0.365329  -0.316271  0  3.459764  0
