# generated using pymatgen
data_ZnH10C12N4O
_symmetry_space_group_name_H-M   'P 1'
_cell_length_a   13.03816123
_cell_length_b   13.02899107
_cell_length_c   14.84894200
_cell_angle_alpha   117.01880335
_cell_angle_beta   105.41422817
_cell_angle_gamma   100.39325431
_symmetry_Int_Tables_number   1
_chemical_formula_structural   ZnH10C12N4O
_chemical_formula_sum   'Zn4 H40 C48 N16 O4'
_cell_volume   2028.75962263
_cell_formula_units_Z   4
loop_
 _symmetry_equiv_pos_site_id
 _symmetry_equiv_pos_as_xyz
  1  'x, y, z'
loop_
 _atom_site_type_symbol
 _atom_site_label
 _atom_site_symmetry_multiplicity
 _atom_site_fract_x
 _atom_site_fract_y
 _atom_site_fract_z
 _atom_site_occupancy
 _atom_site_pbe_bader_charge
 _atom_site_pbe_bader_spin_density
 _atom_site_pbe_cm5_charge
 _atom_site_pbe_ddec_charge
 _atom_site_pbe_ddec_spin_density
 _atom_site_pbe_ddec_sum_bond_order
 _atom_site_pbe_magmom
C  C0  1  0.55265414  0.31264080  0.11306363  1  0.352347  0  0.005407  -0.059648  0  3.960843  0
C  C1  1  0.61842257  0.00158244  0.14586201  1  0.020971  0  -0.041637  0.01217  0  4.14938  0
C  C2  1  0.85569270  0.47243355  0.85442238  1  0.04176  0  -0.041888  0.013207  0  4.146619  0
C  C3  1  0.33924088  0.53443275  0.30741171  1  0.056731  0  -0.035382  -0.032188  0  4.10022  0
C  C4  1  0.22705000  0.03121780  0.69246714  1  0.052525  0  -0.035162  -0.030971  0  4.099378  0
C  C5  1  0.38587156  0.64071078  0.51016287  1  0.001797  0  -0.014346  0.041375  0  3.916435  0
C  C6  1  0.13012324  0.87504077  0.48965810  1  -0.017703  0  -0.014994  0.039402  0  3.918495  0
C  C7  1  0.19940445  0.43934303  0.88674998  1  0.397665  0  0.005879  -0.057689  0  3.958304  0
C  C8  1  0.32894896  0.53688319  0.40350430  1  -0.03675  0  -0.015727  0.031296  0  4.069496  0
C  C9  1  0.13339612  0.92459023  0.59639997  1  0.010453  0  -0.014455  0.032245  0  4.067076  0
C  C10  1  0.27248197  0.43075210  0.39987165  1  -0.038782  0  -0.098594  -0.136597  0  4.015634  0
C  C11  1  0.03105767  0.87178672  0.60020083  1  -0.071842  0  -0.098883  -0.136674  0  4.016764  0
C  C12  1  0.28319849  0.42632500  0.49403186  1  0.003065  0  -0.101126  -0.147668  0  3.997351  0
C  C13  1  0.93227233  0.78854053  0.50607435  1  -0.039225  0  -0.101404  -0.148176  0  3.998918  0
C  C14  1  0.35253653  0.52838343  0.60190135  1  0.055503  0  -0.007444  0.080447  0  4.041904  0
C  C15  1  0.92597354  0.75016064  0.39813999  1  -0.000739  0  -0.007385  0.080054  0  4.042629  0
C  C16  1  0.39782303  0.63588738  0.60406708  1  -0.07128  0  -0.021807  -0.056568  0  3.888318  0
C  C17  1  0.03119883  0.79317756  0.39582687  1  -0.035842  0  -0.021017  -0.053491  0  3.885446  0
C  C18  1  0.48302326  0.76574218  0.68017841  1  0.517977  0  0.008906  0.151526  0  3.882025  0
C  C19  1  0.08467773  0.80226666  0.31960161  1  0.501988  0  0.008446  0.151813  0  3.880328  0
C  C20  1  0.80836875  0.65478525  0.19275467  1  0.424446  0  0.011609  -0.026269  0  3.953931  0
C  C21  1  0.46256373  0.61629677  0.80734614  1  0.44039  0  0.011859  -0.02595  0  3.952621  0
C  C22  1  0.46345680  0.77433957  0.57402101  1  -0.065521  0  -0.16486  -0.290401  0  3.889991  0
C  C23  1  0.82026304  0.68975788  0.30094536  1  0.009051  0  -0.041067  -0.140887  0  4.059007  0
C  C24  1  0.19957091  0.88879325  0.42570120  1  -0.040194  0  -0.165446  -0.29096  0  3.890552  0
C  C25  1  0.05927762  0.55537436  0.88852420  1  -0.024428  0  -0.10335  -0.134209  0  4.072886  0
C  C26  1  0.66728025  0.17108363  0.11163320  1  -0.00666  0  -0.102832  -0.132992  0  4.071654  0
C  C27  1  0.96194351  0.46126202  0.84740093  1  -0.011529  0  -0.106013  -0.136634  0  4.070483  0
C  C28  1  0.61433241  0.11486194  0.15274653  1  -0.0445  0  -0.106381  -0.137797  0  4.071385  0
C  C29  1  0.38931009  0.51992710  0.69910409  1  0.005789  0  -0.041067  -0.140452  0  4.059155  0
C  C30  1  0.75456198  0.37604461  0.81489538  1  0.407458  0  0.001167  -0.071117  0  4.001435  0
C  C31  1  0.56121302  0.93987834  0.18507179  1  0.396701  0  0.001706  -0.069221  0  4.003094  0
C  C32  1  0.39076930  0.63398597  0.30078664  1  0.386086  0  0.012165  -0.040849  0  3.981294  0
C  C33  1  0.33293047  0.08966678  0.69896914  1  0.406268  0  0.012613  -0.040784  0  3.978344  0
C  C34  1  0.83177216  0.57838304  0.91465303  1  0.412741  0  0.00506  -0.05811  0  3.979916  0
C  C35  1  0.66445413  0.91753508  0.08610716  1  0.419156  0  0.004638  -0.058705  0  3.981631  0
C  C36  1  0.31806607  0.43128784  0.20504118  1  0.389421  0  0.002408  -0.068611  0  4.011075  0
C  C37  1  0.22638571  0.11232910  0.79488540  1  0.389699  0  0.00188  -0.068162  0  4.009345  0
C  C38  1  0.70859276  0.67960714  0.29554882  1  0.99895  0  0.181199  0.29718  0  4.043709  0
C  C39  1  0.38413903  0.41346933  0.70446091  1  0.993806  0  0.18141  0.296695  0  4.046725  0
C  C40  1  0.65963845  0.29355122  0.01732413  1  0.387554  0  0.008962  -0.052889  0  3.949912  0
C  C41  1  0.27602287  0.64230214  0.98268556  1  0.3894  0  0.008509  -0.052058  0  3.949112  0
C  C42  1  0.63499452  0.26052484  0.08947026  1  0.067116  0  -0.040935  0.009134  0  4.125108  0
C  C43  1  0.17084771  0.54535798  0.91057582  1  0.064079  0  -0.040716  0.008353  0  4.126516  0
C  C44  1  0.53032625  0.96892568  0.82395890  1  0.400705  0  -0.150508  -0.170754  0  3.986713  0
C  C45  1  0.14381259  0.70597769  0.17569276  1  0.430976  0  -0.150793  -0.170593  0  3.989473  0
C  C46  1  0.64303612  0.60339398  0.39377044  1  0.360281  0  -0.138533  -0.168136  0  3.890013  0
C  C47  1  0.20958593  0.24945992  0.60640510  1  0.392085  0  -0.137732  -0.166422  0  3.887307  0
H  H48  1  0.50830534  0.31059614  0.16495931  1  0.078169  0  0.113506  0.097414  0  1.017669  0
H  H49  1  0.05146476  0.85223561  0.28167900  1  0.025452  0  0.091166  0.026037  0  0.977878  0
H  H50  1  0.57096894  0.77075898  0.71837128  1  0.016164  0  0.091235  0.026472  0  0.977852  0
H  H51  1  0.41984186  0.83909785  0.57371609  1  0.046461  0  0.093199  0.110063  0  1.006561  0
H  H52  1  0.26462336  0.84544139  0.42591852  1  0.046311  0  0.093466  0.110139  0  1.006921  0
H  H53  1  0.53911147  0.79429288  0.55656139  1  0.038956  0  0.087502  0.099341  0  1.0119  0
H  H54  1  0.23702438  0.98209321  0.44339775  1  0.013163  0  0.087331  0.098955  0  1.011462  0
H  H55  1  0.14555396  0.34291190  0.83470466  1  0.053054  0  0.113539  0.097224  0  1.017193  0
H  H56  1  0.05737547  0.64867351  0.92034186  1  0.037094  0  0.0959  0.093887  0  1.002464  0
H  H57  1  0.72867247  0.13727130  0.07980531  1  0.031343  0  0.09562  0.093522  0  1.001926  0
H  H58  1  0.96462311  0.36822220  0.81529241  1  0.007395  0  0.095449  0.095635  0  0.999392  0
H  H59  1  0.55343844  0.14971707  0.18476201  1  0.024199  0  0.095677  0.096523  0  0.998439  0
H  H60  1  0.87212458  0.64573649  0.15791927  1  0.114563  0  0.115377  0.106345  0  1.028324  0
H  H61  1  0.48851240  0.71502682  0.84234048  1  0.109251  0  0.115349  0.106139  0  1.026925  0
H  H62  1  0.73482656  0.27742806  0.76470392  1  0.063414  0  0.114865  0.103086  0  0.99907  0
H  H63  1  0.51260598  0.97040041  0.23498489  1  0.068978  0  0.114447  0.102059  0  0.998932  0
H  H64  1  0.42363577  0.73182074  0.36185329  1  0.102213  0  0.117107  0.103557  0  1.007015  0
H  H65  1  0.36958678  0.06157971  0.63786817  1  0.08781  0  0.117077  0.103469  0  1.004452  0
H  H66  1  0.88596314  0.67459035  0.96216326  1  0.048407  0  0.114014  0.099097  0  1.004729  0
H  H67  1  0.71352392  0.92430979  0.03899219  1  0.0823  0  0.114411  0.099588  0  1.005316  0
H  H68  1  0.28083443  0.33408243  0.17391596  1  0.05828  0  0.1148  0.102429  0  1.003439  0
H  H69  1  0.16053779  0.10592963  0.82613625  1  0.077952  0  0.114723  0.101455  0  1.003286  0
H  H70  1  0.71905539  0.27329390  0.97818165  1  0.069499  0  0.115877  0.104418  0  0.997608  0
H  H71  1  0.24113537  0.33857792  0.48254275  1  0.032692  0  0.094989  0.096904  0  1.04145  0
H  H72  1  0.29486291  0.74098715  0.02192138  1  0.079559  0  0.115791  0.104278  0  0.996416  0
H  H73  1  0.22067069  0.34675656  0.31977014  1  0.022133  0  0.093853  0.09334  0  1.00783  0
H  H74  1  0.02736323  0.89984948  0.68030637  1  0.022244  0  0.094069  0.093492  0  1.008201  0
H  H75  1  0.53654402  0.00550470  0.77070783  1  0.01958  0  0.08267  0.071376  0  1.021636  0
H  H76  1  0.61590607  0.97373220  0.86787455  1  0.013852  0  0.080412  0.0624  0  1.024857  0
H  H77  1  0.49984327  0.02563094  0.88420053  1  0.084914  0  0.102258  0.117953  0  0.989519  0
H  H78  1  0.85611074  0.75785385  0.51756215  1  0.077772  0  0.094354  0.096065  0  1.041517  0
H  H79  1  0.23365574  0.76541597  0.22888268  1  0.000636  0  0.082443  0.071347  0  1.021264  0
H  H80  1  0.10473132  0.74778417  0.13190009  1  0.004556  0  0.080159  0.0617  0  1.025863  0
H  H81  1  0.14026508  0.61523070  0.11544184  1  0.094331  0  0.103288  0.119175  0  0.989556  0
H  H82  1  0.71649846  0.57379385  0.40836131  1  0.04424  0  0.100103  0.099595  0  0.994425  0
H  H83  1  0.56989121  0.52533623  0.32183324  1  0.068622  0  0.09505  0.096634  0  1.028631  0
H  H84  1  0.62145103  0.63738618  0.46604291  1  0.065387  0  0.104742  0.113198  0  0.987283  0
H  H85  1  0.16543625  0.30837557  0.59183036  1  0.042292  0  0.10003  0.09918  0  0.994469  0
H  H86  1  0.20381008  0.24847554  0.67849755  1  0.059161  0  0.09476  0.096039  0  1.027709  0
H  H87  1  0.17125951  0.15547292  0.53414236  1  0.04844  0  0.104715  0.112817  0  0.986424  0
N  N88  1  0.52930923  0.36879832  0.05725705  1  -0.771816  0  -0.284815  -0.176725  0  3.640089  0
N  N89  1  0.57238065  0.82912883  0.15159655  1  -0.791596  0  -0.271709  -0.176733  0  3.545369  0
N  N90  1  0.67749166  0.42084385  0.84851366  1  -0.772526  0  -0.270701  -0.176169  0  3.539749  0
N  N91  1  0.39988897  0.59326575  0.20328718  1  -0.814404  0  -0.271068  -0.181058  0  3.54789  0
N  N92  1  0.38974610  0.19641686  0.79646285  1  -0.79546  0  -0.271919  -0.1823  0  3.546407  0
N  N93  1  0.72596240  0.54705550  0.91082646  1  -0.808038  0  -0.269412  -0.169324  0  3.547483  0
N  N94  1  0.63669076  0.81542730  0.08979386  1  -0.793431  0  -0.268841  -0.168364  0  3.547797  0
N  N95  1  0.31138524  0.47189768  0.94246965  1  -0.786685  0  -0.284695  -0.177809  0  3.637236  0
N  N96  1  0.35457530  0.46690011  0.14350438  1  -0.774506  0  -0.273945  -0.180737  0  3.564427  0
N  N97  1  0.32338178  0.21067147  0.85632546  1  -0.805463  0  -0.273773  -0.180195  0  3.563774  0
N  N98  1  0.63838877  0.64526268  0.19394662  1  -0.758931  0  -0.284985  -0.283198  0  3.57673  0
N  N99  1  0.45134078  0.44485221  0.80608595  1  -0.794841  0  -0.285576  -0.284746  0  3.580808  0
N  N100  1  0.59447519  0.35669352  0.99769166  1  -0.779396  0  -0.281317  -0.19035  0  3.604188  0
N  N101  1  0.35885122  0.59677276  0.00212903  1  -0.790781  0  -0.281293  -0.191189  0  3.603318  0
N  N102  1  0.70032326  0.63003002  0.13087294  1  -0.809675  0  -0.286142  -0.179702  0  3.652414  0
N  N103  1  0.49944084  0.56997441  0.86916908  1  -0.787109  0  -0.285181  -0.177742  0  3.652108  0
O  O104  1  0.45172878  0.84625807  0.76195610  1  -1.054794  0  -0.233854  -0.207084  0  2.488511  0
O  O105  1  0.08329221  0.68918458  0.23763912  1  -1.060377  0  -0.233571  -0.207478  0  2.492266  0
O  O106  1  0.66930369  0.70430358  0.37685891  1  -1.083021  0  -0.209444  -0.220764  0  2.542745  0
O  O107  1  0.32730374  0.29275712  0.62314806  1  -1.087584  0  -0.209705  -0.220565  0  2.54402  0
Zn  Zn108  1  0.37556568  0.37546267  0.99985930  1  1.184819  0  0.744039  0.603018  0  2.491638  0
Zn  Zn109  1  0.64533753  0.64532880  0.00010236  1  1.186565  0  0.740919  0.60512  0  2.472122  0
Zn  Zn110  1  0.52785819  0.34606893  0.85266496  1  1.193912  0  0.744499  0.634869  0  2.408379  0
Zn  Zn111  1  0.49322166  0.67532741  0.14722352  1  1.194349  0  0.744825  0.634612  0  2.409792  0
