# generated using pymatgen
data_ZnMoH10C15N3O4
_symmetry_space_group_name_H-M   'P 1'
_cell_length_a   8.33031450
_cell_length_b   9.55625022
_cell_length_c   10.68628846
_cell_angle_alpha   64.00509098
_cell_angle_beta   71.69946769
_cell_angle_gamma   69.16198004
_symmetry_Int_Tables_number   1
_chemical_formula_structural   ZnMoH10C15N3O4
_chemical_formula_sum   'Zn2 Mo2 H20 C30 N6 O8'
_cell_volume   701.85242630
_cell_formula_units_Z   2
loop_
 _symmetry_equiv_pos_site_id
 _symmetry_equiv_pos_as_xyz
  1  'x, y, z'
loop_
 _atom_site_type_symbol
 _atom_site_label
 _atom_site_symmetry_multiplicity
 _atom_site_fract_x
 _atom_site_fract_y
 _atom_site_fract_z
 _atom_site_occupancy
 _atom_site_pbe_bader_spin_density
 _atom_site_pbe_cm5_charge
 _atom_site_pbe_ddec_charge
 _atom_site_pbe_ddec_spin_density
 _atom_site_pbe_ddec_sum_bond_order
 _atom_site_pbe_magmom
Zn  Zn0  1  0.59296071  0.34086140  0.35242991  1  0  0.679899  0.825103  0  2.533385  0
Zn  Zn1  1  0.40703925  0.65913703  0.64757163  1  0  0.679893  0.825115  0  2.533361  0
Mo  Mo2  1  0.57382524  0.74871023  0.29626813  1  0  1.450441  2.003554  0  4.969634  0
Mo  Mo3  1  0.42617439  0.25128939  0.70373209  1  0  1.450431  2.003525  0  4.969634  0
H  H4  1  0.21713554  0.55181183  0.28057573  1  0  0.119984  0.094078  0  0.983342  0
H  H5  1  0.78286501  0.44818900  0.71942379  1  0  0.119984  0.094077  0  0.983342  0
H  H6  1  0.02818515  0.58677702  0.12557401  1  0  0.103196  0.127506  0  1.044238  0
H  H7  1  0.97181507  0.41322501  0.87442512  1  0  0.103199  0.127479  0  1.044276  0
H  H8  1  0.14593607  0.41666525  0.96866026  1  0  0.107133  0.101811  0  1.028131  0
H  H9  1  0.85406195  0.58333558  0.03134082  1  0  0.107161  0.101854  0  1.028161  0
H  H10  1  0.43922283  0.22543651  0.98268284  1  0  0.109268  0.118793  0  1.052093  0
H  H11  1  0.56077519  0.77456433  0.01731823  1  0  0.109268  0.118792  0  1.052077  0
H  H12  1  0.70136760  0.10235767  0.97974256  1  0  0.116265  0.138958  0  1.024665  0
H  H13  1  0.29863043  0.89764316  0.02025758  1  0  0.116273  0.138974  0  1.024654  0
H  H14  1  0.83833583  0.98241329  0.86158521  1  0  0.113936  0.141357  0  1.025794  0
H  H15  1  0.16166345  0.01758755  0.13841368  1  0  0.113935  0.141348  0  1.025796  0
H  H16  1  0.75714593  0.97187768  0.69749586  1  0  0.103466  0.118885  0  1.068472  0
H  H17  1  0.24285495  0.02812195  0.30250311  1  0  0.103468  0.118853  0  1.068476  0
H  H18  1  0.68021162  0.91650448  0.51904957  1  0  0.110021  0.124322  0  0.987302  0
H  H19  1  0.31978986  0.08349756  0.48094831  1  0  0.110011  0.124309  0  0.98731  0
H  H20  1  0.90493758  0.73473011  0.39976963  1  0  0.103456  0.117024  0  1.040324  0
H  H21  1  0.09506491  0.26526831  0.60022942  1  0  0.103462  0.11701  0  1.040335  0
H  H22  1  0.20567319  0.61477539  0.46568295  1  0  0.114504  0.079547  0  1.031651  0
H  H23  1  0.79432677  0.38522303  0.53431859  1  0  0.114503  0.079536  0  1.031676  0
C  C24  1  0.26132368  0.48290376  0.21195207  1  0  0.055909  0.112534  0  3.935143  0
C  C25  1  0.73867721  0.51709586  0.78804877  1  0  0.055886  0.112502  0  3.935158  0
C  C26  1  0.15667623  0.50136775  0.12370974  1  0  -0.084079  -0.132744  0  3.942375  0
C  C27  1  0.84332306  0.49863308  0.87629102  1  0  -0.084101  -0.13273  0  3.942482  0
C  C28  1  0.22147850  0.40834395  0.03945820  1  0  -0.068262  -0.027963  0  3.949699  0
C  C29  1  0.77852079  0.59165688  0.96054256  1  0  -0.068261  -0.027974  0  3.949821  0
C  C30  1  0.38708088  0.30196256  0.04497336  1  0  -0.070042  -0.12906  0  3.897375  0
C  C31  1  0.61291840  0.69803827  0.95502740  1  0  -0.07002  -0.129071  0  3.897388  0
C  C32  1  0.48567905  0.29483444  0.13276362  1  0  0.124524  0.167914  0  3.965507  0
C  C33  1  0.51432057  0.70516519  0.86723659  1  0  0.124539  0.168021  0  3.965612  0
C  C34  1  0.67006351  0.20039359  0.13504013  1  0  0.131574  0.190421  0  4.006874  0
C  C35  1  0.32993611  0.79960604  0.86496008  1  0  0.131592  0.1904  0  4.006877  0
C  C36  1  0.76661336  0.11368073  0.04735657  1  0  -0.059518  -0.179911  0  3.847405  0
C  C37  1  0.23338592  0.88632010  0.95264232  1  0  -0.059526  -0.179915  0  3.847398  0
C  C38  1  0.94635908  0.04495528  0.04707855  1  0  0.02758  0.138645  0  3.902669  0
C  C39  1  0.05364054  0.95504435  0.95292073  1  0  0.027609  0.138664  0  3.902632  0
C  C40  1  0.97788032  0.93465914  0.86341976  1  0  -0.063075  -0.178053  0  3.807787  0
C  C41  1  0.02211896  0.06534170  0.13657913  1  0  -0.063072  -0.178049  0  3.807827  0
C  C42  1  0.08429324  0.85122598  0.77465936  1  0  0.127646  0.189639  0  4.000974  0
C  C43  1  0.91570605  0.14877485  0.22533954  1  0  0.127657  0.189637  0  4.000974  0
C  C44  1  0.02299158  0.82357999  0.67307919  1  0  0.11733  0.157186  0  3.992306  0
C  C45  1  0.97700898  0.17642084  0.32692033  1  0  0.117283  0.157162  0  3.992342  0
C  C46  1  0.85399989  0.89423688  0.64357434  1  0  -0.078843  -0.150116  0  3.909343  0
C  C47  1  0.14599940  0.10576395  0.35642455  1  0  -0.078784  -0.150007  0  3.909255  0
C  C48  1  0.81083441  0.86272478  0.54433385  1  0  -0.063266  -0.008167  0  3.913655  0
C  C49  1  0.18916648  0.13727485  0.45566512  1  0  -0.063309  -0.008217  0  3.91363  0
C  C50  1  0.93576188  0.76082468  0.47814057  1  0  -0.080336  -0.125708  0  3.935366  0
C  C51  1  0.06423934  0.23917375  0.52185972  1  0  -0.080329  -0.125679  0  3.935319  0
C  C52  1  0.10125149  0.69455229  0.51385282  1  0  0.051655  0.095469  0  3.956757  0
C  C53  1  0.89874814  0.30544734  0.48614740  1  0  0.051682  0.095504  0  3.956743  0
N  N54  1  0.42142926  0.38307377  0.21588584  1  0  -0.316877  -0.26307  0  3.517074  0
N  N55  1  0.57857129  0.61692707  0.78411368  1  0  -0.316912  -0.263144  0  3.517205  0
N  N56  1  0.25535730  0.78707598  0.77728080  1  0  -0.327801  -0.313893  0  3.590838  0
N  N57  1  0.74464359  0.21292365  0.22271817  1  0  -0.327794  -0.313884  0  3.590852  0
N  N58  1  0.14389784  0.72576588  0.60822065  1  0  -0.317899  -0.280065  0  3.5312  0
N  N59  1  0.85610211  0.27423254  0.39177995  1  0  -0.317893  -0.28008  0  3.531259  0
O  O60  1  0.52177638  0.78404427  0.45985512  1  0  -0.591597  -0.838561  0  1.994415  0
O  O61  1  0.47822324  0.21595535  0.54014509  1  0  -0.591588  -0.83853  0  1.994416  0
O  O62  1  0.44758280  0.90902667  0.17538252  1  0  -0.573353  -0.777313  0  1.740567  0
O  O63  1  0.55241683  0.09097295  0.82461769  1  0  -0.573347  -0.77732  0  1.740575  0
O  O64  1  0.52002983  0.56721016  0.33123645  1  0  -0.593032  -0.855245  0  2.10901  0
O  O65  1  0.47996980  0.43278947  0.66876377  1  0  -0.593035  -0.855231  0  2.108977  0
O  O66  1  0.79681366  0.73258022  0.22364056  1  0  -0.579839  -0.782912  0  1.708088  0
O  O67  1  0.20318469  0.26741941  0.77635996  1  0  -0.579831  -0.782895  0  1.708092  0
