# generated using pymatgen
data_Pr2H13C24O17
_symmetry_space_group_name_H-M   'P 1'
_cell_length_a   13.91679734
_cell_length_b   13.91673578
_cell_length_c   13.91690031
_cell_angle_alpha   119.62398419
_cell_angle_beta   104.64583152
_cell_angle_gamma   104.64711187
_symmetry_Int_Tables_number   1
_chemical_formula_structural   Pr2H13C24O17
_chemical_formula_sum   'Pr4 H26 C48 O34'
_cell_volume   2025.27296032
_cell_formula_units_Z   2
loop_
 _symmetry_equiv_pos_site_id
 _symmetry_equiv_pos_as_xyz
  1  'x, y, z'
loop_
 _atom_site_type_symbol
 _atom_site_label
 _atom_site_symmetry_multiplicity
 _atom_site_fract_x
 _atom_site_fract_y
 _atom_site_fract_z
 _atom_site_occupancy
 _atom_site_pbe_bader_charge
 _atom_site_pbe_bader_spin_density
 _atom_site_pbe_cm5_charge
 _atom_site_pbe_ddec_charge
 _atom_site_pbe_ddec_spin_density
 _atom_site_pbe_ddec_sum_bond_order
 _atom_site_pbe_magmom
Pr  Pr0  1  0.14219691  0.43167640  0.97719855  1  2.269115  -0.000323  1.500609  2.148929  -0.000609  2.077105  0.0
Pr  Pr1  1  0.95448246  0.03948110  0.68168022  1  2.268698  -0.000325  1.50042  2.141174  -0.000616  2.092638  0.0
Pr  Pr2  1  0.85780038  0.83499990  0.28948090  1  2.269116  -0.000325  1.500334  2.14088  -0.000621  2.092923  0.0
Pr  Pr3  1  0.04552344  0.72720681  0.08499738  1  2.268785  -0.000327  1.500786  2.148951  -0.000615  2.076926  0.0
H  H4  1  0.31293884  0.36401220  0.06015807  1  0.614609  -3.4e-05  0.337832  0.429302  -5.6e-05  0.855977  0.0
H  H5  1  0.80386702  0.80108102  0.61403790  1  0.670567  -3.2e-05  0.337842  0.429222  -5.6e-05  0.856066  0.0
H  H6  1  0.68706570  0.74722416  0.05109217  1  0.645095  -3.3e-05  0.337713  0.429133  -5.6e-05  0.85614  0.0
H  H7  1  0.19614184  0.81016875  0.99721903  1  0.615452  -3.4e-05  0.337851  0.429228  -5.6e-05  0.856066  0.0
H  H8  1  0.38893886  0.49576598  0.10226797  1  0.622587  0.000282  0.339032  0.418724  0.000226  0.86653  0.0
H  H9  1  0.89350328  0.85690533  0.74582042  1  0.611394  0.000288  0.338734  0.418734  0.000228  0.866465  0.0
H  H10  1  0.61107890  0.71337933  0.10687880  1  0.622089  0.000282  0.338782  0.418719  0.000227  0.866515  0.0
H  H11  1  0.10650125  0.85227747  0.96332901  1  0.625662  0.000286  0.33902  0.418686  0.000226  0.866565  0.0
H  H12  1  0.95615845  0.28339698  0.68483978  1  0.113568  0.000726  0.117442  0.09436  0.001806  1.062873  -0.003
H  H13  1  0.09854981  0.07724251  0.53339812  1  0.096703  0.001108  0.117436  0.094462  0.001805  1.062556  -0.003
H  H14  1  0.04384126  0.72870179  0.32724769  1  0.112416  0.000797  0.117476  0.094388  0.001803  1.062722  -0.003
H  H15  1  0.90145409  0.43484128  0.97868184  1  0.097768  0.001066  0.11744  0.094212  0.001807  1.063258  -0.003
H  H16  1  0.68667092  0.12186801  0.33425568  1  0.147254  -0.000871  0.125465  0.143541  -0.001986  0.966577  -0.002
H  H17  1  0.28765026  0.18519892  0.37190438  1  0.134318  -0.000753  0.125369  0.143512  -0.001984  0.966667  -0.002
H  H18  1  0.31328775  0.64754475  0.43517948  1  0.136396  -0.000729  0.125344  0.143522  -0.001985  0.966673  -0.002
H  H19  1  0.71236238  0.08423939  0.89753721  1  0.126907  -0.000642  0.125422  0.143522  -0.001986  0.966679  -0.002
H  H20  1  0.76424851  0.47714733  0.66268792  1  0.133336  -0.000726  0.127023  0.14243  -0.00206  0.966747  -0.003
H  H21  1  0.31447251  0.46291570  0.72716063  1  0.149923  -0.000831  0.12709  0.142483  -0.002061  0.966539  -0.003
H  H22  1  0.23575296  0.89844137  0.71290458  1  0.134719  -0.000793  0.127096  0.142507  -0.002061  0.966766  -0.003
H  H23  1  0.68553798  0.41267852  0.14842065  1  0.156327  -0.000984  0.127064  0.142508  -0.002064  0.966736  -0.003
H  H24  1  0.34134530  0.95313159  0.36467658  1  0.144985  -0.000459  0.118254  0.133157  -0.00129  1.00698  -0.002
H  H25  1  0.08845779  0.36178766  0.20311749  1  0.137679  -0.000407  0.118259  0.133187  -0.00129  1.006849  -0.002
H  H26  1  0.65866678  0.02331062  0.61177714  1  0.156584  -0.000697  0.118353  0.133344  -0.00129  1.007019  -0.002
H  H27  1  0.91154729  0.11465980  0.27332801  1  0.143457  -0.000477  0.118321  0.133277  -0.001291  1.006896  -0.002
H  H28  1  0.49998449  0.72352197  0.22353097  1  0.069483  0.001778  0.110473  0.101072  0.001454  1.017518  -0.003
H  H29  1  0.99999460  0.97353328  0.97353851  1  0.06776  0.001972  0.110637  0.101079  0.001456  1.017649  -0.003
C  C30  1  0.86768868  0.39160154  0.68799843  1  -0.039782  -0.050177  -0.006451  -0.028818  -0.051036  3.949374  -0.044
C  C31  1  0.20361318  0.27392289  0.64161315  1  0.038679  -0.051087  -0.006366  -0.02859  -0.051029  3.949238  -0.044
C  C32  1  0.13230479  0.82031567  0.52391770  1  -0.025363  -0.050223  -0.006341  -0.028542  -0.051052  3.949024  -0.044
C  C33  1  0.79639861  0.43799712  0.07029922  1  -0.019332  -0.050244  -0.006516  -0.028832  -0.051046  3.949251  -0.044
C  C34  1  0.88845669  0.28811530  0.63067479  1  -0.046362  0.268023  -0.039363  -0.045299  0.274829  3.801831  0.157
C  C35  1  0.15744853  0.14966067  0.53812439  1  -0.102443  0.268486  -0.039371  -0.045329  0.274806  3.801614  0.157
C  C36  1  0.11154109  0.74222590  0.39966489  1  -0.035168  0.267531  -0.039412  -0.045662  0.274708  3.8021  0.157
C  C37  1  0.84256050  0.38067352  0.99220561  1  -0.082759  0.268136  -0.039287  -0.045297  0.27491  3.801979  0.157
C  C38  1  0.82204333  0.19011405  0.50367995  1  0.000191  -0.047413  -0.010243  -0.041568  -0.047435  3.980409  -0.043
C  C39  1  0.18645255  0.11807427  0.44013575  1  -0.01262  -0.047293  -0.010317  -0.041508  -0.047441  3.980479  -0.043
C  C40  1  0.17793843  0.68163844  0.36806451  1  -0.020997  -0.047006  -0.010137  -0.041353  -0.047461  3.979926  -0.043
C  C41  1  0.81354902  0.25367145  0.93160705  1  0.034273  -0.047656  -0.010434  -0.041594  -0.047425  3.980633  -0.043
C  C42  1  0.73707576  0.19610392  0.43282484  1  -0.04723  0.225789  -0.047593  -0.126093  0.229887  3.742767  0.129
C  C43  1  0.26330453  0.20903420  0.44612673  1  -0.061788  0.226286  -0.047641  -0.125812  0.229953  3.742547  0.129
C  C44  1  0.26290280  0.69572731  0.45902044  1  -0.018084  0.225395  -0.047741  -0.126042  0.230018  3.742176  0.129
C  C45  1  0.73670495  0.18281616  0.94571526  1  -0.029512  0.225419  -0.047507  -0.126019  0.229857  3.742921  0.129
C  C46  1  0.71296374  0.30096086  0.48773129  1  0.845617  0.009227  0.119723  0.344823  0.002247  4.11205  -0.028
C  C47  1  0.31324548  0.33801003  0.55098017  1  0.901162  0.007993  0.119725  0.344728  0.002243  4.111967  -0.028
C  C48  1  0.28702044  0.77475374  0.58799383  1  0.847057  0.00903  0.11973  0.344813  0.002251  4.112293  -0.028
C  C49  1  0.68676110  0.23771976  0.02474404  1  0.868992  0.008719  0.119677  0.3447  0.002266  4.112392  -0.028
C  C50  1  0.78186380  0.39828948  0.61896086  1  0.011058  0.226184  -0.039925  -0.114815  0.231447  3.723655  0.13
C  C51  1  0.27934387  0.36643634  0.64830255  1  -0.028823  0.22686  -0.039849  -0.114934  0.23136  3.723622  0.13
C  C52  1  0.21813318  0.83709131  0.61643372  1  -0.009281  0.226819  -0.039818  -0.114971  0.231461  3.723591  0.13
C  C53  1  0.72066843  0.36895350  0.08707696  1  -0.037751  0.227104  -0.039887  -0.114867  0.231473  3.723759  0.13
C  C54  1  0.93452266  0.49505521  0.82348114  1  1.564414  -0.001088  0.23147  0.636608  -0.001857  4.154796  0.002
C  C55  1  0.17157751  0.31053654  0.74505927  1  1.562773  -0.001088  0.231365  0.636376  -0.001857  4.154953  0.002
C  C56  1  0.06549093  0.88898311  0.56055891  1  1.565642  -0.001123  0.231327  0.636686  -0.001859  4.154378  0.002
C  C57  1  0.82843509  0.57348712  0.13895417  1  1.561375  -0.001103  0.231608  0.636917  -0.001858  4.153916  0.002
C  C58  1  0.84068708  0.07762630  0.44339353  1  1.548914  -0.000999  0.218576  0.615765  -0.00149  4.199591  0.002
C  C59  1  0.13424903  0.98694411  0.32764204  1  1.551755  -0.001007  0.218529  0.615288  -0.001491  4.200403  0.002
C  C60  1  0.15929939  0.60270763  0.23693459  1  1.544836  -0.001006  0.218569  0.61535  -0.001491  4.201069  0.002
C  C61  1  0.86575152  0.19338147  0.85268163  1  1.542795  -0.001033  0.21846  0.615408  -0.001491  4.200373  0.002
C  C62  1  0.40894091  0.82762672  0.28204905  1  -0.057852  -0.047296  -0.014551  -0.043136  -0.047687  3.988249  -0.042
C  C63  1  0.04557851  0.16868677  0.07762690  1  -0.061081  -0.047436  -0.014399  -0.042963  -0.047678  3.988233  -0.042
C  C64  1  0.59104971  0.87308521  0.41867208  1  -0.07377  -0.046879  -0.014411  -0.042844  -0.047712  3.988415  -0.042
C  C65  1  0.95441641  0.03204216  0.12310027  1  -0.062969  -0.047334  -0.014347  -0.042917  -0.047707  3.988361  -0.042
C  C66  1  0.40926387  0.92842299  0.37922924  1  -0.044728  0.219999  -0.050156  -0.13336  0.22363  3.743759  0.125
C  C67  1  0.04920026  0.26915616  0.17841496  1  -0.031266  0.219679  -0.049986  -0.133412  0.223577  3.743992  0.125
C  C68  1  0.59074708  0.96994847  0.51915868  1  -0.028732  0.219846  -0.050168  -0.133721  0.223819  3.743992  0.125
C  C69  1  0.95080089  0.12921450  0.21996088  1  -0.016173  0.219566  -0.049925  -0.133393  0.22376  3.743661  0.125
C  C70  1  0.50000775  0.00330855  0.50331747  1  0.82737  0.016167  0.112663  0.346523  0.009217  4.110277  -0.023
C  C71  1  0.00000125  0.25330804  0.25330654  1  0.82692  0.016454  0.112688  0.346352  0.009207  4.110229  -0.023
C  C72  1  0.49999522  0.80123730  0.30124764  1  0.054759  0.276508  -0.042447  -0.04272  0.285764  3.841203  0.163
C  C73  1  0.99999362  0.05124102  0.05124331  1  0.034914  0.276959  -0.042415  -0.042796  0.285844  3.841189  0.163
C  C74  1  0.30988640  0.73943575  0.15736584  1  1.601528  -0.001102  0.236735  0.645761  -0.001962  4.189352  0.002
C  C75  1  0.08205321  0.17951307  0.98940749  1  1.611446  -0.001097  0.236461  0.645697  -0.001962  4.189249  0.002
C  C76  1  0.69010804  0.84744844  0.42952647  1  1.602703  -0.001122  0.236714  0.645955  -0.001961  4.188749  0.002
C  C77  1  0.91793948  0.90734651  0.09745811  1  1.602959  -0.001115  0.236635  0.645644  -0.001962  4.189582  0.002
O  O78  1  0.32670935  0.41616142  0.03251044  1  -1.190911  -4e-05  -0.600157  -0.788695  -0.00011  1.973299  0.0
O  O79  1  0.88366260  0.83946659  0.66619106  1  -1.235997  -4.3e-05  -0.599835  -0.787897  -0.00011  1.973694  0.0
O  O80  1  0.67328048  0.70579977  0.08946411  1  -1.221662  -4.1e-05  -0.599891  -0.787731  -0.00011  1.973845  0.0
O  O81  1  0.11634306  0.78251490  0.95579003  1  -1.194431  -3.9e-05  -0.600003  -0.788546  -0.00011  1.973338  0.0
O  O82  1  0.02236265  0.50086967  0.89024752  1  -1.234075  -0.001266  -0.416935  -0.752456  -0.001894  2.317504  -0.001
O  O83  1  0.11062241  0.22851110  0.75086689  1  -1.23344  -0.00126  -0.416905  -0.751449  -0.001889  2.318363  -0.001
O  O84  1  0.97764783  0.86791441  0.47852779  1  -1.236664  -0.00127  -0.416889  -0.750921  -0.001893  2.317947  -0.001
O  O85  1  0.88937481  0.64025252  0.11787800  1  -1.234031  -0.001265  -0.416938  -0.751862  -0.001892  2.317496  -0.001
O  O86  1  0.90151932  0.57639651  0.87055157  1  -1.160462  -0.006832  -0.37815  -0.60345  -0.007296  2.185305  -0.006
O  O87  1  0.20585438  0.42488677  0.82640625  1  -1.162213  -0.00683  -0.37811  -0.603357  -0.007299  2.185208  -0.006
O  O88  1  0.09849300  0.96904730  0.67488781  1  -1.166181  -0.006823  -0.378047  -0.602603  -0.007294  2.186165  -0.006
O  O89  1  0.79416847  0.62054928  0.21903297  1  -1.159063  -0.006826  -0.378202  -0.602679  -0.007294  2.185446  -0.006
O  O90  1  0.90519328  0.05967012  0.51108720  1  -1.237749  0.002731  -0.422187  -0.76864  0.002769  2.372231  0.001
O  O91  1  0.04858624  0.90447773  0.30967041  1  -1.239038  0.002705  -0.422076  -0.769052  0.002766  2.37202  0.001
O  O92  1  0.09478931  0.60590381  0.15447393  1  -1.237377  0.002719  -0.422031  -0.770157  0.002764  2.372063  0.001
O  O93  1  0.95141900  0.26108071  0.85588634  1  -1.239683  0.002713  -0.422174  -0.769482  0.002771  2.371818  0.001
O  O94  1  0.79247403  0.00091713  0.32696989  1  -1.177562  -0.007161  -0.357414  -0.612151  -0.007805  2.219543  -0.006
O  O95  1  0.17397255  0.95845111  0.25093773  1  -1.175152  -0.007162  -0.357404  -0.612836  -0.007806  2.219547  -0.006
O  O96  1  0.20750021  0.53449710  0.20843388  1  -1.172675  -0.007169  -0.357397  -0.612725  -0.007803  2.219894  -0.006
O  O97  1  0.82602878  0.07695947  0.78446432  1  -1.168252  -0.007168  -0.357345  -0.612041  -0.007805  2.219977  -0.006
O  O98  1  0.63480215  0.30679866  0.42429632  1  -0.962418  0.384812  -0.253104  -0.365886  0.381131  1.870054  0.322
O  O99  1  0.38250307  0.42201118  0.55680070  1  -0.962522  0.384832  -0.253196  -0.365986  0.381181  1.869865  0.322
O  O100  1  0.36518702  0.78948490  0.67198811  1  -0.961481  0.384818  -0.253105  -0.365901  0.381156  1.870207  0.322
O  O101  1  0.61749881  0.17428716  0.03947944  1  -0.960311  0.384716  -0.25307  -0.365808  0.381032  1.87026  0.322
O  O102  1  0.30136128  0.63187123  0.08763283  1  -1.195241  0.002052  -0.392049  -0.654802  0.001621  2.265532  0.001
O  O103  1  0.04422407  0.08048320  0.88187081  1  -1.195471  0.002046  -0.391883  -0.653782  0.001623  2.266285  0.001
O  O104  1  0.69862167  0.78623886  0.33049500  1  -1.19422  0.00205  -0.392096  -0.653859  0.001612  2.265902  0.001
O  O105  1  0.95576636  0.83764202  0.03625587  1  -1.193209  0.002044  -0.391907  -0.654606  0.001617  2.266048  0.001
O  O106  1  0.23844225  0.77491250  0.13063820  1  -1.213236  -0.004971  -0.403212  -0.684592  -0.005537  2.338093  -0.004
O  O107  1  0.14425932  0.28644586  0.02487405  1  -1.21635  -0.004966  -0.403121  -0.68458  -0.005536  2.33777  -0.004
O  O108  1  0.76156793  0.89218564  0.53645442  1  -1.217169  -0.004962  -0.403062  -0.68381  -0.005532  2.338276  -0.004
O  O109  1  0.85574175  0.88061099  0.14218967  1  -1.212868  -0.004964  -0.403085  -0.683748  -0.005533  2.338377  -0.004
O  O110  1  0.50002239  0.09367339  0.59368521  1  -0.979166  0.367402  -0.262771  -0.379179  0.364445  1.882345  0.307
O  O111  1  0.99999497  0.34366656  0.34366498  1  -0.980737  0.367382  -0.262822  -0.379163  0.364469  1.882169  0.307
