# generated using pymatgen
data_YbCuH22C18IN5O9
_symmetry_space_group_name_H-M   'P 1'
_cell_length_a   10.89757922
_cell_length_b   12.66108427
_cell_length_c   14.51366120
_cell_angle_alpha   91.80997078
_cell_angle_beta   96.59511677
_cell_angle_gamma   120.17567646
_symmetry_Int_Tables_number   1
_chemical_formula_structural   YbCuH22C18IN5O9
_chemical_formula_sum   'Yb2 Cu2 H44 C36 I2 N10 O18'
_cell_volume   1710.37716061
_cell_formula_units_Z   2
loop_
 _symmetry_equiv_pos_site_id
 _symmetry_equiv_pos_as_xyz
  1  'x, y, z'
loop_
 _atom_site_type_symbol
 _atom_site_label
 _atom_site_symmetry_multiplicity
 _atom_site_fract_x
 _atom_site_fract_y
 _atom_site_fract_z
 _atom_site_occupancy
 _atom_site_pbe_bader_charge
 _atom_site_pbe_bader_spin_density
 _atom_site_pbe_cm5_charge
 _atom_site_pbe_ddec_charge
 _atom_site_pbe_ddec_spin_density
 _atom_site_pbe_ddec_sum_bond_order
 _atom_site_pbe_magmom
Yb  Yb0  1  0.27887848  0.37652089  0.46424637  1  2.190403  0  1.609433  2.056248  0  2.179076  0
Yb  Yb1  1  0.72111512  0.62347809  0.53575065  1  2.190367  0  1.609463  2.056218  0  2.179259  0
Cu  Cu2  1  0.51048200  0.99691549  0.08785456  1  0.531093  0  0.366347  0.210685  0  2.7479  0
Cu  Cu3  1  0.48950537  0.00307879  0.91213487  1  0.531555  0  0.366276  0.210604  0  2.747832  0
H  H4  1  0.72791268  0.78736084  0.27907949  1  0.08289  0  0.106639  0.109364  0  1.01843  0
H  H5  1  0.27208013  0.21264171  0.72091619  1  0.082655  0  0.106621  0.109413  0  1.018417  0
H  H6  1  0.26987426  0.61718868  0.25795579  1  0.097264  0  0.110205  0.117358  0  1.025499  0
H  H7  1  0.73010942  0.38279736  0.74203721  1  0.097517  0  0.110253  0.117401  0  1.025506  0
H  H8  1  0.33577313  0.20589784  0.29735089  1  0.119852  0  0.117656  0.137415  0  1.011465  0
H  H9  1  0.66420531  0.79409874  0.70264192  1  0.119923  0  0.117742  0.137578  0  1.01149  0
H  H10  1  0.79393359  0.35316806  0.34256537  1  0.121446  0  0.10927  0.121293  0  1.014611  0
H  H11  1  0.20605840  0.64682461  0.65742651  1  0.121186  0  0.109263  0.121225  0  1.014889  0
H  H12  1  0.75808709  0.20720061  0.20754766  1  0.134501  0  0.102764  0.084501  0  1.048058  0
H  H13  1  0.24189544  0.79278991  0.79243916  1  0.135026  0  0.102753  0.084503  0  1.048122  0
H  H14  1  0.72160319  0.92725957  0.16086959  1  0.113151  0  0.103395  0.08416  0  1.024933  0
H  H15  1  0.27837154  0.07274042  0.83912780  1  0.113478  0  0.103451  0.084328  0  1.024874  0
H  H16  1  0.31766328  0.06158618  0.16646206  1  0.105869  0  0.10049  0.081316  0  1.031768  0
H  H17  1  0.68234097  0.93841863  0.83353404  1  0.105993  0  0.100474  0.081329  0  1.03159  0
H  H18  1  0.10095225  0.10044718  0.57206917  1  0.113746  0  0.125952  0.04699  0  0.999741  0
H  H19  1  0.89904362  0.89952411  0.42792246  1  0.113541  0  0.126004  0.047044  0  0.99971  0
H  H20  1  0.18791619  0.36649561  0.68556189  1  0.104836  0  0.127677  0.051091  0  0.992787  0
H  H21  1  0.81207922  0.63349351  0.31444674  1  0.104786  0  0.127684  0.051062  0  0.992858  0
H  H22  1  0.28173156  0.76686966  0.14224226  1  0.069886  0  0.096581  0.070732  0  1.055457  0
H  H23  1  0.71824742  0.23311971  0.85775935  1  0.070098  0  0.096587  0.070754  0  1.055431  0
H  H24  1  0.11783260  0.43939488  0.78973316  1  0.065547  0  0.116121  0.130287  0  0.977779  0
H  H25  1  0.88216428  0.56060687  0.21027389  1  0.065617  0  0.116154  0.130334  0  0.977757  0
H  H26  1  0.92864233  0.34882226  0.78818156  1  0.061823  0  0.106096  0.122814  0  0.993221  0
H  H27  1  0.07135668  0.65118496  0.21182446  1  0.06183  0  0.106093  0.122817  0  0.993376  0
H  H28  1  0.00615607  0.49971472  0.75053942  1  0.107457  0  0.10892  0.130322  0  1.021899  0
H  H29  1  0.99384800  0.50029000  0.24946906  1  0.107567  0  0.10893  0.130383  0  1.021895  0
H  H30  1  0.08496973  0.94905725  0.64584333  1  0.06853  0  0.114527  0.132504  0  0.985013  0
H  H31  1  0.91503549  0.05093770  0.35415672  1  0.070092  0  0.114567  0.132469  0  0.985091  0
H  H32  1  0.24912715  0.94721272  0.66332440  1  0.054536  0  0.101629  0.114989  0  1.013155  0
H  H33  1  0.75087088  0.05277287  0.33668989  1  0.054817  0  0.101693  0.115012  0  1.01309  0
H  H34  1  0.10089902  0.83744732  0.57902999  1  0.094321  0  0.108733  0.128522  0  1.03258  0
H  H35  1  0.89910873  0.16254231  0.42097702  1  0.094366  0  0.108668  0.128442  0  1.03264  0
H  H36  1  0.89170358  0.32502951  0.51993704  1  0.09895  0  0.114732  0.138332  0  0.998681  0
H  H37  1  0.10832167  0.67499496  0.48006705  1  0.099068  0  0.114633  0.138116  0  0.998637  0
H  H38  1  0.87025730  0.43024434  0.59225396  1  0.132274  0  0.113946  0.14379  0  1.018093  0
H  H39  1  0.12976894  0.56978019  0.40774678  1  0.132137  0  0.113986  0.143659  0  1.018158  0
H  H40  1  0.77502527  0.27071417  0.60693564  1  0.030186  0  0.099569  0.104807  0  1.004771  0
H  H41  1  0.22498206  0.72930783  0.39305778  1  0.036812  0  0.099572  0.104715  0  1.004997  0
H  H42  1  0.35384856  0.08268124  0.44233720  1  0.086347  0  0.11384  0.134872  0  1.015243  0
H  H43  1  0.64621311  0.91734096  0.55769360  1  0.087196  0  0.113753  0.134784  0  1.015343  0
H  H44  1  0.25884167  0.91903697  0.44342794  1  0.068681  0  0.106362  0.118453  0  1.000404  0
H  H45  1  0.74124548  0.08098272  0.55659891  1  0.062122  0  0.106265  0.118334  0  1.000325  0
H  H46  1  0.40165723  0.01359162  0.53549659  1  0.032003  0  0.107653  0.118113  0  0.98193  0
H  H47  1  0.59839324  0.98643725  0.46454301  1  0.031941  0  0.10774  0.118118  0  0.981406  0
C  C48  1  0.49899385  0.69421492  0.27987916  1  -0.047039  0  -0.005911  -0.002944  0  3.938875  0
C  C49  1  0.50098468  0.30578524  0.72011721  1  -0.047459  0  -0.005792  -0.002762  0  3.938953  0
C  C50  1  0.58169374  0.38010193  0.40753692  1  1.581783  0  0.226949  0.644213  0  4.153227  0
C  C51  1  0.41830449  0.61990182  0.59244619  1  1.581231  0  0.226974  0.644329  0  4.153259  0
C  C52  1  0.62712597  0.78071888  0.25059040  1  -0.02544  0  -0.083819  -0.142205  0  3.971992  0
C  C53  1  0.37285533  0.21927960  0.74940617  1  -0.025606  0  -0.08378  -0.142144  0  3.972178  0
C  C54  1  0.56669273  0.29027912  0.33119069  1  -0.094868  0  -0.007513  -0.013846  0  3.956546  0
C  C55  1  0.43329809  0.70971802  0.66879639  1  -0.09481  0  -0.007458  -0.013843  0  3.956811  0
C  C56  1  0.49795993  0.61491425  0.35482095  1  1.598759  0  0.23143  0.657378  0  4.133946  0
C  C57  1  0.50203903  0.38508943  0.64517739  1  1.597601  0  0.231379  0.657225  0  4.134234  0
C  C58  1  0.37164897  0.68651953  0.23906247  1  0.00394  0  -0.082274  -0.139581  0  3.959115  0
C  C59  1  0.62832773  0.31347068  0.76093482  1  0.003708  0  -0.082333  -0.139631  0  3.95922  0
C  C60  1  0.43125259  0.20694038  0.28082809  1  0.000122  0  -0.076458  -0.133222  0  3.92916  0
C  C61  1  0.56872372  0.79304545  0.71914976  1  -2.6e-05  0  -0.076503  -0.133402  0  3.929482  0
C  C62  1  0.68654143  0.28982675  0.30550695  1  -0.030181  0  -0.082894  -0.143047  0  3.954183  0
C  C63  1  0.31344077  0.71016646  0.69447715  1  -0.030735  0  -0.082942  -0.142854  0  3.954052  0
C  C64  1  0.66697812  0.20774655  0.23147579  1  0.472344  0  0.0325  0.071315  0  3.9287  0
C  C65  1  0.33300539  0.79224403  0.76850836  1  0.472245  0  0.032621  0.071327  0  3.928566  0
C  C66  1  0.62446451  0.85843179  0.18600026  1  0.428346  0  0.034529  0.077613  0  3.933451  0
C  C67  1  0.37552040  0.14157491  0.81399757  1  0.429068  0  0.034367  0.077093  0  3.934007  0
C  C68  1  0.42063132  0.12710600  0.20839579  1  0.44264  0  0.037008  0.082544  0  3.921726  0
C  C69  1  0.57935324  0.87288818  0.79159131  1  0.442744  0  0.036968  0.082455  0  3.921251  0
C  C70  1  0.17136343  0.09837632  0.52406357  1  1.378025  0  0.181852  0.320359  0  4.124479  0
C  C71  1  0.82865950  0.90162562  0.47594036  1  1.377692  0  0.181984  0.320569  0  4.124088  0
C  C72  1  0.09519139  0.34059276  0.63115093  1  1.391032  0  0.180719  0.324394  0  4.110439  0
C  C73  1  0.90480931  0.65940915  0.36885441  1  1.390646  0  0.180817  0.324529  0  4.11036  0
C  C74  1  0.37774031  0.76819076  0.17563015  1  0.47581  0  0.033554  0.075509  0  3.939248  0
C  C75  1  0.62224031  0.23180495  0.82437318  1  0.476288  0  0.03347  0.075345  0  3.939629  0
C  C76  1  0.01315469  0.41613850  0.75158212  1  0.259138  0  -0.125761  -0.28092  0  3.889064  0
C  C77  1  0.98685326  0.58386819  0.24842471  1  0.259095  0  -0.125755  -0.281053  0  3.889454  0
C  C78  1  0.15913317  0.93279526  0.61129214  1  0.271343  0  -0.132909  -0.290703  0  3.900433  0
C  C79  1  0.84088081  0.06719731  0.38871622  1  0.269717  0  -0.132911  -0.29052  0  3.900472  0
C  C80  1  0.87628749  0.34633145  0.58986072  1  0.232608  0  -0.132579  -0.273679  0  3.851605  0
C  C81  1  0.12372782  0.65368996  0.41013548  1  0.225993  0  -0.132523  -0.273188  0  3.851571  0
C  C82  1  0.31266921  0.00765057  0.48685483  1  0.283705  0  -0.126611  -0.261376  0  3.873172  0
C  C83  1  0.68739927  0.99236562  0.51317848  1  0.289803  0  -0.126451  -0.260998  0  3.872689  0
I  I84  1  0.74929715  0.09415735  0.01146955  1  -0.501497  0  -0.276348  -0.446856  0  1.615613  0
I  I85  1  0.25068941  0.90584049  0.98852060  1  -0.501588  0  -0.276338  -0.4468  0  1.615553  0
N  N86  1  0.50235492  0.85539354  0.15058699  1  -1.193067  0  -0.357896  -0.173876  0  3.627918  0
N  N87  1  0.49762883  0.14460596  0.84940571  1  -1.19368  0  -0.357788  -0.173561  0  3.628108  0
N  N88  1  0.53598069  0.12626490  0.18354755  1  -1.207826  0  -0.356329  -0.1747  0  3.633136  0
N  N89  1  0.46400194  0.87372743  0.81643726  1  -1.207416  0  -0.356438  -0.174777  0  3.633079  0
N  N90  1  0.99788867  0.36507147  0.65668555  1  -1.231776  0  -0.272506  0.043051  0  3.708158  0
N  N91  1  0.00211359  0.63493321  0.34331726  1  -1.231344  0  -0.272608  0.04296  0  3.708241  0
N  N92  1  0.08953979  0.32676469  0.29736063  1  0.828529  0  0.074453  0.72165  0  4.426576  0
N  N93  1  0.91044545  0.67322940  0.70264583  1  0.82877  0  0.074389  0.721714  0  4.426779  0
N  N94  1  0.21239681  0.01658774  0.54007745  1  -1.212231  0  -0.275977  0.03867  0  3.708444  0
N  N95  1  0.78762487  0.98340872  0.45993242  1  -1.212487  0  -0.276105  0.038262  0  3.708776  0
O  O96  1  0.37701482  0.53695812  0.37556283  1  -1.18734  0  -0.395863  -0.66282  0  2.353596  0
O  O97  1  0.62297888  0.46302924  0.62442699  1  -1.186982  0  -0.395759  -0.662677  0  2.353775  0
O  O98  1  0.46788026  0.37348784  0.42793075  1  -1.202807  0  -0.425324  -0.712405  0  2.456594  0
O  O99  1  0.53212897  0.62652258  0.57206252  1  -1.202291  0  -0.425332  -0.712438  0  2.456729  0
O  O100  1  0.70697488  0.46079268  0.44727476  1  -1.188148  0  -0.387089  -0.639609  0  2.274998  0
O  O101  1  0.29301812  0.53921172  0.55271272  1  -1.188479  0  -0.38707  -0.639646  0  2.274896  0
O  O102  1  0.61991884  0.63475790  0.39320299  1  -1.198005  0  -0.40853  -0.689717  0  2.368635  0
O  O103  1  0.38007677  0.36524474  0.60679639  1  -1.19743  0  -0.408629  -0.689768  0  2.368654  0
O  O104  1  0.20706850  0.16790285  0.46037395  1  -1.185881  0  -0.374448  -0.559082  0  2.405921  0
O  O105  1  0.79295542  0.83208924  0.53963255  1  -1.185745  0  -0.374619  -0.559245  0  2.405755  0
O  O106  1  0.08661361  0.29231608  0.55168437  1  -1.187584  0  -0.378911  -0.574464  0  2.411048  0
O  O107  1  0.91338906  0.70768772  0.44831983  1  -1.187686  0  -0.378974  -0.574535  0  2.41116  0
O  O108  1  0.07645057  0.37186367  0.37479909  1  -0.604968  0  -0.263507  -0.553595  0  2.033928  0
O  O109  1  0.92354374  0.62814338  0.62520374  1  -0.604703  0  -0.263604  -0.553693  0  2.034081  0
O  O110  1  0.17938689  0.28918654  0.30525266  1  -0.571366  0  -0.248294  -0.516893  0  2.012222  0
O  O111  1  0.82057769  0.71078873  0.69475758  1  -0.571732  0  -0.248136  -0.516818  0  2.012248  0
O  O112  1  0.01995983  0.32093590  0.22231680  1  -0.463867  0  -0.143787  -0.360088  0  1.940823  0
O  O113  1  0.98003619  0.67906585  0.77768397  1  -0.463923  0  -0.143742  -0.360122  0  1.940903  0
