# generated using pymatgen
data_MgH7C11O3
_symmetry_space_group_name_H-M   'P 1'
_cell_length_a   6.77202713
_cell_length_b   28.00055643
_cell_length_c   28.00650829
_cell_angle_alpha   119.37982502
_cell_angle_beta   94.61325873
_cell_angle_gamma   94.62695376
_symmetry_Int_Tables_number   1
_chemical_formula_structural   MgH7C11O3
_chemical_formula_sum   'Mg6 H42 C66 O18'
_cell_volume   4568.27314399
_cell_formula_units_Z   6
loop_
 _symmetry_equiv_pos_site_id
 _symmetry_equiv_pos_as_xyz
  1  'x, y, z'
loop_
 _atom_site_type_symbol
 _atom_site_label
 _atom_site_symmetry_multiplicity
 _atom_site_fract_x
 _atom_site_fract_y
 _atom_site_fract_z
 _atom_site_occupancy
 _atom_site_pbe_bader_charge
 _atom_site_pbe_bader_spin_density
 _atom_site_pbe_cm5_charge
 _atom_site_pbe_ddec_charge
 _atom_site_pbe_ddec_spin_density
 _atom_site_pbe_ddec_sum_bond_order
 _atom_site_pbe_magmom
Mg  Mg0  1  0.27970263  0.62396545  0.32146159  1  1.685387  0  0.897918  1.409109  0  1.318819  0
Mg  Mg1  1  0.43273750  0.37420270  0.67269770  1  1.684657  0  0.896496  1.408235  0  1.319042  0
Mg  Mg2  1  0.95814654  0.67839466  0.30252015  1  1.685697  0  0.898155  1.409837  0  1.319095  0
Mg  Mg3  1  0.76011188  0.32740670  0.70148344  1  1.685027  0  0.896047  1.407504  0  1.319643  0
Mg  Mg4  1  0.65565013  0.69738561  0.37592289  1  1.685058  0  0.89808  1.410127  0  1.317803  0
Mg  Mg5  1  0.05866898  0.29854334  0.62586381  1  1.683808  0  0.896125  1.40787  0  1.319073  0
H  H6  1  0.92742571  0.56070810  0.15923583  1  0.085653  0  0.105838  0.125202  0  1.036772  0
H  H7  1  0.05744264  0.44629360  0.87330713  1  0.069204  0  0.090636  0.130921  0  1.038035  0
H  H8  1  0.17260261  0.35813028  0.84668695  1  0.088831  0  0.108457  0.111744  0  0.987822  0
H  H9  1  0.42790778  0.40479652  0.92879684  1  0.053713  0  0.100281  0.104431  0  1.015191  0
H  H10  1  0.67631519  0.50879146  0.11094726  1  0.007898  0  0.09365  0.128886  0  0.985678  0
H  H11  1  0.51140137  0.47869188  0.99034466  1  0.05343  0  0.096081  0.096124  0  1.041847  0
H  H12  1  0.21667680  0.54806929  0.01099497  1  0.024742  0  0.096183  0.096407  0  1.038532  0
H  H13  1  0.03902673  0.51471698  0.88783015  1  0.033196  0  0.093464  0.128788  0  0.986333  0
H  H14  1  0.23996853  0.50144286  0.92215300  1  0.053437  0  0.089598  0.127926  0  1.008623  0
H  H15  1  0.79850596  0.45471419  0.83750153  1  0.085248  0  0.105391  0.124491  0  1.03674  0
H  H16  1  0.67605061  0.57878887  0.12874232  1  0.053659  0  0.090964  0.130107  0  1.038599  0
H  H17  1  0.48627796  0.52717864  0.07849564  1  0.036986  0  0.088884  0.127587  0  1.014049  0
H  H18  1  0.30435147  0.62261261  0.07821543  1  0.042048  0  0.100326  0.105016  0  1.011115  0
H  H19  1  0.55417658  0.66510720  0.16177218  1  0.089544  0  0.107881  0.110794  0  0.987805  0
H  H20  1  0.76835771  0.84069410  0.40136775  1  0.085414  0  0.10611  0.12571  0  1.036024  0
H  H21  1  0.18406128  0.12670828  0.57300784  1  0.053139  0  0.090931  0.130576  0  1.038128  0
H  H22  1  0.32628563  0.15331032  0.51139502  1  0.094845  0  0.108347  0.11191  0  0.987699  0
H  H23  1  0.49933754  0.07116285  0.47599511  1  0.047705  0  0.100119  0.104492  0  1.01518  0
H  H24  1  0.56539772  0.88894502  0.39779275  1  0.042411  0  0.093455  0.128679  0  0.98615  0
H  H25  1  0.52098085  0.00963383  0.48832597  1  0.05133  0  0.095981  0.09624  0  1.041351  0
H  H26  1  0.20563634  0.98899512  0.53699839  1  0.025013  0  0.095855  0.096031  0  1.03891  0
H  H27  1  0.15116608  0.11221964  0.62691316  1  0.06779  0  0.093791  0.129155  0  0.985838  0
H  H28  1  0.31776409  0.07787013  0.57928974  1  0.0362  0  0.089601  0.127899  0  1.009171  0
H  H29  1  0.96105254  0.16251810  0.61724013  1  0.081471  0  0.105239  0.124657  0  1.035804  0
H  H30  1  0.54751326  0.87119079  0.44999753  1  0.046938  0  0.090934  0.130169  0  1.038727  0
H  H31  1  0.40772872  0.92140058  0.44864791  1  0.039037  0  0.088997  0.128118  0  1.014321  0
H  H32  1  0.22613204  0.92187252  0.54437210  1  0.054815  0  0.100756  0.105723  0  1.011101  0
H  H33  1  0.39234361  0.83829710  0.50335486  1  0.089823  0  0.107793  0.110512  0  0.987556  0
H  H34  1  0.36712630  0.59863721  0.43939489  1  0.081527  0  0.10594  0.125337  0  1.03603  0
H  H35  1  0.61135690  0.42703061  0.55366589  1  0.074624  0  0.090905  0.130729  0  1.038471  0
H  H36  1  0.81483689  0.48865426  0.64189084  1  0.096925  0  0.108341  0.111722  0  0.988262  0
H  H37  1  0.02357736  0.52406512  0.59525305  1  0.058166  0  0.100368  0.104736  0  1.014878  0
H  H38  1  0.16749212  0.60222549  0.49124358  1  0.011213  0  0.093598  0.12876  0  0.985861  0
H  H39  1  0.03307022  0.51176684  0.52144924  1  0.045003  0  0.096396  0.096858  0  1.04051  0
H  H40  1  0.66888052  0.46302265  0.45197860  1  0.03809  0  0.096078  0.096412  0  1.038633  0
H  H41  1  0.52450668  0.37311029  0.48524611  1  0.042051  0  0.093881  0.129615  0  0.986058  0
H  H42  1  0.73880122  0.42071700  0.49853554  1  0.039604  0  0.089354  0.127968  0  1.008492  0
H  H43  1  0.34400124  0.38275803  0.54529440  1  0.083297  0  0.105624  0.124862  0  1.035845  0
H  H44  1  0.09752181  0.54996211  0.42127818  1  0.051498  0  0.090705  0.129534  0  1.039313  0
H  H45  1  0.95911191  0.55134011  0.47284968  1  0.03424  0  0.089068  0.127225  0  1.013828  0
H  H46  1  0.68148288  0.45551931  0.37739546  1  0.040558  0  0.100116  0.10444  0  1.011875  0
H  H47  1  0.88899731  0.49651638  0.33488637  1  0.101865  0  0.10819  0.110815  0  0.98789  0
C  C48  1  0.34307580  0.37699192  0.79529835  1  -0.001604  0  -0.043551  -0.216042  0  3.97708  0
C  C49  1  0.31398824  0.37881415  0.84542272  1  -0.114965  0  -0.086138  -0.065559  0  4.050544  0
C  C50  1  0.45561261  0.40641772  0.89186375  1  0.014555  0  -0.106795  -0.174289  0  4.011391  0
C  C51  1  0.17235091  0.35622022  0.75128712  1  1.480736  0  0.235263  0.674465  0  4.12694  0
C  C52  1  0.18729159  0.61520881  0.20861600  1  0.573347  0  0.092647  0.366768  0  4.095629  0
C  C53  1  0.05918452  0.58460002  0.15811669  1  -0.003029  0  -0.107569  -0.264807  0  3.914143  0
C  C54  1  0.09859933  0.58389974  0.10946343  1  -0.046003  0  0.001074  0.113756  0  3.989825  0
C  C55  1  0.97158906  0.54800519  0.05536848  1  -0.029733  0  -0.01078  0.006404  0  3.95296  0
C  C56  1  0.76771274  0.52634557  0.04826330  1  -0.031291  0  -0.00972  0.131331  0  3.950415  0
C  C57  1  0.66976843  0.49281485  0.99440854  1  -0.014877  0  -0.097033  -0.196726  0  3.982617  0
C  C58  1  0.75770851  0.47688454  0.94581917  1  -0.024774  0  -0.010692  0.007613  0  3.948968  0
C  C59  1  0.96082341  0.49927450  0.95284244  1  0.048877  0  -0.008693  0.131713  0  3.941937  0
C  C60  1  0.05884211  0.53315884  0.00679693  1  -0.060807  0  -0.097762  -0.198063  0  3.972845  0
C  C61  1  0.07969928  0.48960282  0.90652074  1  -0.108121  0  -0.240869  -0.410739  0  3.969456  0
C  C62  1  0.63004376  0.43860561  0.89236152  1  0.00337  0  0.00146  0.114258  0  3.982143  0
C  C63  1  0.66656220  0.43295270  0.84140555  1  -0.063024  0  -0.107145  -0.264727  0  3.907938  0
C  C64  1  0.53517388  0.39937217  0.79182293  1  0.566288  0  0.092833  0.366944  0  4.090115  0
C  C65  1  0.64634651  0.53617633  0.09415340  1  -0.038655  0  -0.24193  -0.411694  0  3.971883  0
C  C66  1  0.27346460  0.61791046  0.11334530  1  0.046776  0  -0.106192  -0.174216  0  4.009325  0
C  C67  1  0.41213472  0.64297387  0.16062755  1  -0.132622  0  -0.084579  -0.065388  0  4.045072  0
C  C68  1  0.37978866  0.63987821  0.20823306  1  -0.023362  0  -0.043105  -0.212141  0  3.970788  0
C  C69  1  0.54746795  0.65700566  0.25255744  1  1.499871  0  0.234823  0.672673  0  4.126144  0
C  C70  1  0.54808960  0.20474902  0.58166228  1  0.023861  0  -0.043627  -0.214403  0  3.97769  0
C  C71  1  0.46889565  0.15459709  0.53335949  1  -0.107539  0  -0.086399  -0.066428  0  4.052713  0
C  C72  1  0.56398019  0.10813365  0.51453673  1  0.020668  0  -0.106996  -0.174639  0  4.013421  0
C  C73  1  0.42128509  0.24876690  0.60489634  1  1.48177  0  0.235073  0.673681  0  4.128487  0
C  C74  1  0.97861692  0.79132199  0.40659618  1  0.548884  0  0.09254  0.366292  0  4.09619  0
C  C75  1  0.90114147  0.84184315  0.42642328  1  0.018728  0  -0.107668  -0.264819  0  3.911733  0
C  C76  1  0.98918560  0.89054215  0.47438190  1  -0.048498  0  -0.000112  0.112461  0  3.990089  0
C  C77  1  0.91621068  0.94462542  0.49257750  1  0.004476  0  -0.009387  0.008341  0  3.952508  0
C  C78  1  0.71938509  0.95170409  0.47803356  1  -0.074134  0  -0.010032  0.131328  0  3.948609  0
C  C79  1  0.67529522  0.00556761  0.49837265  1  0.001576  0  -0.097241  -0.197248  0  3.979803  0
C  C80  1  0.81187082  0.05416774  0.53106040  1  -0.003723  0  -0.010359  0.007738  0  3.946551  0
C  C81  1  0.00792936  0.04715894  0.54642349  1  0.055206  0  -0.008772  0.131922  0  3.942903  0
C  C82  1  0.05201142  0.99319697  0.52632092  1  -0.132967  0  -0.098081  -0.198684  0  3.973488  0
C  C83  1  0.17310579  0.09350553  0.58309538  1  -0.086322  0  -0.240899  -0.41016  0  3.969966  0
C  C84  1  0.73775606  0.10764273  0.54625125  1  -0.047215  0  0.002073  0.114542  0  3.980852  0
C  C85  1  0.82525293  0.15861392  0.59156988  1  0.007327  0  -0.107876  -0.265726  0  3.906856  0
C  C86  1  0.74356698  0.20821551  0.60754659  1  0.546679  0  0.09341  0.366892  0  4.092372  0
C  C87  1  0.55223454  0.90576974  0.44197929  1  -0.069377  0  -0.241614  -0.412159  0  3.972881  0
C  C88  1  0.16012605  0.88670280  0.50453911  1  -0.014843  0  -0.106606  -0.176181  0  4.010692  0
C  C89  1  0.25147235  0.83940097  0.48235284  1  -0.037074  0  -0.084566  -0.063542  0  4.043948  0
C  C90  1  0.17145624  0.79173479  0.43168214  1  -0.076083  0  -0.042377  -0.211448  0  3.97083  0
C  C91  1  0.29473664  0.74738036  0.40447359  1  1.507928  0  0.233874  0.671303  0  4.128619  0
C  C92  1  0.96634117  0.41836619  0.62305662  1  0.015016  0  -0.043462  -0.214429  0  3.977376  0
C  C93  1  0.93556401  0.46668178  0.62123294  1  -0.087987  0  -0.086188  -0.065831  0  4.05287  0
C  C94  1  0.04965056  0.48550680  0.59363999  1  -0.02033  0  -0.106688  -0.17432  0  4.012968  0
C  C95  1  0.81631111  0.39514279  0.64383198  1  1.49548  0  0.23455  0.67326  0  4.129272  0
C  C96  1  0.57211097  0.59333621  0.38473888  1  0.577181  0  0.092893  0.367656  0  4.095625  0
C  C97  1  0.47473866  0.57353810  0.41542895  1  -0.011303  0  -0.107795  -0.265179  0  3.913369  0
C  C98  1  0.51474930  0.52556699  0.41612970  1  -0.040268  0  0.001286  0.113085  0  3.988599  0
C  C99  1  0.42373296  0.50741402  0.45205945  1  -0.035249  0  -0.010372  0.008891  0  3.952245  0
C  C100  1  0.24152649  0.52198294  0.47373964  1  -0.045124  0  -0.009629  0.131642  0  3.948435  0
C  C101  1  0.17726287  0.50168021  0.50729008  1  -0.036758  0  -0.097963  -0.198495  0  3.981348  0
C  C102  1  0.28116661  0.46899035  0.52316703  1  -0.030893  0  -0.010161  0.00715  0  3.948844  0
C  C103  1  0.46182484  0.45361774  0.50075197  1  -0.01343  0  -0.00807  0.133656  0  3.94363  0
C  C104  1  0.52592636  0.47370069  0.46688707  1  0.008541  0  -0.09855  -0.199987  0  3.973513  0
C  C105  1  0.59033853  0.41693453  0.51037308  1  -0.096236  0  -0.241062  -0.411743  0  3.971445  0
C  C106  1  0.19177900  0.45378434  0.56142561  1  -0.043178  0  0.001352  0.114085  0  3.98088  0
C  C107  1  0.23381921  0.40845105  0.56705306  1  0.000617  0  -0.107729  -0.265167  0  3.905899  0
C  C108  1  0.13602944  0.39249049  0.60067019  1  0.537884  0  0.092661  0.365557  0  4.092631  0
C  C109  1  0.11028116  0.55801315  0.46388260  1  -0.034344  0  -0.24187  -0.410829  0  3.971566  0
C  C110  1  0.65545614  0.49537077  0.38210102  1  -0.006597  0  -0.105936  -0.17374  0  4.009581  0
C  C111  1  0.76911811  0.51754189  0.35701527  1  -0.083397  0  -0.08516  -0.064849  0  4.045127  0
C  C112  1  0.73987954  0.56823128  0.36006451  1  -0.029291  0  -0.042733  -0.21322  0  3.971375  0
C  C113  1  0.89043904  0.59539122  0.34289331  1  1.497134  0  0.234538  0.673635  0  4.12339  0
O  O114  1  0.12144669  0.61869116  0.25415628  1  -1.309325  0  -0.451147  -0.7821  0  2.29964  0
O  O115  1  0.99664429  0.34508403  0.75968363  1  -1.232035  0  -0.354458  -0.638588  0  2.132141  0
O  O116  1  0.20123155  0.35193425  0.70408242  1  -1.302277  0  -0.407227  -0.782397  0  2.403194  0
O  O117  1  0.72547110  0.66956129  0.24660045  1  -1.236118  0  -0.353515  -0.63852  0  2.124073  0
O  O118  1  0.51209408  0.65600793  0.29700360  1  -1.302575  0  -0.404685  -0.778873  0  2.407663  0
O  O119  1  0.59782089  0.39074025  0.74416737  1  -1.305695  0  -0.446601  -0.776993  0  2.285787  0
O  O120  1  0.86718953  0.74573737  0.36458032  1  -1.310197  0  -0.45054  -0.78164  0  2.300777  0
O  O121  1  0.23724161  0.24036466  0.58532105  1  -1.230107  0  -0.354152  -0.638563  0  2.131806  0
O  O122  1  0.49723561  0.29598386  0.64785211  1  -1.317853  0  -0.407117  -0.78231  0  2.405059  0
O  O123  1  0.47870994  0.75334105  0.42295984  1  -1.240474  0  -0.353929  -0.638951  0  2.124747  0
O  O124  1  0.21488638  0.70289205  0.35903535  1  -1.299243  0  -0.404265  -0.778429  0  2.408803  0
O  O125  1  0.85391338  0.25589972  0.64656165  1  -1.309652  0  -0.446658  -0.776853  0  2.288116  0
O  O126  1  0.50269964  0.63535627  0.38118952  1  -1.306715  0  -0.450851  -0.78206  0  2.298877  0
O  O127  1  0.65177945  0.41469470  0.65498918  1  -1.235204  0  -0.353802  -0.638211  0  2.132594  0
O  O128  1  0.84937869  0.35219986  0.64809088  1  -1.300778  0  -0.40708  -0.782157  0  2.404483  0
O  O129  1  0.05589568  0.57686969  0.33034843  1  -1.23532  0  -0.35363  -0.638412  0  2.12203  0
O  O130  1  0.85599713  0.64082058  0.34384809  1  -1.299893  0  -0.404721  -0.780086  0  2.407197  0
O  O131  1  0.20735352  0.35350304  0.60936069  1  -1.306104  0  -0.446365  -0.776271  0  2.287684  0
