# generated using pymatgen
data_CdH16C16(N5O)2
_symmetry_space_group_name_H-M   'P 1'
_cell_length_a   7.41529866
_cell_length_b   9.83090250
_cell_length_c   12.44783147
_cell_angle_alpha   100.68967601
_cell_angle_beta   89.99978024
_cell_angle_gamma   90.00035106
_symmetry_Int_Tables_number   1
_chemical_formula_structural   CdH16C16(N5O)2
_chemical_formula_sum   'Cd2 H32 C32 N20 O4'
_cell_volume   891.68801757
_cell_formula_units_Z   2
loop_
 _symmetry_equiv_pos_site_id
 _symmetry_equiv_pos_as_xyz
  1  'x, y, z'
loop_
 _atom_site_type_symbol
 _atom_site_label
 _atom_site_symmetry_multiplicity
 _atom_site_fract_x
 _atom_site_fract_y
 _atom_site_fract_z
 _atom_site_occupancy
 _atom_site_hle17_bader_spin_density
 _atom_site_hle17_ddec_charge
 _atom_site_hle17_ddec_spin_density
 _atom_site_hle17_ddec_sum_bond_order
 _atom_site_hle17_magmom
 _atom_site_hse06_10hf_bader_spin_density
 _atom_site_hse06_10hf_ddec_charge
 _atom_site_hse06_10hf_ddec_spin_density
 _atom_site_hse06_10hf_ddec_sum_bond_order
 _atom_site_hse06_10hf_magmom
 _atom_site_hse06_bader_spin_density
 _atom_site_hse06_ddec_charge
 _atom_site_hse06_ddec_spin_density
 _atom_site_hse06_ddec_sum_bond_order
 _atom_site_hse06_magmom
 _atom_site_pbe_bader_spin_density
 _atom_site_pbe_cm5_charge
 _atom_site_pbe_ddec_charge
 _atom_site_pbe_ddec_spin_density
 _atom_site_pbe_ddec_sum_bond_order
 _atom_site_pbe_magmom
Cd  Cd0  1  0.99999450  0.00000044  0.50000206  1  0  1.048907  0  1.938546  0  0  0.860341  0  2.430899  0  0  0.908065  0  2.386428  0  0  0.818963  0.825576  0  2.463142  0
Cd  Cd1  1  0.49999917  0.49999670  0.49999690  1  0  1.048931  0  1.938642  0  0  0.860377  0  2.431007  0  0  0.908103  0  2.386534  0  0  0.818978  0.82565  0  2.463229  0
H  H2  1  0.40897805  0.92074638  0.56772519  1  0  0.076109  0  0.950567  0  0  0.082944  0  1.018673  0  0  0.084663  0  1.017839  0  0  0.114836  0.081651  0  1.019331  0
H  H3  1  0.90898392  0.57925840  0.43227041  1  0  0.076135  0  0.950518  0  0  0.082964  0  1.018641  0  0  0.084655  0  1.017835  0  0  0.114832  0.08167  0  1.019294  0
H  H4  1  0.59101894  0.07926666  0.43227478  1  0  0.076049  0  0.950518  0  0  0.082888  0  1.018641  0  0  0.084588  0  1.017826  0  0  0.114806  0.081599  0  1.019285  0
H  H5  1  0.09102521  0.42073187  0.56772693  1  0  0.076066  0  0.950546  0  0  0.082898  0  1.018678  0  0  0.084597  0  1.017865  0  0  0.114824  0.081618  0  1.019312  0
H  H6  1  0.63111585  0.98073020  0.72047766  1  0  0.107076  0  0.958382  0  0  0.118199  0  1.015982  0  0  0.120717  0  1.016369  0  0  0.109906  0.116071  0  1.016535  0
H  H7  1  0.13111395  0.51927033  0.27951632  1  0  0.107114  0  0.958355  0  0  0.118229  0  1.015963  0  0  0.120741  0  1.016366  0  0  0.109915  0.116109  0  1.01651  0
H  H8  1  0.36889328  0.01927979  0.27951461  1  0  0.107137  0  0.958339  0  0  0.118258  0  1.015939  0  0  0.120772  0  1.016334  0  0  0.109912  0.116141  0  1.016477  0
H  H9  1  0.86889518  0.48071784  0.72048472  1  0  0.107148  0  0.95833  0  0  0.118266  0  1.015933  0  0  0.120784  0  1.016316  0  0  0.109921  0.116148  0  1.016474  0
H  H10  1  0.55866721  0.17639667  0.87539602  1  0  0.10798  0  0.953212  0  0  0.119229  0  1.012398  0  0  0.122709  0  1.00949  0  0  0.113219  0.116615  0  1.014682  0
H  H11  1  0.05866613  0.32360175  0.12460172  1  0  0.107988  0  0.953244  0  0  0.119271  0  1.012385  0  0  0.122752  0  1.009476  0  0  0.11323  0.11666  0  1.01467  0
H  H12  1  0.44133787  0.82361018  0.12459980  1  0  0.107976  0  0.953153  0  0  0.119211  0  1.01237  0  0  0.122692  0  1.009467  0  0  0.113205  0.116601  0  1.014649  0
H  H13  1  0.94133625  0.67639264  0.87539785  1  0  0.107955  0  0.953158  0  0  0.119201  0  1.012372  0  0  0.122679  0  1.009473  0  0  0.113216  0.116592  0  1.01465  0
H  H14  1  0.06191254  0.23303681  0.70889774  1  0  0.076607  0  0.986759  0  0  0.080325  0  1.061397  0  0  0.08311  0  1.058972  0  0  0.111283  0.07813  0  1.063571  0
H  H15  1  0.56191953  0.26696469  0.29110529  1  0  0.076619  0  0.986776  0  0  0.080284  0  1.061451  0  0  0.083065  0  1.059033  0  0  0.111293  0.078096  0  1.063627  0
H  H16  1  0.93807232  0.76695752  0.29111066  1  0  0.076633  0  0.986743  0  0  0.080318  0  1.061388  0  0  0.083103  0  1.058964  0  0  0.111311  0.078125  0  1.063562  0
H  H17  1  0.43807881  0.73304319  0.70889069  1  0  0.076611  0  0.986702  0  0  0.080318  0  1.061352  0  0  0.083101  0  1.05893  0  0  0.111303  0.07813  0  1.063525  0
H  H18  1  0.18508682  0.50879417  0.06308996  1  0  0.095449  0  0.948663  0  0  0.108055  0  1.01273  0  0  0.109622  0  1.011425  0  0  0.113613  0.106842  0  1.013756  0
H  H19  1  0.68509143  0.99120654  0.93690875  1  0  0.095452  0  0.948691  0  0  0.108072  0  1.012726  0  0  0.109652  0  1.011407  0  0  0.113609  0.106864  0  1.013745  0
H  H20  1  0.81490478  0.49120849  0.93691166  1  0  0.095454  0  0.948748  0  0  0.107999  0  1.012831  0  0  0.109595  0  1.011492  0  0  0.113594  0.106799  0  1.013853  0
H  H21  1  0.31490556  0.00879511  0.06308950  1  0  0.095452  0  0.948707  0  0  0.108048  0  1.012774  0  0  0.109626  0  1.011455  0  0  0.113599  0.10684  0  1.013802  0
H  H22  1  0.55455119  0.40072995  0.80668760  1  0  0.080941  0  0.979178  0  0  0.094642  0  1.045269  0  0  0.094526  0  1.046699  0  0  0.106651  0.0947  0  1.044251  0
H  H23  1  0.05455321  0.09926947  0.19331192  1  0  0.080966  0  0.979183  0  0  0.094644  0  1.045263  0  0  0.094529  0  1.046693  0  0  0.106647  0.094694  0  1.044248  0
H  H24  1  0.44544580  0.59927378  0.19331016  1  0  0.080961  0  0.979232  0  0  0.094641  0  1.045322  0  0  0.094525  0  1.04675  0  0  0.106654  0.094697  0  1.044302  0
H  H25  1  0.94544782  0.90072802  0.80668892  1  0  0.080896  0  0.979193  0  0  0.094622  0  1.045265  0  0  0.094505  0  1.046694  0  0  0.106639  0.094674  0  1.044249  0
H  H26  1  0.52629258  0.57759291  0.86775576  1  0  0.080587  0  0.93072  0  0  0.094324  0  0.996062  0  0  0.095321  0  0.995402  0  0  0.106775  0.093513  0  0.996704  0
H  H27  1  0.02628957  0.92240818  0.13224417  1  0  0.080597  0  0.930762  0  0  0.094313  0  0.996087  0  0  0.095311  0  0.995429  0  0  0.10677  0.093499  0  0.996729  0
H  H28  1  0.47370172  0.42241181  0.13224858  1  0  0.080573  0  0.930656  0  0  0.0943  0  0.995981  0  0  0.095297  0  0.995319  0  0  0.106764  0.09349  0  0.996625  0
H  H29  1  0.97371147  0.07758934  0.86775346  1  0  0.080607  0  0.930665  0  0  0.094359  0  0.995992  0  0  0.095354  0  0.995334  0  0  0.106798  0.093544  0  0.996634  0
H  H30  1  0.30593363  0.64270183  0.01699611  1  0  0.077581  0  0.951145  0  0  0.092635  0  1.014718  0  0  0.093112  0  1.014554  0  0  0.106318  0.092205  0  1.014967  0
H  H31  1  0.80593145  0.85729731  0.98300369  1  0  0.077592  0  0.951152  0  0  0.092638  0  1.014728  0  0  0.093113  0  1.014567  0  0  0.106307  0.092206  0  1.014979  0
H  H32  1  0.69406471  0.35729982  0.98300374  1  0  0.077607  0  0.951171  0  0  0.092656  0  1.01469  0  0  0.093131  0  1.014531  0  0  0.106328  0.092235  0  1.014945  0
H  H33  1  0.19406689  0.14269812  0.01699523  1  0  0.077566  0  0.951202  0  0  0.092648  0  1.014723  0  0  0.093123  0  1.014561  0  0  0.106338  0.092223  0  1.014981  0
C  C34  1  0.38433986  0.00653591  0.63527370  1  0  0.125236  0  3.696371  0  0  0.091695  0  3.952804  0  0  0.099035  0  3.971864  0  0  0.044983  0.086673  0  3.940417  0
C  C35  1  0.88434149  0.49346594  0.36472382  1  0  0.125223  0  3.696348  0  0  0.091687  0  3.952775  0  0  0.099049  0  3.971839  0  0  0.045015  0.086675  0  3.940389  0
C  C36  1  0.61566388  0.99347195  0.36472629  1  0  0.125246  0  3.696326  0  0  0.091691  0  3.952786  0  0  0.099046  0  3.971849  0  0  0.044961  0.086669  0  3.940406  0
C  C37  1  0.11566494  0.50652743  0.63527398  1  0  0.125256  0  3.696429  0  0  0.091698  0  3.952871  0  0  0.099053  0  3.971935  0  0  0.044988  0.086677  0  3.9405  0
C  C38  1  0.50679870  0.03976583  0.72090811  1  0  -0.104345  0  3.720335  0  0  -0.117109  0  3.976028  0  0  -0.124414  0  3.997157  0  0  -0.081007  -0.112549  0  3.962919  0
C  C39  1  0.00680179  0.46023754  0.27909130  1  0  -0.104422  0  3.720349  0  0  -0.117179  0  3.976043  0  0  -0.124483  0  3.997159  0  0  -0.08107  -0.112623  0  3.962944  0
C  C40  1  0.49320503  0.96024205  0.27908947  1  0  -0.104492  0  3.720403  0  0  -0.117241  0  3.976086  0  0  -0.124545  0  3.99721  0  0  -0.081008  -0.112689  0  3.962995  0
C  C41  1  0.99320734  0.53975787  0.72091002  1  0  -0.104514  0  3.720446  0  0  -0.117242  0  3.976127  0  0  -0.124545  0  3.997253  0  0  -0.081018  -0.112686  0  3.96303  0
C  C42  1  0.46865072  0.15035886  0.80534501  1  0  -0.012949  0  3.656337  0  0  -0.043322  0  3.905675  0  0  -0.037196  0  3.919823  0  0  -0.057341  -0.047329  0  3.896213  0
C  C43  1  0.96865363  0.34964541  0.19465348  1  0  -0.012946  0  3.65641  0  0  -0.043357  0  3.90573  0  0  -0.037231  0  3.91988  0  0  -0.057331  -0.047364  0  3.896268  0
C  C44  1  0.53135166  0.84964694  0.19465386  1  0  -0.012936  0  3.656412  0  0  -0.043286  0  3.905752  0  0  -0.037166  0  3.919905  0  0  -0.05732  -0.047291  0  3.896289  0
C  C45  1  0.03135550  0.65035105  0.80534800  1  0  -0.012804  0  3.656445  0  0  -0.043227  0  3.905799  0  0  -0.037104  0  3.919959  0  0  -0.057361  -0.047231  0  3.89633  0
C  C46  1  0.30881392  0.22476090  0.80116552  1  0  -0.077339  0  3.742407  0  0  -0.052978  0  3.982325  0  0  -0.062096  0  4.003008  0  0  -0.001925  -0.046941  0  3.968597  0
C  C47  1  0.80882023  0.27523751  0.19883407  1  0  -0.07738  0  3.742339  0  0  -0.052978  0  3.982271  0  0  -0.062102  0  4.002958  0  0  -0.001948  -0.046931  0  3.968526  0
C  C48  1  0.69118172  0.77523967  0.19884060  1  0  -0.077179  0  3.742324  0  0  -0.052912  0  3.982312  0  0  -0.062022  0  4.002976  0  0  -0.001964  -0.046867  0  3.96858  0
C  C49  1  0.19118350  0.72476312  0.80116242  1  0  -0.077437  0  3.742629  0  0  -0.053028  0  3.982497  0  0  -0.062153  0  4.003189  0  0  -0.001924  -0.046985  0  3.968758  0
C  C50  1  0.19155106  0.18211470  0.71358092  1  0  0.11504  0  3.680307  0  0  0.075464  0  3.928513  0  0  0.083426  0  3.945524  0  0  0.051604  0.070135  0  3.917263  0
C  C51  1  0.69155580  0.31788631  0.28642174  1  0  0.11504  0  3.680396  0  0  0.075501  0  3.92862  0  0  0.083467  0  3.94563  0  0  0.05161  0.070166  0  3.917377  0
C  C52  1  0.80843784  0.81788274  0.28642714  1  0  0.114926  0  3.680386  0  0  0.075445  0  3.92856  0  0  0.083403  0  3.945572  0  0  0.051613  0.07011  0  3.917312  0
C  C53  1  0.30844389  0.68212054  0.71357489  1  0  0.114974  0  3.680239  0  0  0.075401  0  3.928458  0  0  0.083363  0  3.945474  0  0  0.051543  0.070075  0  3.917208  0
C  C54  1  0.24597643  0.33629584  0.89252223  1  0  0.478986  0  3.850274  0  0  0.427006  0  4.14431  0  0  0.456631  0  4.145117  0  0  0.238786  0.406848  0  4.143492  0
C  C55  1  0.74598107  0.16370438  0.10747777  1  0  0.479107  0  3.850078  0  0  0.427017  0  4.144299  0  0  0.456644  0  4.145105  0  0  0.238799  0.406862  0  4.143473  0
C  C56  1  0.75402461  0.66370785  0.10748115  1  0  0.479054  0  3.850141  0  0  0.427113  0  4.14413  0  0  0.456746  0  4.144924  0  0  0.238803  0.406943  0  4.143325  0
C  C57  1  0.25402401  0.83629833  0.89251823  1  0  0.479027  0  3.850286  0  0  0.427073  0  4.144298  0  0  0.456702  0  4.145104  0  0  0.238792  0.406907  0  4.143482  0
C  C58  1  0.31608378  0.53712440  0.03349055  1  0  -0.021726  0  3.617038  0  0  -0.084158  0  3.874976  0  0  -0.07955  0  3.885049  0  0  -0.063731  -0.087117  0  3.868044  0
C  C59  1  0.81608392  0.96287581  0.96651020  1  0  -0.021843  0  3.617131  0  0  -0.084229  0  3.875047  0  0  -0.07963  0  3.885117  0  0  -0.063733  -0.087194  0  3.868119  0
C  C60  1  0.68391456  0.46288032  0.96651459  1  0  -0.02177  0  3.617322  0  0  -0.084022  0  3.87506  0  0  -0.079434  0  3.885128  0  0  -0.06367  -0.087023  0  3.868173  0
C  C61  1  0.18391442  0.03712171  0.03348662  1  0  -0.021741  0  3.617258  0  0  -0.084123  0  3.875113  0  0  -0.079522  0  3.885188  0  0  -0.063717  -0.08711  0  3.868211  0
C  C62  1  0.53237276  0.47141882  0.88452751  1  0  -0.027219  0  3.63348  0  0  -0.089582  0  3.893309  0  0  -0.086005  0  3.905929  0  0  -0.062499  -0.091747  0  3.884364  0
C  C63  1  0.03237470  0.02858155  0.11547219  1  0  -0.027304  0  3.633653  0  0  -0.089539  0  3.893365  0  0  -0.085965  0  3.905987  0  0  -0.062452  -0.091699  0  3.884406  0
C  C64  1  0.46763098  0.52858696  0.11547297  1  0  -0.027222  0  3.633666  0  0  -0.089432  0  3.893362  0  0  -0.085878  0  3.906031  0  0  -0.06244  -0.091606  0  3.884398  0
C  C65  1  0.96762903  0.97141594  0.88452945  1  0  -0.02714  0  3.633509  0  0  -0.089488  0  3.893387  0  0  -0.085914  0  3.906018  0  0  -0.062456  -0.09166  0  3.884418  0
N  N66  1  0.08930797  0.15241284  0.38626425  1  0  -0.520663  0  2.623148  0  0  -0.50418  0  2.911225  0  0  -0.521006  0  2.918696  0  0  -0.275053  -0.491694  0  2.905893  0
N  N67  1  0.58929464  0.34757331  0.61372836  1  0  -0.520734  0  2.622626  0  0  -0.504242  0  2.910669  0  0  -0.521075  0  2.918145  0  0  -0.274994  -0.491753  0  2.905335  0
N  N68  1  0.91067958  0.84758877  0.61374042  1  0  -0.520532  0  2.623077  0  0  -0.504023  0  2.911101  0  0  -0.520847  0  2.918569  0  0  -0.274946  -0.49154  0  2.905767  0
N  N69  1  0.41069695  0.65242215  0.38626655  1  0  -0.520677  0  2.622664  0  0  -0.504201  0  2.910689  0  0  -0.521032  0  2.918162  0  0  -0.274999  -0.491705  0  2.905346  0
N  N70  1  0.32329379  0.31823806  0.40170799  1  0  -0.513176  0  2.64581  0  0  -0.491431  0  2.932277  0  0  -0.508635  0  2.938726  0  0  -0.264386  -0.478957  0  2.928027  0
N  N71  1  0.82331290  0.18177702  0.59828764  1  0  -0.513019  0  2.646387  0  0  -0.4914  0  2.932851  0  0  -0.508603  0  2.939299  0  0  -0.264355  -0.478918  0  2.928598  0
N  N72  1  0.67670725  0.68174910  0.59828888  1  0  -0.513173  0  2.646019  0  0  -0.49144  0  2.932494  0  0  -0.50865  0  2.938944  0  0  -0.26439  -0.478964  0  2.928238  0
N  N73  1  0.17669218  0.81822976  0.40171941  1  0  -0.513057  0  2.646479  0  0  -0.491444  0  2.932912  0  0  -0.508645  0  2.939358  0  0  -0.264374  -0.478972  0  2.928664  0
N  N74  1  0.20695964  0.23553768  0.39770873  1  0  0.406033  0  4.280506  0  0  0.438623  0  4.562361  0  0  0.455648  0  4.591441  0  0  0.078745  0.427284  0  4.541399  0
N  N75  1  0.70696997  0.26445516  0.60228463  1  0  0.405975  0  4.280641  0  0  0.438643  0  4.562394  0  0  0.45567  0  4.591471  0  0  0.078663  0.427301  0  4.541437  0
N  N76  1  0.79303735  0.76445670  0.60229245  1  0  0.405901  0  4.280645  0  0  0.438486  0  4.562506  0  0  0.455515  0  4.591581  0  0  0.078642  0.427149  0  4.541541  0
N  N77  1  0.29302567  0.73554750  0.39771699  1  0  0.405933  0  4.280776  0  0  0.438631  0  4.562501  0  0  0.455658  0  4.591575  0  0  0.078688  0.427288  0  4.541542  0
N  N78  1  0.22842465  0.07605549  0.63215630  1  0  -0.322151  0  3.249028  0  0  -0.242058  0  3.510239  0  0  -0.262077  0  3.529913  0  0  -0.324138  -0.228681  0  3.496675  0
N  N79  1  0.72842569  0.42394569  0.36784388  1  0  -0.322146  0  3.249184  0  0  -0.242051  0  3.51038  0  0  -0.262066  0  3.530037  0  0  -0.324149  -0.228678  0  3.496821  0
N  N80  1  0.77156829  0.92394405  0.36784806  1  0  -0.322018  0  3.249108  0  0  -0.241932  0  3.510279  0  0  -0.261951  0  3.52995  0  0  -0.324097  -0.228551  0  3.496711  0
N  N81  1  0.27157130  0.57605598  0.63215276  1  0  -0.322007  0  3.24898  0  0  -0.241908  0  3.51018  0  0  -0.261925  0  3.529848  0  0  -0.324078  -0.228538  0  3.496627  0
N  N82  1  0.35842265  0.44275792  0.93122259  1  0  -0.196505  0  3.388814  0  0  -0.108678  0  3.626816  0  0  -0.130342  0  3.649654  0  0  -0.27245  -0.093786  0  3.610839  0
N  N83  1  0.85842531  0.05724172  0.06877788  1  0  -0.196469  0  3.388805  0  0  -0.108646  0  3.626809  0  0  -0.130311  0  3.649653  0  0  -0.272457  -0.093758  0  3.610836  0
N  N84  1  0.64157974  0.55724473  0.06878064  1  0  -0.196636  0  3.389142  0  0  -0.108861  0  3.627066  0  0  -0.130533  0  3.64991  0  0  -0.272486  -0.093954  0  3.611102  0
N  N85  1  0.14157842  0.94275785  0.93122086  1  0  -0.196513  0  3.388861  0  0  -0.108771  0  3.626935  0  0  -0.13044  0  3.649777  0  0  -0.272464  -0.093865  0  3.61096  0
O  O86  1  0.09259740  0.32438406  0.93183408  1  0  -0.556011  0  1.922711  0  0  -0.519907  0  2.153239  0  0  -0.541307  0  2.147787  0  0  -0.303726  -0.50476  0  2.156548  0
O  O87  1  0.59260104  0.17561240  0.06816812  1  0  -0.556056  0  1.922653  0  0  -0.519887  0  2.153211  0  0  -0.541288  0  2.147755  0  0  -0.30371  -0.504747  0  2.156529  0
O  O88  1  0.90740364  0.67561444  0.06817013  1  0  -0.556033  0  1.922723  0  0  -0.519918  0  2.153205  0  0  -0.541322  0  2.147751  0  0  -0.303707  -0.504771  0  2.156528  0
O  O89  1  0.40739999  0.82438407  0.93183096  1  0  -0.555995  0  1.922726  0  0  -0.519884  0  2.153232  0  0  -0.541285  0  2.147777  0  0  -0.303718  -0.504737  0  2.156549  0
