# generated using pymatgen
data_ZnH8C20(N2O3)2
_symmetry_space_group_name_H-M   'P 1'
_cell_length_a   13.18861824
_cell_length_b   14.48923301
_cell_length_c   23.68995539
_cell_angle_alpha   90.07770583
_cell_angle_beta   90.01377902
_cell_angle_gamma   91.25362863
_symmetry_Int_Tables_number   1
_chemical_formula_structural   ZnH8C20(N2O3)2
_chemical_formula_sum   'Zn2 H16 C40 N8 O12'
_cell_volume   4525.89587132
_cell_formula_units_Z   2
loop_
 _symmetry_equiv_pos_site_id
 _symmetry_equiv_pos_as_xyz
  1  'x, y, z'
loop_
 _atom_site_type_symbol
 _atom_site_label
 _atom_site_symmetry_multiplicity
 _atom_site_fract_x
 _atom_site_fract_y
 _atom_site_fract_z
 _atom_site_occupancy
 _atom_site_pbe_bader_charge
 _atom_site_pbe_bader_spin_density
 _atom_site_pbe_cm5_charge
 _atom_site_pbe_ddec_charge
 _atom_site_pbe_ddec_spin_density
 _atom_site_pbe_ddec_sum_bond_order
 _atom_site_pbe_magmom
Zn  Zn0  1  0.39457297  0.49847289  0.49871783  1  1.326205  0  0.683544  0.880451  0  2.428486  0
Zn  Zn1  1  0.60537593  0.50148977  0.49939444  1  1.300164  0  0.683323  0.881213  0  2.424403  0
H  H2  1  0.33321139  0.50518230  0.78290933  1  0.061312  0  0.109825  0.117088  0  0.980544  0
H  H3  1  0.66428362  0.49680249  0.21433503  1  0.037317  0  0.109078  0.115542  0  0.980754  0
H  H4  1  0.65901984  0.50215596  0.78543029  1  0.08112  0  0.109246  0.115702  0  0.980449  0
H  H5  1  0.33839179  0.49677507  0.21349242  1  0.106237  0  0.109237  0.116022  0  0.980987  0
H  H6  1  0.33627826  0.50307127  0.67689303  1  0.101408  0  0.106803  0.110963  0  0.995713  0
H  H7  1  0.66310219  0.49808109  0.32040117  1  0.102765  0  0.107038  0.110789  0  0.995764  0
H  H8  1  0.66129679  0.50020858  0.67943424  1  0.096925  0  0.106904  0.110782  0  0.994365  0
H  H9  1  0.33797433  0.49781961  0.31953619  1  0.123123  0  0.107326  0.111348  0  0.996107  0
H  H10  1  0.61667888  0.79196171  0.04014109  1  0.436278  0  0.31091  0.295137  0  0.95191  0
H  H11  1  0.56894426  0.73946097  0.10159586  1  0.498781  0  0.301245  0.317514  0  0.986395  0
H  H12  1  0.43204016  0.26064897  0.89662449  1  0.50913  0  0.301611  0.317979  0  0.985839  0
H  H13  1  0.44944745  0.19468695  0.95785908  1  0.457143  0  0.309917  0.294629  0  0.953015  0
H  H14  1  0.39409461  0.20385603  0.03608145  1  0.44363  0  0.31054  0.295893  0  0.951216  0
H  H15  1  0.44119534  0.25534420  0.09812131  1  0.50518  0  0.301509  0.317907  0  0.985378  0
H  H16  1  0.56706437  0.74319602  0.89983195  1  0.521582  0  0.301923  0.318042  0  0.985785  0
H  H17  1  0.56011854  0.80684603  0.96291447  1  0.422386  0  0.310075  0.294632  0  0.954378  0
C  C18  1  0.50066290  0.68054110  0.49956413  1  1.63303  0  0.219799  0.654314  0  4.257963  0
C  C19  1  0.49893235  0.31943230  0.49902894  1  1.631671  0  0.219324  0.654706  0  4.259222  0
C  C20  1  0.50017832  0.50025489  0.60888739  1  1.587154  0  0.218975  0.598968  0  4.161775  0
C  C21  1  0.49995254  0.49945514  0.38923881  1  1.54569  0  0.218535  0.59836  0  4.1601  0
C  C22  1  0.48299383  0.41308874  0.11989569  1  1.269012  0  0.237624  0.451327  0  4.090739  0
C  C23  1  0.52146080  0.58641419  0.87822974  1  1.285981  0  0.237079  0.445153  0  4.089532  0
C  C24  1  0.52190542  0.58234639  0.12102963  1  1.304659  0  0.237585  0.450568  0  4.090483  0
C  C25  1  0.47042807  0.41964400  0.87717962  1  1.244003  0  0.23714  0.445488  0  4.087857  0
C  C26  1  0.52234163  0.58267130  0.05936716  1  -0.038977  0  -0.030525  -0.193657  0  4.003122  0
C  C27  1  0.47313541  0.41874881  0.93881470  1  0.080329  0  -0.03081  -0.194508  0  4.003078  0
C  C28  1  0.48126511  0.41507804  0.05823065  1  0.048834  0  -0.030313  -0.194026  0  4.00101  0
C  C29  1  0.52316598  0.58439241  0.93988127  1  0.032983  0  -0.031223  -0.196606  0  4.003524  0
C  C30  1  0.50061973  0.49958113  0.02906432  1  0.038703  0  -0.014721  0.029959  0  4.072433  0
C  C31  1  0.49874146  0.50097673  0.96911000  1  0.04802  0  -0.014142  0.031054  0  4.073909  0
C  C32  1  0.54657487  0.66547219  0.03058249  1  0.545273  0  0.112422  0.209016  0  4.033903  0
C  C33  1  0.45372486  0.33495380  0.96758214  1  0.393541  0  0.112354  0.208993  0  4.036196  0
C  C34  1  0.45829983  0.33299654  0.02827815  1  0.485451  0  0.112124  0.20962  0  4.037194  0
C  C35  1  0.54759464  0.66622191  0.96981691  1  0.392853  0  0.113041  0.211044  0  4.03768  0
C  C36  1  0.40472424  0.50446092  0.75990954  1  -0.032769  0  -0.083467  -0.154029  0  3.98223  0
C  C37  1  0.59318444  0.49674681  0.23775948  1  -0.005744  0  -0.083326  -0.152815  0  3.980037  0
C  C38  1  0.58867764  0.50236054  0.76128728  1  -0.014258  0  -0.084025  -0.154635  0  3.981184  0
C  C39  1  0.40916457  0.49698248  0.23725679  1  -0.099568  0  -0.083608  -0.154305  0  3.980223  0
C  C40  1  0.40637596  0.50310172  0.70117618  1  0.044667  0  -0.076831  -0.070997  0  3.964687  0
C  C41  1  0.59256489  0.49754687  0.29650594  1  0.041933  0  -0.076929  -0.071376  0  3.962817  0
C  C42  1  0.58998852  0.50136376  0.70255771  1  -0.053101  0  -0.076964  -0.071176  0  3.96374  0
C  C43  1  0.40887769  0.49749054  0.29600579  1  -0.011071  0  -0.077119  -0.071618  0  3.965371  0
C  C44  1  0.49887797  0.50152335  0.67214505  1  -0.030181  0  -0.013285  -0.030548  0  3.953166  0
C  C45  1  0.50048823  0.49804514  0.32597271  1  0.014804  0  -0.013277  -0.030097  0  3.950329  0
C  C46  1  0.49601495  0.50389093  0.78954635  1  0.310584  0  0.091492  0.195639  0  4.014221  0
C  C47  1  0.50142642  0.49673171  0.20857348  1  0.336023  0  0.092097  0.201162  0  4.018318  0
C  C48  1  0.50135023  0.78020519  0.49989487  1  0.221497  0  -0.009896  -0.123841  0  3.841082  0
C  C49  1  0.49856026  0.21978030  0.49948165  1  0.219893  0  -0.010083  -0.124514  0  3.841148  0
C  C50  1  0.50100491  0.86488822  0.50015591  1  -0.243085  0  -0.021874  0.006099  0  4.283719  0
C  C51  1  0.49911839  0.13510707  0.49990445  1  -0.243216  0  -0.021708  0.006619  0  4.283058  0
C  C52  1  0.50050394  0.95741935  0.50028612  1  0.048109  0  -0.010083  -0.010384  0  4.215392  0
C  C53  1  0.49975542  0.04258314  0.50021663  1  -0.177895  0  -0.010022  -0.010948  0  4.214974  0
C  C54  1  0.85125980  0.50148554  0.49935652  1  0.865982  0  0.258644  0.333183  0  4.051193  0
C  C55  1  0.14870447  0.49869483  0.49949193  1  0.868361  0  0.25892  0.33317  0  4.05058  0
C  C56  1  0.95352623  0.50048286  0.49952276  1  0.263883  0  0.06172  -0.00294  0  4.042856  0
C  C57  1  0.04644276  0.49970086  0.49959121  1  0.034118  0  0.061753  -0.002729  0  4.043147  0
N  N58  1  0.50189020  0.49737286  0.14756235  1  -1.228829  0  -0.231119  -0.217239  0  3.600435  0
N  N59  1  0.49515570  0.50361013  0.85055453  1  -1.200179  0  -0.230281  -0.198528  0  3.573636  0
N  N60  1  0.76267064  0.50250205  0.49919726  1  -0.997421  0  -0.213655  -0.206591  0  2.963458  0
N  N61  1  0.23729385  0.49762995  0.49931688  1  -0.999489  0  -0.213926  -0.206451  0  2.962721  0
N  N62  1  0.56734738  0.74639051  0.05837116  1  -1.236859  0  -0.581534  -0.587546  0  3.329627  0
N  N63  1  0.42883186  0.25490552  0.93989091  1  -1.247045  0  -0.58058  -0.586579  0  3.331254  0
N  N64  1  0.44187496  0.25036318  0.05478518  1  -1.248282  0  -0.580945  -0.588076  0  3.330108  0
N  N65  1  0.57413841  0.74647514  0.94306394  1  -1.230175  0  -0.579889  -0.585122  0  3.333963  0
O  O66  1  0.41365609  0.64064676  0.49894427  1  -1.127677  0  -0.312804  -0.539975  0  2.246115  0
O  O67  1  0.58587118  0.35950540  0.49901477  1  -1.123519  0  -0.312486  -0.540254  0  2.249216  0
O  O68  1  0.41252615  0.35698225  0.49871233  1  -1.132886  0  -0.31246  -0.53935  0  2.24654  0
O  O69  1  0.58698391  0.64279037  0.49993012  1  -1.128714  0  -0.312472  -0.539475  0  2.247032  0
O  O70  1  0.41448732  0.49908660  0.58390454  1  -1.158952  0  -0.318427  -0.553705  0  2.327444  0
O  O71  1  0.58580838  0.50133266  0.41402791  1  -1.155875  0  -0.317757  -0.552577  0  2.321305  0
O  O72  1  0.41361604  0.49869441  0.41349713  1  -1.159894  0  -0.318038  -0.550755  0  2.321374  0
O  O73  1  0.58666289  0.50054799  0.58481862  1  -1.158871  0  -0.318404  -0.551221  0  2.317743  0
O  O74  1  0.46870438  0.34231883  0.14892494  1  -1.126889  0  -0.285989  -0.459496  0  2.103718  0
O  O75  1  0.54150336  0.65612991  0.84917652  1  -1.118363  0  -0.285656  -0.459679  0  2.108966  0
O  O76  1  0.53779237  0.65192466  0.15101449  1  -1.119141  0  -0.28507  -0.4584  0  2.104569  0
O  O77  1  0.44849950  0.35119810  0.84729640  1  -1.118795  0  -0.284961  -0.459302  0  2.109284  0
