# generated using pymatgen
data_Ag2H12WC8(S3N2)2
_symmetry_space_group_name_H-M   'P 1'
_cell_length_a   7.84297434
_cell_length_b   13.03631195
_cell_length_c   17.12846715
_cell_angle_alpha   90.00021650
_cell_angle_beta   93.89980951
_cell_angle_gamma   90.00005838
_symmetry_Int_Tables_number   1
_chemical_formula_structural   Ag2H12WC8(S3N2)2
_chemical_formula_sum   'Ag8 H48 W4 C32 S24 N16'
_cell_volume   1747.21868206
_cell_formula_units_Z   4
loop_
 _symmetry_equiv_pos_site_id
 _symmetry_equiv_pos_as_xyz
  1  'x, y, z'
loop_
 _atom_site_type_symbol
 _atom_site_label
 _atom_site_symmetry_multiplicity
 _atom_site_fract_x
 _atom_site_fract_y
 _atom_site_fract_z
 _atom_site_occupancy
 _atom_site_hle17_bader_spin_density
 _atom_site_hle17_ddec_charge
 _atom_site_hle17_ddec_spin_density
 _atom_site_hle17_ddec_sum_bond_order
 _atom_site_hle17_magmom
 _atom_site_hse06_10hf_bader_spin_density
 _atom_site_hse06_10hf_ddec_charge
 _atom_site_hse06_10hf_ddec_spin_density
 _atom_site_hse06_10hf_ddec_sum_bond_order
 _atom_site_hse06_10hf_magmom
 _atom_site_hse06_bader_spin_density
 _atom_site_hse06_ddec_charge
 _atom_site_hse06_ddec_spin_density
 _atom_site_hse06_ddec_sum_bond_order
 _atom_site_hse06_magmom
 _atom_site_pbe_bader_spin_density
 _atom_site_pbe_cm5_charge
 _atom_site_pbe_ddec_charge
 _atom_site_pbe_ddec_spin_density
 _atom_site_pbe_ddec_sum_bond_order
 _atom_site_pbe_magmom
Ag  Ag0  1  0.20445097  0.64623556  0.23467796  1  0  0.365662  0  2.083844  0  0  0.293035  0  2.598963  0  0  0.301032  0  2.568972  0  0  0.310457  0.287661  0  2.619034  0
Ag  Ag1  1  0.29554983  0.14623890  0.76532129  1  0  0.36563  0  2.083911  0  0  0.292993  0  2.599042  0  0  0.300992  0  2.56905  0  0  0.310442  0.287618  0  2.619117  0
Ag  Ag2  1  0.79554817  0.35376554  0.76532045  1  0  0.365632  0  2.083901  0  0  0.293004  0  2.599021  0  0  0.301002  0  2.569029  0  0  0.310444  0.287631  0  2.619094  0
Ag  Ag3  1  0.70445315  0.85376297  0.23467840  1  0  0.36565  0  2.083884  0  0  0.293021  0  2.599012  0  0  0.301018  0  2.569019  0  0  0.310448  0.287647  0  2.619087  0
Ag  Ag4  1  0.43611342  0.24958905  0.27821180  1  0  0.327465  0  2.350404  0  0  0.257611  0  2.913813  0  0  0.256474  0  2.887302  0  0  0.313057  0.258447  0  2.932011  0
Ag  Ag5  1  0.06389271  0.74958497  0.72178790  1  0  0.327511  0  2.350348  0  0  0.257659  0  2.913744  0  0  0.256521  0  2.887232  0  0  0.313059  0.258495  0  2.931939  0
Ag  Ag6  1  0.56389211  0.75041282  0.72178738  1  0  0.327498  0  2.350372  0  0  0.257654  0  2.913764  0  0  0.256518  0  2.887251  0  0  0.313071  0.25849  0  2.931963  0
Ag  Ag7  1  0.93610900  0.25041459  0.27821175  1  0  0.327505  0  2.350376  0  0  0.257676  0  2.91372  0  0  0.256539  0  2.887208  0  0  0.313072  0.25851  0  2.931922  0
H  H8  1  0.78530867  0.50685827  0.29075021  1  0  0.294927  0  0.920668  0  0  0.276856  0  0.987245  0  0  0.283813  0  0.982908  0  0  0.289559  0.27196  0  0.990331  0
H  H9  1  0.71467922  0.00686128  0.70925543  1  0  0.294987  0  0.920871  0  0  0.27691  0  0.987398  0  0  0.283861  0  0.983062  0  0  0.2896  0.272015  0  0.990481  0
H  H10  1  0.21468535  0.49314436  0.70924805  1  0  0.294922  0  0.920669  0  0  0.276845  0  0.987233  0  0  0.2838  0  0.982901  0  0  0.289552  0.27195  0  0.990315  0
H  H11  1  0.28532253  0.99314136  0.29074890  1  0  0.294908  0  0.920709  0  0  0.276846  0  0.987242  0  0  0.283796  0  0.98291  0  0  0.289547  0.271949  0  0.990331  0
H  H12  1  0.85931073  0.43885320  0.42745268  1  0  0.11339  0  0.95479  0  0  0.122297  0  1.018314  0  0  0.124723  0  1.017339  0  0  0.11795  0.120528  0  1.019116  0
H  H13  1  0.64067553  0.93885534  0.57255533  1  0  0.113455  0  0.954839  0  0  0.122397  0  1.018257  0  0  0.124825  0  1.017281  0  0  0.117968  0.120618  0  1.019076  0
H  H14  1  0.14068455  0.56114636  0.57254445  1  0  0.113393  0  0.954758  0  0  0.122286  0  1.018272  0  0  0.124714  0  1.017296  0  0  0.117949  0.120508  0  1.019099  0
H  H15  1  0.35932241  0.06114193  0.42745064  1  0  0.113394  0  0.954757  0  0  0.122255  0  1.018319  0  0  0.124683  0  1.017342  0  0  0.117943  0.120482  0  1.019133  0
H  H16  1  0.68725187  0.56636338  0.52652982  1  0  0.117957  0  1.004267  0  0  0.126022  0  1.069105  0  0  0.12783  0  1.069906  0  0  0.104444  0.124676  0  1.068686  0
H  H17  1  0.81273104  0.06635531  0.47347584  1  0  0.118133  0  1.004154  0  0  0.12617  0  1.069002  0  0  0.127983  0  1.069793  0  0  0.104504  0.12482  0  1.068599  0
H  H18  1  0.31274600  0.43363618  0.47346972  1  0  0.117931  0  1.004312  0  0  0.126  0  1.069149  0  0  0.127809  0  1.069949  0  0  0.104428  0.124653  0  1.068733  0
H  H19  1  0.18725918  0.93363888  0.52652523  1  0  0.117995  0  1.004262  0  0  0.126027  0  1.069132  0  0  0.127838  0  1.069926  0  0  0.104457  0.124683  0  1.068704  0
H  H20  1  0.57453692  0.77141970  0.48335382  1  0  0.102222  0  0.938549  0  0  0.125167  0  0.999415  0  0  0.12549  0  0.999531  0  0  0.096547  0.124818  0  0.999429  0
H  H21  1  0.92546298  0.27141422  0.51664825  1  0  0.102227  0  0.938407  0  0  0.125134  0  0.999337  0  0  0.125445  0  0.999464  0  0  0.096516  0.124784  0  0.999358  0
H  H22  1  0.42546735  0.22858063  0.51664765  1  0  0.102237  0  0.938493  0  0  0.125177  0  0.999371  0  0  0.125511  0  0.999474  0  0  0.096542  0.124829  0  0.999385  0
H  H23  1  0.07453616  0.72858458  0.48335016  1  0  0.102267  0  0.938414  0  0  0.125173  0  0.999326  0  0  0.125504  0  0.999433  0  0  0.09651  0.124825  0  0.99934  0
H  H24  1  0.39634315  0.68593610  0.47765325  1  0  0.106556  0  0.936137  0  0  0.127757  0  0.998566  0  0  0.128254  0  0.998621  0  0  0.097256  0.127302  0  0.998614  0
H  H25  1  0.10364884  0.18592584  0.52234995  1  0  0.106601  0  0.936137  0  0  0.127813  0  0.998533  0  0  0.128309  0  0.998589  0  0  0.097262  0.127358  0  0.998582  0
H  H26  1  0.60365858  0.31406653  0.52234816  1  0  0.106533  0  0.936107  0  0  0.127747  0  0.998523  0  0  0.128243  0  0.99858  0  0  0.097239  0.127292  0  0.998575  0
H  H27  1  0.89634904  0.81406989  0.47765018  1  0  0.106574  0  0.936189  0  0  0.127791  0  0.998575  0  0  0.128287  0  0.99863  0  0  0.097239  0.127335  0  0.998625  0
H  H28  1  0.44205989  0.76189067  0.39410068  1  0  0.113881  0  0.960647  0  0  0.129895  0  1.029829  0  0  0.13123  0  1.029602  0  0  0.09989  0.128832  0  1.030078  0
H  H29  1  0.05793862  0.26188310  0.60590059  1  0  0.113863  0  0.960668  0  0  0.129861  0  1.029871  0  0  0.131195  0  1.029645  0  0  0.099912  0.128802  0  1.030118  0
H  H30  1  0.55794056  0.23811350  0.60590127  1  0  0.11394  0  0.960601  0  0  0.129903  0  1.029842  0  0  0.131235  0  1.029621  0  0  0.09993  0.128843  0  1.030089  0
H  H31  1  0.94205797  0.73811417  0.39409892  1  0  0.113898  0  0.960645  0  0  0.129892  0  1.029837  0  0  0.131224  0  1.029613  0  0  0.099928  0.128831  0  1.030086  0
H  H32  1  0.14918906  0.85513567  0.14619499  1  0  0.282836  0  0.946397  0  0  0.264174  0  1.015183  0  0  0.271739  0  1.009646  0  0  0.280678  0.258812  0  1.019202  0
H  H33  1  0.35081347  0.35513947  0.85380608  1  0  0.282832  0  0.946285  0  0  0.264173  0  1.015079  0  0  0.271738  0  1.009543  0  0  0.280669  0.258811  0  1.019097  0
H  H34  1  0.85081135  0.14486467  0.85380287  1  0  0.28287  0  0.946298  0  0  0.264204  0  1.015083  0  0  0.27177  0  1.009548  0  0  0.280673  0.258843  0  1.019101  0
H  H35  1  0.64918696  0.64486239  0.14619412  1  0  0.282845  0  0.946264  0  0  0.264192  0  1.015045  0  0  0.271757  0  1.009509  0  0  0.280677  0.25883  0  1.019062  0
H  H36  1  0.21295826  0.01248611  0.06267512  1  0  0.111897  0  0.97268  0  0  0.123656  0  1.031695  0  0  0.125598  0  1.03129  0  0  0.114877  0.122267  0  1.032038  0
H  H37  1  0.28703848  0.51248938  0.93732888  1  0  0.111889  0  0.97258  0  0  0.123661  0  1.031586  0  0  0.125604  0  1.031175  0  0  0.114875  0.122271  0  1.031924  0
H  H38  1  0.78704471  0.98751499  0.93732399  1  0  0.111872  0  0.972671  0  0  0.123637  0  1.031685  0  0  0.125579  0  1.031279  0  0  0.114883  0.122251  0  1.032023  0
H  H39  1  0.71295557  0.48751249  0.06267230  1  0  0.111883  0  0.972695  0  0  0.123651  0  1.031698  0  0  0.125594  0  1.031287  0  0  0.114878  0.12226  0  1.03204  0
H  H40  1  0.36632233  0.93366373  0.93374683  1  0  0.118803  0  0.983112  0  0  0.128733  0  1.045924  0  0  0.130649  0  1.045741  0  0  0.108046  0.127327  0  1.046176  0
H  H41  1  0.13367656  0.43366197  0.06625611  1  0  0.118777  0  0.983171  0  0  0.128734  0  1.045957  0  0  0.13065  0  1.045776  0  0  0.108057  0.12733  0  1.046201  0
H  H42  1  0.63368449  0.06633737  0.06625297  1  0  0.11887  0  0.983056  0  0  0.128769  0  1.045911  0  0  0.130686  0  1.045728  0  0  0.108068  0.127369  0  1.04615  0
H  H43  1  0.86632132  0.56633453  0.93374460  1  0  0.118798  0  0.983139  0  0  0.128702  0  1.045984  0  0  0.130619  0  1.045801  0  0  0.108034  0.127295  0  1.046233  0
H  H44  1  0.45568647  0.65626483  0.96922534  1  0  0.105434  0  0.965913  0  0  0.120312  0  1.036596  0  0  0.121318  0  1.037191  0  0  0.099658  0.11949  0  1.036299  0
H  H45  1  0.04431177  0.15626361  0.03077153  1  0  0.105492  0  0.965977  0  0  0.120392  0  1.036619  0  0  0.121387  0  1.037226  0  0  0.099692  0.119586  0  1.03628  0
H  H46  1  0.54431138  0.34373550  0.03077245  1  0  0.105531  0  0.965967  0  0  0.120429  0  1.036612  0  0  0.121405  0  1.03724  0  0  0.099707  0.119623  0  1.036271  0
H  H47  1  0.95569248  0.84373289  0.96922761  1  0  0.105553  0  0.965927  0  0  0.120421  0  1.036607  0  0  0.121408  0  1.037221  0  0  0.099693  0.119613  0  1.036276  0
H  H48  1  0.48343716  0.76130436  0.90359293  1  0  0.102486  0  0.964677  0  0  0.121725  0  1.033401  0  0  0.12227  0  1.033426  0  0  0.094314  0.121246  0  1.033437  0
H  H49  1  0.01655749  0.26130267  0.09640589  1  0  0.102563  0  0.964647  0  0  0.121768  0  1.033394  0  0  0.122314  0  1.033419  0  0  0.094305  0.121287  0  1.033432  0
H  H50  1  0.51656069  0.23869521  0.09640545  1  0  0.102564  0  0.964691  0  0  0.121796  0  1.033403  0  0  0.122344  0  1.033427  0  0  0.094328  0.121314  0  1.033442  0
H  H51  1  0.98344677  0.73869306  0.90359325  1  0  0.10258  0  0.964601  0  0  0.121792  0  1.033339  0  0  0.122338  0  1.033363  0  0  0.094327  0.121312  0  1.033373  0
H  H52  1  0.29005114  0.68971578  0.89646760  1  0  0.093754  0  0.958298  0  0  0.115301  0  1.026744  0  0  0.115565  0  1.026089  0  0  0.088287  0.114974  0  1.02733  0
H  H53  1  0.20994593  0.18971349  0.10353225  1  0  0.093805  0  0.958318  0  0  0.115356  0  1.026757  0  0  0.115621  0  1.026101  0  0  0.088299  0.115026  0  1.027349  0
H  H54  1  0.70994801  0.31028532  0.10353198  1  0  0.093803  0  0.958327  0  0  0.115349  0  1.026773  0  0  0.115615  0  1.026114  0  0  0.08828  0.115018  0  1.027363  0
H  H55  1  0.79005705  0.81028301  0.89646744  1  0  0.09375  0  0.958395  0  0  0.115312  0  1.026816  0  0  0.115578  0  1.026158  0  0  0.088272  0.114984  0  1.027405  0
W  W56  1  0.18740532  0.41508978  0.28155480  1  0  0.90384  0  5.157443  0  0  0.921063  0  5.784035  0  0  0.977844  0  5.775938  0  0  0.87232  0.884001  0  5.788187  0
W  W57  1  0.31259476  0.91508891  0.71844403  1  0  0.903869  0  5.157382  0  0  0.921094  0  5.783975  0  0  0.977875  0  5.775877  0  0  0.872384  0.88402  0  5.788211  0
W  W58  1  0.81259766  0.58491056  0.71844488  1  0  0.903916  0  5.157341  0  0  0.921146  0  5.783924  0  0  0.977926  0  5.775827  0  0  0.872386  0.884085  0  5.788093  0
W  W59  1  0.68740694  0.08491143  0.28155504  1  0  0.903917  0  5.157384  0  0  0.92114  0  5.783969  0  0  0.977923  0  5.775868  0  0  0.87235  0.884085  0  5.788089  0
C  C60  1  0.63287012  0.62129869  0.33953756  1  0  0.331421  0  3.734728  0  0  0.28955  0  4.023513  0  0  0.309912  0  4.03492  0  0  0.216403  0.27616  0  4.015257  0
C  C61  1  0.86712057  0.12129771  0.66046849  1  0  0.331553  0  3.734379  0  0  0.289529  0  4.023382  0  0  0.309886  0  4.034793  0  0  0.216287  0.27614  0  4.015127  0
C  C62  1  0.36712521  0.37870471  0.66046307  1  0  0.331479  0  3.73453  0  0  0.289563  0  4.023361  0  0  0.309926  0  4.034768  0  0  0.216393  0.276173  0  4.01511  0
C  C63  1  0.13287988  0.87870185  0.33953405  1  0  0.331604  0  3.73439  0  0  0.28958  0  4.023404  0  0  0.309938  0  4.034813  0  0  0.216302  0.276186  0  4.015156  0
C  C64  1  0.77546129  0.50358464  0.41512550  1  0  0.013239  0  3.715603  0  0  -0.026662  0  3.983866  0  0  -0.024308  0  4.002447  0  0  0.002552  -0.028278  0  3.971429  0
C  C65  1  0.72451894  0.00358014  0.58488108  1  0  0.013249  0  3.715586  0  0  -0.02665  0  3.983703  0  0  -0.024301  0  4.002284  0  0  0.002538  -0.028263  0  3.971263  0
C  C66  1  0.22453655  0.49641569  0.58487171  1  0  0.013269  0  3.71552  0  0  -0.026621  0  3.983765  0  0  -0.024265  0  4.002343  0  0  0.002575  -0.028236  0  3.971317  0
C  C67  1  0.27547515  0.99641483  0.41512303  1  0  0.013252  0  3.715549  0  0  -0.026591  0  3.983748  0  0  -0.024239  0  4.002329  0  0  0.002495  -0.02821  0  3.971307  0
C  C68  1  0.69133007  0.56628192  0.46341292  1  0  -0.056382  0  3.670898  0  0  -0.095724  0  3.924303  0  0  -0.09427  0  3.944012  0  0  -0.001594  -0.096669  0  3.911121  0
C  C69  1  0.80865409  0.06628183  0.53659044  1  0  -0.056649  0  3.670971  0  0  -0.095967  0  3.924385  0  0  -0.094516  0  3.944112  0  0  -0.001626  -0.096918  0  3.911205  0
C  C70  1  0.30866395  0.43371765  0.53658534  1  0  -0.056414  0  3.670949  0  0  -0.095772  0  3.924384  0  0  -0.094322  0  3.944099  0  0  -0.00163  -0.09672  0  3.911202  0
C  C71  1  0.19134000  0.93371544  0.46341366  1  0  -0.056425  0  3.670979  0  0  -0.095745  0  3.92437  0  0  -0.094293  0  3.944092  0  0  -0.001607  -0.096686  0  3.91118  0
C  C72  1  0.49775424  0.71951994  0.44478390  1  0  -0.153419  0  3.619259  0  0  -0.255795  0  3.862489  0  0  -0.251983  0  3.870991  0  0  -0.136343  -0.258042  0  3.856709  0
C  C73  1  0.00224292  0.21951208  0.55521895  1  0  -0.153514  0  3.619212  0  0  -0.25584  0  3.86243  0  0  -0.252016  0  3.870934  0  0  -0.136282  -0.258085  0  3.856648  0
C  C74  1  0.50224749  0.28048116  0.55521750  1  0  -0.153498  0  3.619166  0  0  -0.255846  0  3.86243  0  0  -0.252043  0  3.870926  0  0  -0.136358  -0.25809  0  3.856651  0
C  C75  1  0.99775623  0.78048442  0.44478121  1  0  -0.15352  0  3.619363  0  0  -0.255845  0  3.862534  0  0  -0.252039  0  3.871029  0  0  -0.1363  -0.258093  0  3.856754  0
C  C76  1  0.25359276  0.76256560  0.06066004  1  0  0.322704  0  3.750024  0  0  0.28094  0  4.038753  0  0  0.303145  0  4.049142  0  0  0.209773  0.266202  0  4.031235  0
C  C77  1  0.24641085  0.26256669  0.93934021  1  0  0.322742  0  3.750005  0  0  0.280963  0  4.038754  0  0  0.30317  0  4.049139  0  0  0.209777  0.266221  0  4.031248  0
C  C78  1  0.74640638  0.23743397  0.93933896  1  0  0.322736  0  3.749992  0  0  0.280983  0  4.038692  0  0  0.303191  0  4.049076  0  0  0.209778  0.266243  0  4.031184  0
C  C79  1  0.75359597  0.73743211  0.06065959  1  0  0.322752  0  3.750008  0  0  0.281059  0  4.038639  0  0  0.303267  0  4.049022  0  0  0.209858  0.26632  0  4.031124  0
C  C80  1  0.24157621  0.93451450  0.04699283  1  0  0.004539  0  3.721997  0  0  -0.037601  0  3.993065  0  0  -0.034993  0  4.010589  0  0  -0.003954  -0.039423  0  3.981413  0
C  C81  1  0.25842524  0.43451567  0.95301136  1  0  0.00456  0  3.722116  0  0  -0.0376  0  3.993219  0  0  -0.034991  0  4.010746  0  0  -0.003985  -0.039418  0  3.981553  0
C  C82  1  0.75842803  0.06548660  0.95300514  1  0  0.004435  0  3.722273  0  0  -0.037713  0  3.993331  0  0  -0.035106  0  4.01086  0  0  -0.004071  -0.03953  0  3.98167  0
C  C83  1  0.74157265  0.56548390  0.04698994  1  0  0.004598  0  3.722176  0  0  -0.037569  0  3.993238  0  0  -0.034962  0  4.010767  0  0  -0.003958  -0.039389  0  3.981576  0
C  C84  1  0.31603490  0.89613942  0.98363273  1  0  -0.051594  0  3.702468  0  0  -0.094794  0  3.965705  0  0  -0.09248  0  3.985294  0  0  -0.002383  -0.096329  0  3.95266  0
C  C85  1  0.18396388  0.39614051  0.01636835  1  0  -0.051576  0  3.702662  0  0  -0.094793  0  3.965888  0  0  -0.09248  0  3.985478  0  0  -0.002382  -0.09633  0  3.952845  0
C  C86  1  0.68396806  0.10386092  0.01636579  1  0  -0.051576  0  3.702426  0  0  -0.094755  0  3.965666  0  0  -0.092442  0  3.985257  0  0  -0.002347  -0.096294  0  3.952633  0
C  C87  1  0.81603527  0.60385829  0.98363181  1  0  -0.051518  0  3.702358  0  0  -0.09465  0  3.96552  0  0  -0.092338  0  3.985112  0  0  -0.002268  -0.096185  0  3.952473  0
C  C88  1  0.39188558  0.72001053  0.93741664  1  0  -0.156716  0  3.633613  0  0  -0.257825  0  3.874235  0  0  -0.253903  0  3.883328  0  0  -0.140118  -0.260167  0  3.86809  0
C  C89  1  0.10811154  0.22000950  0.06258272  1  0  -0.156911  0  3.633791  0  0  -0.258034  0  3.874439  0  0  -0.254108  0  3.883537  0  0  -0.140175  -0.260363  0  3.868305  0
C  C90  1  0.60811229  0.27999057  0.06258232  1  0  -0.157007  0  3.633789  0  0  -0.258146  0  3.874422  0  0  -0.254208  0  3.883535  0  0  -0.14019  -0.260475  0  3.868284  0
C  C91  1  0.89189271  0.77998853  0.93741701  1  0  -0.156962  0  3.633722  0  0  -0.258067  0  3.874369  0  0  -0.254131  0  3.883476  0  0  -0.140157  -0.260399  0  3.868227  0
S  S92  1  0.54754326  0.68583819  0.25998934  1  0  -0.424075  0  2.452339  0  0  -0.40155  0  2.887815  0  0  -0.41182  0  2.869495  0  0  -0.210194  -0.394356  0  2.9  0
S  S93  1  0.95245519  0.18583766  0.74001303  1  0  -0.424069  0  2.45244  0  0  -0.401477  0  2.88797  0  0  -0.411742  0  2.869647  0  0  -0.210124  -0.394283  0  2.900154  0
S  S94  1  0.45245460  0.31416675  0.74000962  1  0  -0.423988  0  2.452325  0  0  -0.401439  0  2.887792  0  0  -0.411709  0  2.869475  0  0  -0.2101  -0.394244  0  2.899978  0
S  S95  1  0.04754779  0.81416421  0.25998665  1  0  -0.424048  0  2.452302  0  0  -0.401454  0  2.887822  0  0  -0.411721  0  2.869502  0  0  -0.210104  -0.394259  0  2.90001  0
S  S96  1  0.23024807  0.63984461  0.09167826  1  0  -0.398279  0  2.204456  0  0  -0.372073  0  2.589986  0  0  -0.391331  0  2.585934  0  0  -0.214032  -0.358293  0  2.592168  0
S  S97  1  0.26975782  0.13984556  0.90832054  1  0  -0.398263  0  2.204435  0  0  -0.372038  0  2.58996  0  0  -0.391294  0  2.585907  0  0  -0.213996  -0.358257  0  2.592148  0
S  S98  1  0.76974978  0.36015649  0.90832012  1  0  -0.398285  0  2.204448  0  0  -0.372066  0  2.58995  0  0  -0.391323  0  2.585894  0  0  -0.214016  -0.358278  0  2.592122  0
S  S99  1  0.73024898  0.86015324  0.09167810  1  0  -0.398243  0  2.204438  0  0  -0.372051  0  2.589927  0  0  -0.391309  0  2.585871  0  0  -0.214003  -0.358275  0  2.592116  0
S  S100  1  0.19062286  0.55054469  0.35817615  1  0  -0.455026  0  2.15757  0  0  -0.445152  0  2.569928  0  0  -0.461295  0  2.567416  0  0  -0.383492  -0.434474  0  2.571366  0
S  S101  1  0.30937647  0.05054435  0.64182395  1  0  -0.455039  0  2.157573  0  0  -0.445178  0  2.569968  0  0  -0.46132  0  2.567453  0  0  -0.383516  -0.434506  0  2.571431  0
S  S102  1  0.80937628  0.44945641  0.64182285  1  0  -0.455029  0  2.157504  0  0  -0.445177  0  2.569893  0  0  -0.461319  0  2.567378  0  0  -0.383503  -0.434505  0  2.57134  0
S  S103  1  0.69062268  0.94945598  0.35817621  1  0  -0.455088  0  2.157595  0  0  -0.445226  0  2.569991  0  0  -0.461369  0  2.567475  0  0  -0.383494  -0.434541  0  2.571422  0
S  S104  1  0.40589515  0.41720606  0.20651138  1  0  -0.433244  0  2.054373  0  0  -0.419885  0  2.455676  0  0  -0.432328  0  2.450226  0  0  -0.380522  -0.411845  0  2.459262  0
S  S105  1  0.09410622  0.91720542  0.79348808  1  0  -0.433301  0  2.054365  0  0  -0.419915  0  2.455603  0  0  -0.432358  0  2.450153  0  0  -0.380554  -0.411878  0  2.459211  0
S  S106  1  0.59410911  0.58279504  0.79348834  1  0  -0.433315  0  2.054407  0  0  -0.419956  0  2.455682  0  0  -0.432398  0  2.450234  0  0  -0.380569  -0.411915  0  2.459273  0
S  S107  1  0.90589548  0.08279491  0.20651157  1  0  -0.433328  0  2.054439  0  0  -0.419936  0  2.455673  0  0  -0.432377  0  2.450224  0  0  -0.380543  -0.411894  0  2.459256  0
S  S108  1  0.19887758  0.28178312  0.36809425  1  0  -0.513043  0  2.225077  0  0  -0.483732  0  2.666586  0  0  -0.49611  0  2.653873  0  0  -0.41451  -0.475569  0  2.675494  0
S  S109  1  0.30112476  0.78178181  0.63190368  1  0  -0.513032  0  2.225098  0  0  -0.483721  0  2.666614  0  0  -0.496101  0  2.653904  0  0  -0.41453  -0.475559  0  2.675533  0
S  S110  1  0.80112666  0.71821644  0.63190430  1  0  -0.513038  0  2.22508  0  0  -0.483729  0  2.66659  0  0  -0.496106  0  2.653877  0  0  -0.414502  -0.475562  0  2.675494  0
S  S111  1  0.69887695  0.21821852  0.36809656  1  0  -0.513044  0  2.225038  0  0  -0.483731  0  2.666545  0  0  -0.49611  0  2.653834  0  0  -0.414516  -0.47556  0  2.67544  0
S  S112  1  0.94541950  0.41747930  0.20417262  1  0  -0.516651  0  2.071039  0  0  -0.496613  0  2.471133  0  0  -0.508593  0  2.458274  0  0  -0.38361  -0.48878  0  2.479881  0
S  S113  1  0.55458069  0.91747788  0.79582755  1  0  -0.516623  0  2.071059  0  0  -0.496598  0  2.47116  0  0  -0.508577  0  2.4583  0  0  -0.383587  -0.488772  0  2.479931  0
S  S114  1  0.05458092  0.58252027  0.79582641  1  0  -0.516681  0  2.071095  0  0  -0.496643  0  2.471187  0  0  -0.508623  0  2.458327  0  0  -0.383636  -0.488813  0  2.479938  0
S  S115  1  0.44542104  0.08252245  0.20417386  1  0  -0.516646  0  2.071027  0  0  -0.49662  0  2.471145  0  0  -0.508599  0  2.458286  0  0  -0.383606  -0.488785  0  2.479886  0
N  N116  1  0.73784282  0.53834581  0.33991109  1  0  -0.313609  0  3.470521  0  0  -0.246847  0  3.698167  0  0  -0.264214  0  3.714108  0  0  -0.374471  -0.23528  0  3.687311  0
N  N117  1  0.76214135  0.03834630  0.66009804  1  0  -0.313878  0  3.470715  0  0  -0.24703  0  3.698381  0  0  -0.264386  0  3.714335  0  0  -0.374498  -0.23546  0  3.68751  0
N  N118  1  0.26215120  0.46165682  0.66008718  1  0  -0.313684  0  3.470423  0  0  -0.246838  0  3.697985  0  0  -0.264203  0  3.713926  0  0  -0.37448  -0.235269  0  3.687125  0
N  N119  1  0.23785914  0.96165403  0.33990683  1  0  -0.313638  0  3.470361  0  0  -0.246856  0  3.698104  0  0  -0.264216  0  3.714055  0  0  -0.374346  -0.235289  0  3.687247  0
N  N120  1  0.60475533  0.63868952  0.41646674  1  0  -0.064534  0  3.540508  0  0  0.037866  0  3.752182  0  0  0.021798  0  3.7782  0  0  -0.241456  0.048381  0  3.734498  0
N  N121  1  0.89523793  0.13868435  0.58353710  1  0  -0.064365  0  3.54024  0  0  0.038027  0  3.751944  0  0  0.021959  0  3.777962  0  0  -0.24151  0.048542  0  3.734258  0
N  N122  1  0.39524380  0.36131311  0.58353167  1  0  -0.064526  0  3.54022  0  0  0.037875  0  3.7519  0  0  0.021807  0  3.77792  0  0  -0.241486  0.048388  0  3.734219  0
N  N123  1  0.10475867  0.86131368  0.41646299  1  0  -0.064624  0  3.540554  0  0  0.037803  0  3.752236  0  0  0.021734  0  3.778257  0  0  -0.24149  0.048318  0  3.73455  0
N  N124  1  0.20486033  0.85188157  0.09342445  1  0  -0.321135  0  3.474384  0  0  -0.255726  0  3.705365  0  0  -0.272347  0  3.718204  0  0  -0.383121  -0.244612  0  3.696654  0
N  N125  1  0.29513838  0.35188406  0.90657767  1  0  -0.321135  0  3.474391  0  0  -0.255727  0  3.705376  0  0  -0.27235  0  3.718217  0  0  -0.383116  -0.24461  0  3.696661  0
N  N126  1  0.79513882  0.14812030  0.90657513  1  0  -0.321117  0  3.474549  0  0  -0.255727  0  3.705576  0  0  -0.272355  0  3.718431  0  0  -0.383055  -0.244612  0  3.696859  0
N  N127  1  0.70485948  0.64811550  0.09342129  1  0  -0.321177  0  3.474371  0  0  -0.255809  0  3.705359  0  0  -0.272432  0  3.718202  0  0  -0.383174  -0.24469  0  3.696641  0
N  N128  1  0.32311599  0.79051371  0.99256626  1  0  -0.075343  0  3.557535  0  0  0.027976  0  3.76789  0  0  0.011246  0  3.79384  0  0  -0.246286  0.038975  0  3.75025  0
N  N129  1  0.17688384  0.29051475  0.00743396  1  0  -0.075366  0  3.557547  0  0  0.027968  0  3.767885  0  0  0.011241  0  3.793831  0  0  -0.246272  0.038962  0  3.750253  0
N  N130  1  0.67688571  0.20948586  0.00743339  1  0  -0.075282  0  3.557497  0  0  0.028042  0  3.767816  0  0  0.011315  0  3.793758  0  0  -0.246285  0.039036  0  3.750183  0
N  N131  1  0.82311914  0.70948328  0.99256573  1  0  -0.075435  0  3.557431  0  0  0.027848  0  3.767765  0  0  0.011121  0  3.793707  0  0  -0.246439  0.038845  0  3.750128  0
