# generated using pymatgen
data_Zn2H14C22N4O9
_symmetry_space_group_name_H-M   'P 1'
_cell_length_a   8.10725170
_cell_length_b   10.43772816
_cell_length_c   14.29340000
_cell_angle_alpha   99.98198834
_cell_angle_beta   93.67816178
_cell_angle_gamma   105.54749688
_symmetry_Int_Tables_number   1
_chemical_formula_structural   Zn2H14C22N4O9
_chemical_formula_sum   'Zn4 H28 C44 N8 O18'
_cell_volume   1139.80299138
_cell_formula_units_Z   2
loop_
 _symmetry_equiv_pos_site_id
 _symmetry_equiv_pos_as_xyz
  1  'x, y, z'
loop_
 _atom_site_type_symbol
 _atom_site_label
 _atom_site_symmetry_multiplicity
 _atom_site_fract_x
 _atom_site_fract_y
 _atom_site_fract_z
 _atom_site_occupancy
 _atom_site_hle17_bader_spin_density
 _atom_site_hle17_ddec_charge
 _atom_site_hle17_ddec_spin_density
 _atom_site_hle17_ddec_sum_bond_order
 _atom_site_hle17_magmom
 _atom_site_hse06_10hf_bader_spin_density
 _atom_site_hse06_10hf_ddec_charge
 _atom_site_hse06_10hf_ddec_spin_density
 _atom_site_hse06_10hf_ddec_sum_bond_order
 _atom_site_hse06_10hf_magmom
 _atom_site_hse06_bader_spin_density
 _atom_site_hse06_ddec_charge
 _atom_site_hse06_ddec_spin_density
 _atom_site_hse06_ddec_sum_bond_order
 _atom_site_hse06_magmom
 _atom_site_pbe_bader_charge
 _atom_site_pbe_bader_spin_density
 _atom_site_pbe_cm5_charge
 _atom_site_pbe_ddec_charge
 _atom_site_pbe_ddec_spin_density
 _atom_site_pbe_ddec_sum_bond_order
 _atom_site_pbe_magmom
Zn  Zn0  1  0.77607208  0.87426486  0.96868032  1  0  1.08732  0  1.743592  0  0  0.909736  0  2.205883  0  0  0.95798  0  2.147931  0  1.280821  0  0.691112  0.8722  0  2.249175  0
Zn  Zn1  1  0.22393096  0.12573722  0.03131984  1  0  1.087261  0  1.743651  0  0  0.909663  0  2.205956  0  0  0.957906  0  2.148007  0  1.280845  0  0.691093  0.872126  0  2.249247  0
Zn  Zn2  1  0.13886741  0.20469140  0.52478588  1  0  1.096399  0  1.812788  0  0  0.916028  0  2.298419  0  0  0.963819  0  2.237672  0  1.296631  0  0.709373  0.882681  0  2.340226  0
Zn  Zn3  1  0.86113257  0.79530560  0.47521423  1  0  1.096342  0  1.812732  0  0  0.91598  0  2.298358  0  0  0.963774  0  2.237611  0  1.296721  0  0.709323  0.882634  0  2.340164  0
H  H4  1  0.55069997  0.63921130  0.26955077  1  0  0.13138  0  0.937413  0  0  0.142926  0  0.994515  0  0  0.146084  0  0.992581  0  0.114468  0  0.121818  0.140715  0  0.995883  0
H  H5  1  0.44929951  0.36078773  0.73045238  1  0  0.131368  0  0.937378  0  0  0.142946  0  0.994443  0  0  0.146104  0  0.992507  0  0.114473  0  0.12184  0.140734  0  0.995814  0
H  H6  1  0.19410128  0.69087952  0.47545039  1  0  0.119283  0  0.947811  0  0  0.129342  0  1.008716  0  0  0.132783  0  1.00632  0  0.128082  0  0.116687  0.126993  0  1.010423  0
H  H7  1  0.80589448  0.30911952  0.52454912  1  0  0.119286  0  0.94775  0  0  0.129323  0  1.008682  0  0  0.132765  0  1.006285  0  0.128075  0  0.11668  0.126973  0  1.010393  0
H  H8  1  0.44727976  0.02550539  0.35073561  1  0  0.12026  0  0.939867  0  0  0.129037  0  1.00292  0  0  0.132843  0  1.000379  0  0.121676  0  0.115746  0.126616  0  1.004155  0
H  H9  1  0.55271477  0.97449365  0.64926316  1  0  0.120254  0  0.939962  0  0  0.129036  0  1.002999  0  0  0.13284  0  1.000459  0  0.12165  0  0.115747  0.126616  0  1.004234  0
H  H10  1  0.74140977  0.09596758  0.31881111  1  0  0.126954  0  0.953578  0  0  0.13858  0  1.007823  0  0  0.141319  0  1.006632  0  0.149567  0  0.125771  0.136542  0  1.00886  0
H  H11  1  0.25859057  0.90403044  0.68119124  1  0  0.126976  0  0.953572  0  0  0.138619  0  1.00779  0  0  0.14136  0  1.0066  0  0.149467  0  0.125795  0.136579  0  1.008831  0
H  H12  1  0.89668156  0.12100525  0.15286850  1  0  0.121955  0  0.950919  0  0  0.13038  0  1.010593  0  0  0.133287  0  1.008868  0  0.157378  0  0.124229  0.12812  0  1.012254  0
H  H13  1  0.10331617  0.87899582  0.84713205  1  0  0.121965  0  0.950887  0  0  0.130383  0  1.010572  0  0  0.133291  0  1.008847  0  0.157379  0  0.124228  0.128123  0  1.012233  0
H  H14  1  0.57360753  0.72048277  0.11997652  1  0  0.108355  0  0.939499  0  0  0.116868  0  1.004744  0  0  0.119464  0  1.001429  0  0.182299  0  0.141451  0.114877  0  1.007238  0
H  H15  1  0.42639354  0.27951728  0.88002472  1  0  0.108348  0  0.939493  0  0  0.116859  0  1.004738  0  0  0.119455  0  1.001423  0  0.182298  0  0.141451  0.114869  0  1.007229  0
H  H16  1  0.38644848  0.41612769  0.24251780  1  0  0.12816  0  0.950842  0  0  0.13979  0  1.006476  0  0  0.142359  0  1.005314  0  0.145606  0  0.131576  0.137883  0  1.007403  0
H  H17  1  0.61354344  0.58387438  0.75748056  1  0  0.128227  0  0.950909  0  0  0.139812  0  1.006593  0  0  0.14238  0  1.005431  0  0.145541  0  0.131596  0.137926  0  1.007493  0
H  H18  1  0.25902209  0.18393219  0.31381531  1  0  0.120183  0  0.932255  0  0  0.133049  0  0.982756  0  0  0.135626  0  0.981757  0  0.122619  0  0.130438  0.131478  0  0.983084  0
H  H19  1  0.74096960  0.81606582  0.68618323  1  0  0.12024  0  0.93228  0  0  0.133098  0  0.982782  0  0  0.135678  0  0.981781  0  0.122524  0  0.13046  0.131527  0  0.98311  0
H  H20  1  0.24556729  0.51885234  0.52251304  1  0  0.117005  0  0.956974  0  0  0.124732  0  1.020335  0  0  0.128234  0  1.015587  0  0.224756  0  0.14007  0.122128  0  1.023743  0
H  H21  1  0.75443181  0.48114568  0.47748927  1  0  0.116966  0  0.957029  0  0  0.124742  0  1.020339  0  0  0.128245  0  1.015585  0  0.224778  0  0.140092  0.12214  0  1.023744  0
H  H22  1  0.00382407  0.57946098  0.78852163  1  0  0.112828  0  0.937972  0  0  0.120357  0  1.002108  0  0  0.12495  0  0.997751  0  0.121711  0  0.107775  0.117082  0  1.005102  0
H  H23  1  0.99617984  0.42054008  0.21147704  1  0  0.112857  0  0.937942  0  0  0.12036  0  1.002103  0  0  0.124949  0  0.997751  0  0.121862  0  0.107784  0.117084  0  1.005097  0
H  H24  1  0.97944260  0.16250235  0.78885733  1  0  0.113609  0  0.948359  0  0  0.11978  0  1.015235  0  0  0.123824  0  1.011924  0  0.141449  0  0.106224  0.116963  0  1.017381  0
H  H25  1  0.02056488  0.83750175  0.21114255  1  0  0.113557  0  0.948335  0  0  0.11975  0  1.015201  0  0  0.123794  0  1.01189  0  0.141463  0  0.106179  0.116923  0  1.017359  0
H  H26  1  0.72691121  0.37509425  0.99222627  1  0  0.103707  0  0.957672  0  0  0.112775  0  1.022681  0  0  0.116639  0  1.019077  0  0.105936  0  0.107564  0.109982  0  1.02544  0
H  H27  1  0.27309220  0.62490885  0.00777333  1  0  0.103683  0  0.957722  0  0  0.112751  0  1.022726  0  0  0.116613  0  1.019125  0  0.105892  0  0.107575  0.109961  0  1.025487  0
H  H28  1  0.53480049  0.68283597  0.93395596  1  0  0.407931  0  0.890745  0  0  0.38058  0  0.957068  0  0  0.390812  0  0.942055  0  0.621651  0  0.288755  0.373138  0  0.967945  0
H  H29  1  0.46520255  0.31716611  0.06604141  1  0  0.40795  0  0.890724  0  0  0.380607  0  0.957029  0  0  0.390839  0  0.942017  0  0.62161  0  0.288762  0.373165  0  0.967907  0
H  H30  1  0.44063568  0.80195614  0.94522163  1  0  0.439119  0  0.862536  0  0  0.406534  0  0.928465  0  0  0.418057  0  0.911888  0  0.668729  0  0.28988  0.398196  0  0.940445  0
H  H31  1  0.55936649  0.19804695  0.05477933  1  0  0.439085  0  0.862577  0  0  0.406515  0  0.928483  0  0  0.41804  0  0.911902  0  0.668732  0  0.289847  0.398178  0  0.940461  0
C  C32  1  0.50947894  0.83735261  0.30261431  1  0  0.207661  0  3.774144  0  0  0.202756  0  4.025134  0  0  0.208377  0  4.047035  0  0.329368  0  0.107888  0.19878  0  4.010476  0
C  C33  1  0.49051770  0.16264541  0.69738651  1  0  0.207687  0  3.774167  0  0  0.202818  0  4.025122  0  0  0.208441  0  4.047021  0  0.329428  0  0.107911  0.198833  0  4.01048  0
C  C34  1  0.48136096  0.70153762  0.31004649  1  0  -0.203368  0  3.666565  0  0  -0.239654  0  3.930763  0  0  -0.242986  0  3.947899  0  0.055694  0  -0.076361  -0.237449  0  3.919452  0
C  C35  1  0.51863705  0.29845735  0.68995399  1  0  -0.203353  0  3.66667  0  0  -0.23968  0  3.930794  0  0  -0.243011  0  3.947929  0  0.055663  0  -0.076409  -0.237473  0  3.919486  0
C  C36  1  0.36827049  0.64985419  0.37282605  1  0  0.204013  0  3.782582  0  0  0.19852  0  4.033795  0  0  0.203812  0  4.056366  0  0.306768  0  0.105741  0.194867  0  4.018878  0
C  C37  1  0.63172563  0.35014586  0.62717571  1  0  0.203889  0  3.782721  0  0  0.198497  0  4.033814  0  0  0.203789  0  4.056387  0  0.306892  0  0.10576  0.194844  0  4.018894  0
C  C38  1  0.28637012  0.73177498  0.42859585  1  0  -0.15097  0  3.70256  0  0  -0.187488  0  3.953887  0  0  -0.190108  0  3.974151  0  -0.068696  0  -0.081175  -0.185808  0  3.940188  0
C  C39  1  0.71362404  0.26822304  0.57140278  1  0  -0.150892  0  3.702504  0  0  -0.187425  0  3.953791  0  0  -0.190045  0  3.974056  0  -0.068694  0  -0.081144  -0.185743  0  3.94009  0
C  C40  1  0.31736250  0.86706442  0.42106320  1  0  -0.032252  0  3.785263  0  0  -0.006826  0  4.017803  0  0  -0.013482  0  4.04129  0  0.080454  0  -0.011426  -0.002663  0  4.002303  0
C  C41  1  0.68263093  0.13293157  0.57893514  1  0  -0.032228  0  3.785351  0  0  -0.006798  0  4.017903  0  0  -0.013454  0  4.0414  0  0.080519  0  -0.011419  -0.002634  0  4.002397  0
C  C42  1  0.42804211  0.92047568  0.35756389  1  0  -0.135344  0  3.668576  0  0  -0.173331  0  3.923281  0  0  -0.175233  0  3.941612  0  -0.018263  0  -0.075742  -0.171803  0  3.910373  0
C  C43  1  0.57195256  0.07952031  0.64243380  1  0  -0.135339  0  3.668612  0  0  -0.17335  0  3.923317  0  0  -0.17525  0  3.941646  0  -0.018346  0  -0.075749  -0.17182  0  3.910412  0
C  C44  1  0.72697708  0.02467851  0.25207213  1  0  -0.051169  0  3.631276  0  0  -0.088916  0  3.881293  0  0  -0.088181  0  3.899987  0  0.264927  0  0.005395  -0.089532  0  3.869041  0
C  C45  1  0.27302239  0.97532053  0.74793032  1  0  -0.051121  0  3.631209  0  0  -0.088864  0  3.881204  0  0  -0.088131  0  3.899902  0  0.265366  0  0.005414  -0.089476  0  3.868947  0
C  C46  1  0.80581787  0.03433523  0.17088545  1  0  0.040803  0  3.695891  0  0  0.007429  0  3.956614  0  0  0.010145  0  3.975219  0  0.441535  0  0.01235  0.005519  0  3.944149  0
C  C47  1  0.19418110  0.96566584  0.82911584  1  0  0.04078  0  3.695812  0  0  0.007404  0  3.956561  0  0  0.010118  0  3.975167  0  0.441491  0  0.012351  0.005494  0  3.944096  0
C  C48  1  0.64095359  0.82559572  0.15079446  1  0  0.188157  0  3.615369  0  0  0.122891  0  3.884682  0  0  0.137679  0  3.896638  0  0.979904  0  0.15487  0.113188  0  3.876172  0
C  C49  1  0.35904712  0.17440331  0.84920663  1  0  0.188199  0  3.615299  0  0  0.122948  0  3.884613  0  0  0.137737  0  3.896567  0  0.980078  0  0.15488  0.113246  0  3.876103  0
C  C50  1  0.34055696  0.40345972  0.31064101  1  0  -0.037676  0  3.638598  0  0  -0.0795  0  3.896229  0  0  -0.078461  0  3.915497  0  0.378945  0  0.014162  -0.080112  0  3.883355  0
C  C51  1  0.65942795  0.59653323  0.68936293  1  0  -0.0378  0  3.638407  0  0  -0.079594  0  3.896061  0  0  -0.078553  0  3.915329  0  0.37925  0  0.014093  -0.080224  0  3.883177  0
C  C52  1  0.27708573  0.28912327  0.34653901  1  0  0.02372  0  3.705451  0  0  -0.008988  0  3.962724  0  0  -0.007105  0  3.982542  0  0.359475  0  0.009963  -0.010372  0  3.94909  0
C  C53  1  0.72290729  0.71088185  0.65346118  1  0  0.023676  0  3.705075  0  0  -0.008989  0  3.962345  0  0  -0.007108  0  3.982163  0  0.359286  0  0.009987  -0.010373  0  3.948717  0
C  C54  1  0.26598658  0.46084912  0.45579393  1  0  0.180601  0  3.629671  0  0  0.116664  0  3.893557  0  0  0.131298  0  3.904623  0  0.988704  0  0.152041  0.106986  0  3.886012  0
C  C55  1  0.73401325  0.53915093  0.54420936  1  0  0.180728  0  3.629673  0  0  0.116791  0  3.893551  0  0  0.131424  0  3.904616  0  0.988793  0  0.152075  0.107112  0  3.886007  0
C  C56  1  0.22512061  0.95320179  0.47857649  1  0  0.677426  0  3.87551  0  0  0.624837  0  4.162095  0  0  0.660301  0  4.153376  0  1.569931  0  0.226017  0.600755  0  4.167281  0
C  C57  1  0.77487653  0.04679420  0.52142269  1  0  0.677329  0  3.87572  0  0  0.624713  0  4.162328  0  0  0.66017  0  4.153626  0  1.569955  0  0.225985  0.600631  0  4.167512  0
C  C58  1  0.86099148  0.49039860  0.89551172  1  0  -0.078691  0  3.762024  0  0  -0.051857  0  4.002004  0  0  -0.063286  0  4.027261  0  -0.044044  0  -0.021453  -0.044565  0  3.985612  0
C  C59  1  0.13901440  0.50960449  0.10448797  1  0  -0.078696  0  3.761977  0  0  -0.051782  0  4.001879  0  0  -0.063208  0  4.027135  0  -0.043817  0  -0.021388  -0.044489  0  3.985486  0
C  C60  1  0.96108736  0.48942968  0.81941552  1  0  -0.049634  0  3.673858  0  0  -0.08939  0  3.923738  0  0  -0.08407  0  3.940134  0  -0.048282  0  -0.072101  -0.091663  0  3.911779  0
C  C61  1  0.03891691  0.51057240  0.18058399  1  0  -0.049746  0  3.673708  0  0  -0.08951  0  3.923608  0  0  -0.084191  0  3.940002  0  -0.048622  0  -0.072202  -0.091783  0  3.911651  0
C  C62  1  0.00082220  0.37034705  0.77964530  1  0  -0.080742  0  3.758213  0  0  -0.051796  0  3.991862  0  0  -0.063365  0  4.016464  0  0.014125  0  -0.023795  -0.04454  0  3.97488  0
C  C63  1  0.99918368  0.62965604  0.22035370  1  0  -0.080767  0  3.758194  0  0  -0.051817  0  3.991852  0  0  -0.063386  0  4.016451  0  0.014233  0  -0.023771  -0.044561  0  3.974869  0
C  C64  1  0.94771675  0.25458817  0.81939358  1  0  -0.041043  0  3.660795  0  0  -0.082665  0  3.912433  0  0  -0.077305  0  3.930003  0  -0.077638  0  -0.072411  -0.08508  0  3.899871  0
C  C65  1  0.05228680  0.74541188  0.18060425  1  0  -0.041028  0  3.66081  0  0  -0.082682  0  3.912429  0  0  -0.077322  0  3.929999  0  -0.078204  0  -0.07241  -0.085088  0  3.899868  0
C  C66  1  0.85021852  0.25524764  0.89670371  1  0  -0.075828  0  3.756282  0  0  -0.048519  0  3.995122  0  0  -0.059449  0  4.018751  0  0.0207  0  -0.020043  -0.04165  0  3.980004  0
C  C67  1  0.14978713  0.74475139  0.10329476  1  0  -0.075759  0  3.756108  0  0  -0.048416  0  3.994908  0  0  -0.059344  0  4.01854  0  0.019855  0  -0.020027  -0.041548  0  3.979788  0
C  C68  1  0.80484372  0.37269579  0.93311108  1  0  -0.058343  0  3.689964  0  0  -0.098079  0  3.941253  0  0  -0.093983  0  3.95997  0  -0.082129  0  -0.072787  -0.101111  0  3.929776  0
C  C69  1  0.19516019  0.62730527  0.06688758  1  0  -0.058291  0  3.690057  0  0  -0.098051  0  3.941305  0  0  -0.093955  0  3.960016  0  -0.081243  0  -0.072803  -0.10109  0  3.929835  0
C  C70  1  0.80036530  0.61116136  0.93393435  1  0  0.635435  0  3.920008  0  0  0.585835  0  4.212385  0  0  0.619158  0  4.208285  0  1.541786  0  0.202982  0.562756  0  4.214753  0
C  C71  1  0.19964145  0.38884072  0.06606665  1  0  0.635445  0  3.919998  0  0  0.585799  0  4.212397  0  0  0.619121  0  4.208299  0  1.541824  0  0.202957  0.562721  0  4.214761  0
C  C72  1  0.08599721  0.36342968  0.68947738  1  0  0.629249  0  3.944989  0  0  0.58361  0  4.235192  0  0  0.617327  0  4.229268  0  1.544669  0  0.194232  0.560658  0  4.238554  0
C  C73  1  0.91400743  0.63657341  0.31052087  1  0  0.629294  0  3.944908  0  0  0.583632  0  4.23515  0  0  0.617351  0  4.229228  0  1.5447  0  0.194266  0.56068  0  4.238509  0
C  C74  1  0.79101719  0.13024802  0.93817059  1  0  0.654124  0  3.890182  0  0  0.601616  0  4.182709  0  0  0.636339  0  4.175509  0  1.551491  0  0.208749  0.577595  0  4.187182  0
C  C75  1  0.20898782  0.86975609  0.06182710  1  0  0.653909  0  3.890236  0  0  0.601353  0  4.18281  0  0  0.636075  0  4.175617  0  1.552044  0  0.208665  0.577334  0  4.187277  0
N  N76  1  0.75004517  0.90990381  0.10839401  1  0  -0.384994  0  3.325526  0  0  -0.303505  0  3.625959  0  0  -0.324409  0  3.637897  0  -1.228385  0  -0.350701  -0.288743  0  3.617001  0
N  N77  1  0.24995343  0.09009624  0.89160643  1  0  -0.385004  0  3.32561  0  0  -0.303526  0  3.626049  0  0  -0.324427  0  3.637988  0  -1.228448  0  -0.350716  -0.288764  0  3.617093  0
N  N78  1  0.62220100  0.89177235  0.23866212  1  0  -0.083612  0  3.585918  0  0  0.003262  0  3.799037  0  0  -0.011786  0  3.824329  0  -1.268538  0  -0.22089  0.01327  0  3.78196  0
N  N79  1  0.37779934  0.10822567  0.76133883  1  0  -0.083686  0  3.585963  0  0  0.003156  0  3.799109  0  0  -0.011893  0  3.824403  0  -1.269016  0  -0.220927  0.013168  0  3.782034  0
N  N80  1  0.33222575  0.51171988  0.38030238  1  0  -0.086481  0  3.591374  0  0  0.002405  0  3.802994  0  0  -0.013089  0  3.829499  0  -1.255257  0  -0.217889  0.012393  0  3.785328  0
N  N81  1  0.66777001  0.48827915  0.61969853  1  0  -0.086443  0  3.591291  0  0  0.002399  0  3.802906  0  0  -0.013096  0  3.829412  0  -1.25548  0  -0.217899  0.012388  0  3.785244  0
N  N82  1  0.23151891  0.32680051  0.43692959  1  0  -0.384853  0  3.328334  0  0  -0.30325  0  3.632457  0  0  -0.323468  0  3.642936  0  -1.283528  0  -0.35679  -0.289804  0  3.625345  0
N  N83  1  0.76847823  0.67319549  0.56307238  1  0  -0.384874  0  3.328344  0  0  -0.303363  0  3.632579  0  0  -0.323581  0  3.643058  0  -1.283415  0  -0.356832  -0.289918  0  3.625466  0
O  O84  1  0.10823964  0.89950544  0.52700373  1  0  -0.662972  0  2.069169  0  0  -0.595879  0  2.343384  0  0  -0.621659  0  2.324717  0  -1.208286  0  -0.327016  -0.577828  0  2.355611  0
O  O85  1  0.89176020  0.10049461  0.47299676  1  0  -0.662944  0  2.069291  0  0  -0.595824  0  2.343501  0  0  -0.621602  0  2.324841  0  -1.208243  0  -0.327026  -0.577773  0  2.355726  0
O  O86  1  0.27311764  0.07912666  0.47671430  1  0  -0.626266  0  2.104877  0  0  -0.553607  0  2.378836  0  0  -0.582917  0  2.3662  0  -1.163632  0  -0.306677  -0.533363  0  2.386735  0
O  O87  1  0.72688110  0.92087035  0.52328577  1  0  -0.626236  0  2.104909  0  0  -0.55357  0  2.378886  0  0  -0.582877  0  2.366257  0  -1.163785  0  -0.306646  -0.533325  0  2.386785  0
O  O88  1  0.88148408  0.72750768  0.91546641  1  0  -0.653404  0  2.016696  0  0  -0.580789  0  2.283205  0  0  -0.610438  0  2.270619  0  -1.16104  0  -0.327727  -0.558732  0  2.292576  0
O  O89  1  0.11852180  0.27249541  0.08453538  1  0  -0.653346  0  2.016681  0  0  -0.580697  0  2.283176  0  0  -0.610346  0  2.270592  0  -1.161002  0  -0.327685  -0.55864  0  2.292546  0
O  O90  1  0.66973898  0.59160544  0.97873055  1  0  -0.625586  0  1.947321  0  0  -0.575366  0  2.169153  0  0  -0.599046  0  2.160183  0  -1.174123  0  -0.324477  -0.55809  0  2.174443  0
O  O91  1  0.33026333  0.40839461  0.02126793  1  0  -0.625629  0  1.947348  0  0  -0.57541  0  2.169192  0  0  -0.59909  0  2.160223  0  -1.174364  0  -0.324506  -0.558139  0  2.174488  0
O  O92  1  0.11679961  0.46052547  0.64682495  1  0  -0.614617  0  1.89199  0  0  -0.572242  0  2.103627  0  0  -0.59417  0  2.094221  0  -1.186346  0  -0.330892  -0.556777  0  2.109493  0
O  O93  1  0.88320788  0.53947864  0.35317493  1  0  -0.614627  0  1.891905  0  0  -0.572265  0  2.103567  0  0  -0.594193  0  2.094164  0  -1.186344  0  -0.330932  -0.556799  0  2.109431  0
O  O94  1  0.11610489  0.24685509  0.65899443  1  0  -0.674233  0  2.069971  0  0  -0.600922  0  2.354185  0  0  -0.630748  0  2.338389  0  -1.156737  0  -0.341053  -0.58006  0  2.36445  0
O  O95  1  0.88389691  0.75314699  0.34100499  1  0  -0.674206  0  2.069922  0  0  -0.600845  0  2.35408  0  0  -0.630673  0  2.338288  0  -1.156707  0  -0.34101  -0.579983  0  2.364339  0
O  O96  1  0.67764342  0.12015605  0.99427101  1  0  -0.613066  0  2.013991  0  0  -0.558048  0  2.240444  0  0  -0.583136  0  2.231856  0  -1.162318  0  -0.302648  -0.539861  0  2.245452  0
O  O97  1  0.32236507  0.87984400  0.00572839  1  0  -0.612941  0  2.014075  0  0  -0.557871  0  2.240495  0  0  -0.582963  0  2.231922  0  -1.162493  0  -0.302564  -0.539684  0  2.245501  0
O  O98  1  0.86265624  0.03426116  0.91165793  1  0  -0.659146  0  2.031282  0  0  -0.583986  0  2.308485  0  0  -0.613179  0  2.291761  0  -1.161698  0  -0.327601  -0.562305  0  2.320796  0
O  O99  1  0.13734804  0.96574091  0.08834088  1  0  -0.659037  0  2.031314  0  0  -0.583874  0  2.308536  0  0  -0.613058  0  2.291803  0  -1.161678  0  -0.32757  -0.562194  0  2.320846  0
O  O100  1  0.52632765  0.76466749  0.90937733  1  0  -0.831344  0  1.863196  0  0  -0.765747  0  2.054355  0  0  -0.787491  0  2.019172  0  -1.262868  0  -0.581201  -0.750484  0  2.079794  0
O  O101  1  0.47367452  0.23533561  0.09062083  1  0  -0.831311  0  1.863239  0  0  -0.76572  0  2.054385  0  0  -0.787466  0  2.019201  0  -1.26284  0  -0.581166  -0.750456  0  2.079821  0
