# generated using pymatgen
data_CdH22(C5N2)8
_symmetry_space_group_name_H-M   'P 1'
_cell_length_a   10.64109422
_cell_length_b   18.16444236
_cell_length_c   20.14084168
_cell_angle_alpha   90.00056648
_cell_angle_beta   89.99993459
_cell_angle_gamma   90.00025968
_symmetry_Int_Tables_number   1
_chemical_formula_structural   CdH22(C5N2)8
_chemical_formula_sum   'Cd4 H88 C160 N64'
_cell_volume   3893.01407570
_cell_formula_units_Z   4
loop_
 _symmetry_equiv_pos_site_id
 _symmetry_equiv_pos_as_xyz
  1  'x, y, z'
loop_
 _atom_site_type_symbol
 _atom_site_label
 _atom_site_symmetry_multiplicity
 _atom_site_fract_x
 _atom_site_fract_y
 _atom_site_fract_z
 _atom_site_occupancy
 _atom_site_pbe_bader_charge
 _atom_site_pbe_bader_spin_density
 _atom_site_pbe_cm5_charge
 _atom_site_pbe_ddec_charge
 _atom_site_pbe_ddec_spin_density
 _atom_site_pbe_ddec_sum_bond_order
 _atom_site_pbe_magmom
Cd  Cd0  1  0.19189644  0.50096221  0.25098477  1  1.217586  0  0.80153  0.628738  0  2.427563  0
Cd  Cd1  1  0.69189530  0.49903817  0.74901343  1  1.217526  0  0.801519  0.628707  0  2.427484  0
Cd  Cd2  1  0.69189864  0.99903982  0.25098934  1  1.21754  0  0.801476  0.628654  0  2.427609  0
Cd  Cd3  1  0.19190531  0.00096000  0.74901084  1  1.217491  0  0.801452  0.628626  0  2.427506  0
H  H4  1  0.73008086  0.08200353  0.41610041  1  0.08856  0  0.102629  0.098278  0  1.062059  0
H  H5  1  0.23007426  0.91799475  0.58390123  1  0.088601  0  0.102588  0.09821  0  1.062092  0
H  H6  1  0.23006779  0.41799226  0.41610260  1  0.088714  0  0.102603  0.098212  0  1.062113  0
H  H7  1  0.73007324  0.58200602  0.58389557  1  0.08874  0  0.102613  0.09824  0  1.062093  0
H  H8  1  0.59978091  0.00086389  0.48617114  1  0.114862  0  0.106734  0.110386  0  1.002156  0
H  H9  1  0.09977977  0.99913184  0.51382711  1  0.115376  0  0.106699  0.110411  0  1.002177  0
H  H10  1  0.09975813  0.49913120  0.48617059  1  0.115361  0  0.106724  0.110378  0  1.002315  0
H  H11  1  0.59976496  0.50086617  0.51382468  1  0.11535  0  0.106701  0.110409  0  1.002102  0
H  H12  1  0.73492519  0.42159442  0.91816786  1  0.0814  0  0.102551  0.100416  0  1.054696  0
H  H13  1  0.23492537  0.57840717  0.08183130  1  0.081436  0  0.102564  0.100398  0  1.054689  0
H  H14  1  0.23492735  0.07840293  0.91816995  1  0.081447  0  0.102524  0.100385  0  1.054713  0
H  H15  1  0.73493355  0.92159811  0.08183020  1  0.081435  0  0.102539  0.100407  0  1.054599  0
H  H16  1  0.60541807  0.50080048  0.99040506  1  0.081848  0  0.105508  0.106471  0  1.011194  0
H  H17  1  0.10540743  0.49919966  0.00959815  1  0.081829  0  0.105556  0.106561  0  1.011167  0
H  H18  1  0.10541596  0.99920048  0.99040948  1  0.081865  0  0.105542  0.106538  0  1.011215  0
H  H19  1  0.60542457  0.00079802  0.00958976  1  0.081891  0  0.10553  0.10652  0  1.01126  0
H  H20  1  0.99380487  0.59901467  0.34249005  1  0.08588  0  0.111154  0.077832  0  1.005154  0
H  H21  1  0.49379038  0.40098540  0.65750396  1  0.085576  0  0.11113  0.077835  0  1.00535  0
H  H22  1  0.49380670  0.90098915  0.34249705  1  0.086016  0  0.111122  0.077793  0  1.005321  0
H  H23  1  0.99379418  0.09901699  0.65750044  1  0.08552  0  0.111124  0.077774  0  1.005401  0
H  H24  1  0.72034268  0.45412843  0.43309146  1  0.106066  0  0.11064  0.111573  0  1.036994  0
H  H25  1  0.22034264  0.54587697  0.56690125  1  0.105935  0  0.11064  0.111596  0  1.036902  0
H  H26  1  0.22034177  0.04587742  0.43309325  1  0.106013  0  0.110612  0.111496  0  1.037053  0
H  H27  1  0.72034167  0.95412083  0.56690293  1  0.10594  0  0.110634  0.11157  0  1.036905  0
H  H28  1  0.05048296  0.16847752  0.29530568  1  0.106865  0  0.115162  0.118814  0  0.988388  0
H  H29  1  0.55050233  0.83152634  0.70468565  1  0.106771  0  0.115205  0.118916  0  0.988275  0
H  H30  1  0.55048669  0.33152860  0.29531271  1  0.106586  0  0.115229  0.118928  0  0.988269  0
H  H31  1  0.05049015  0.66847690  0.70468558  1  0.106747  0  0.115232  0.118879  0  0.988268  0
H  H32  1  0.46961259  0.18853426  0.59689184  1  0.072185  0  0.101261  0.103444  0  1.007369  0
H  H33  1  0.96962391  0.81146024  0.40310070  1  0.071937  0  0.101293  0.103505  0  1.007499  0
H  H34  1  0.96960770  0.31146411  0.59689620  1  0.072005  0  0.101301  0.10352  0  1.007532  0
H  H35  1  0.46961376  0.68853756  0.40310330  1  0.072035  0  0.101349  0.103554  0  1.007528  0
H  H36  1  0.47645963  0.31076545  0.09789338  1  0.07346  0  0.101644  0.10435  0  1.004658  0
H  H37  1  0.97645027  0.68923458  0.90210809  1  0.073432  0  0.101708  0.104368  0  1.004758  0
H  H38  1  0.97646131  0.18923637  0.09789862  1  0.073441  0  0.101675  0.104393  0  1.004772  0
H  H39  1  0.47647302  0.81076036  0.90210037  1  0.073356  0  0.101684  0.104439  0  1.004633  0
H  H40  1  0.59874631  0.27137501  0.52435250  1  0.112649  0  0.105499  0.112179  0  1.001429  0
H  H41  1  0.09874316  0.72862181  0.47564774  1  0.112561  0  0.10549  0.112154  0  1.001378  0
H  H42  1  0.09874400  0.22862324  0.52435645  1  0.112544  0  0.105552  0.112225  0  1.001348  0
H  H43  1  0.59874829  0.77137689  0.47564578  1  0.11256  0  0.105525  0.112155  0  1.001484  0
H  H44  1  0.79866879  0.58338260  0.41172151  1  0.094534  0  0.105717  0.111928  0  1.016634  0
H  H45  1  0.29865549  0.41662026  0.58827363  1  0.094458  0  0.105677  0.111806  0  1.016712  0
H  H46  1  0.29867263  0.91662255  0.41172866  1  0.094659  0  0.105738  0.11189  0  1.016711  0
H  H47  1  0.79865542  0.08337756  0.58827443  1  0.094537  0  0.105697  0.111852  0  1.016684  0
H  H48  1  0.60417746  0.22975640  0.02316124  1  0.134266  0  0.105159  0.111693  0  1.003486  0
H  H49  1  0.10416992  0.77024485  0.97683950  1  0.134348  0  0.10515  0.111656  0  1.00353  0
H  H50  1  0.10417640  0.27024253  0.02316507  1  0.134413  0  0.105101  0.111636  0  1.003562  0
H  H51  1  0.60418225  0.72975542  0.97683765  1  0.134223  0  0.105126  0.111678  0  1.00345  0
H  H52  1  0.74075301  0.04874910  0.94278778  1  0.125261  0  0.111577  0.112839  0  1.022499  0
H  H53  1  0.24075988  0.95124866  0.05721237  1  0.12533  0  0.111585  0.112825  0  1.022604  0
H  H54  1  0.24074960  0.45125625  0.94279126  1  0.125939  0  0.111563  0.112773  0  1.022638  0
H  H55  1  0.74075484  0.54874646  0.05721037  1  0.125168  0  0.111544  0.112751  0  1.022557  0
H  H56  1  0.03965907  0.33342768  0.78509729  1  0.098215  0  0.114387  0.117321  0  0.991017  0
H  H57  1  0.53965270  0.66656679  0.21489853  1  0.098028  0  0.114351  0.117281  0  0.990952  0
H  H58  1  0.53966057  0.16656773  0.78510381  1  0.097974  0  0.114365  0.11733  0  0.990962  0
H  H59  1  0.03966060  0.83343170  0.21489945  1  0.098044  0  0.114359  0.117242  0  0.991084  0
H  H60  1  0.27016676  0.16636867  0.69120862  1  0.141662  0  0.109741  0.07469  0  1.046472  0
H  H61  1  0.77016997  0.83362420  0.30878803  1  0.141283  0  0.109698  0.074639  0  1.046559  0
H  H62  1  0.77016768  0.33362853  0.69121715  1  0.141333  0  0.109669  0.074577  0  1.04654  0
H  H63  1  0.27016529  0.66637425  0.30878993  1  0.141504  0  0.109721  0.074693  0  1.046528  0
H  H64  1  0.01421740  0.90484879  0.85092534  1  0.089506  0  0.112634  0.080168  0  0.996725  0
H  H65  1  0.51422460  0.09514947  0.14907496  1  0.089518  0  0.112629  0.08021  0  0.996785  0
H  H66  1  0.51422681  0.59515098  0.85093369  1  0.089535  0  0.112711  0.080266  0  0.996772  0
H  H67  1  0.01422741  0.40485002  0.14906859  1  0.089532  0  0.112638  0.080219  0  0.996739  0
H  H68  1  0.21176819  0.30039701  0.70534917  1  0.094536  0  0.11042  0.116022  0  0.9861  0
H  H69  1  0.71176288  0.69959792  0.29464504  1  0.09451  0  0.110442  0.116045  0  0.986322  0
H  H70  1  0.71177183  0.19960129  0.70535947  1  0.094613  0  0.110413  0.116002  0  0.986253  0
H  H71  1  0.21177051  0.80040079  0.29464318  1  0.094506  0  0.110457  0.116014  0  0.986344  0
H  H72  1  0.82612732  0.92021930  0.92563651  1  0.099987  0  0.106476  0.113962  0  1.013482  0
H  H73  1  0.32613681  0.07977812  0.07436258  1  0.100094  0  0.1065  0.113993  0  1.013552  0
H  H74  1  0.32612855  0.57978320  0.92564060  1  0.100099  0  0.106469  0.113952  0  1.013606  0
H  H75  1  0.82613558  0.42021864  0.07435899  1  0.099989  0  0.106504  0.113985  0  1.013523  0
H  H76  1  0.22759653  0.20117363  0.21852000  1  0.077954  0  0.111121  0.117244  0  0.981594  0
H  H77  1  0.72761174  0.79882684  0.78147270  1  0.077883  0  0.111097  0.117117  0  0.981659  0
H  H78  1  0.72760469  0.29883047  0.21852772  1  0.077869  0  0.111086  0.117074  0  0.981706  0
H  H79  1  0.22760639  0.70117550  0.78146945  1  0.078033  0  0.111085  0.117048  0  0.981819  0
H  H80  1  0.27894517  0.33545628  0.20000697  1  0.13806  0  0.1103  0.075537  0  1.045152  0
H  H81  1  0.77894709  0.66454488  0.79998918  1  0.138138  0  0.110327  0.075617  0  1.045171  0
H  H82  1  0.77895136  0.16454941  0.20001596  1  0.138205  0  0.110283  0.075529  0  1.045252  0
H  H83  1  0.27894748  0.83545670  0.79998565  1  0.138226  0  0.110328  0.07561  0  1.045149  0
H  H84  1  0.87227145  0.15492287  0.37342124  1  0.551433  0  0.303441  0.251087  0  1.045025  0
H  H85  1  0.37227642  0.84507743  0.62657484  1  0.551414  0  0.303486  0.251137  0  1.045084  0
H  H86  1  0.37226533  0.34507889  0.37342575  1  0.55145  0  0.303471  0.251079  0  1.045173  0
H  H87  1  0.87226844  0.65492252  0.62657480  1  0.551488  0  0.303458  0.251097  0  1.045157  0
H  H88  1  0.87047586  0.34748747  0.86885474  1  0.538302  0  0.301863  0.248752  0  1.050655  0
H  H89  1  0.37047276  0.65251283  0.13114283  1  0.538362  0  0.301872  0.248757  0  1.050675  0
H  H90  1  0.37047483  0.15251302  0.86885849  1  0.538327  0  0.301896  0.24885  0  1.050594  0
H  H91  1  0.87047097  0.84748673  0.13114901  1  0.538231  0  0.301879  0.248747  0  1.050699  0
C  C92  1  0.97575904  0.41847893  0.33533214  1  0.533088  0  0.112446  0.110775  0  3.985061  0
C  C93  1  0.47575909  0.58152110  0.66466487  1  0.53391  0  0.112409  0.110671  0  3.985228  0
C  C94  1  0.47576028  0.08152435  0.33533376  1  0.533709  0  0.112374  0.110582  0  3.985278  0
C  C95  1  0.97575878  0.91848119  0.66466573  1  0.533276  0  0.112497  0.11079  0  3.985024  0
C  C96  1  0.67420884  0.10577043  0.45583770  1  -0.067845  0  -0.09382  -0.116531  0  3.983854  0
C  C97  1  0.17420871  0.89422660  0.54416249  1  -0.06772  0  -0.093742  -0.116462  0  3.983703  0
C  C98  1  0.17420029  0.39422563  0.45583769  1  -0.06756  0  -0.09367  -0.116234  0  3.983397  0
C  C99  1  0.67420881  0.60577414  0.54415803  1  -0.067587  0  -0.093739  -0.116388  0  3.983657  0
C  C100  1  0.60139093  0.05998659  0.49524551  1  -0.066921  0  -0.086475  -0.116074  0  3.98056  0
C  C101  1  0.10139029  0.94000969  0.50475076  1  -0.067134  0  -0.086373  -0.116029  0  3.980723  0
C  C102  1  0.10137051  0.44001136  0.49524839  1  -0.067305  0  -0.086523  -0.116233  0  3.98076  0
C  C103  1  0.60138063  0.55998878  0.50474738  1  -0.067102  0  -0.086521  -0.116235  0  3.980659  0
C  C104  1  0.83763563  0.33025503  0.39024409  1  0.489188  0  0.089848  0.096338  0  4.112622  0
C  C105  1  0.33763835  0.66974574  0.60975500  1  0.489262  0  0.08982  0.09624  0  4.112418  0
C  C106  1  0.33763850  0.16974792  0.39024701  1  0.489446  0  0.089912  0.096255  0  4.112415  0
C  C107  1  0.83764112  0.83025394  0.60975109  1  0.489576  0  0.08992  0.096432  0  4.112119  0
C  C108  1  0.67934148  0.39672399  0.95752660  1  -0.070842  0  -0.094188  -0.119521  0  3.982816  0
C  C109  1  0.17933629  0.60327745  0.04247458  1  -0.070802  0  -0.094126  -0.119347  0  3.982573  0
C  C110  1  0.17934384  0.10327749  0.95753090  1  -0.070619  0  -0.094027  -0.119407  0  3.982934  0
C  C111  1  0.67934616  0.89672175  0.04247128  1  -0.070755  0  -0.09406  -0.11934  0  3.982925  0
C  C112  1  0.90388614  0.27169549  0.36119834  1  0.403038  0  0.092359  0.081389  0  4.037441  0
C  C113  1  0.40389395  0.72830765  0.63879921  1  0.403511  0  0.09232  0.081386  0  4.037184  0
C  C114  1  0.40388852  0.22830842  0.36120328  1  0.402778  0  0.092383  0.081522  0  4.036904  0
C  C115  1  0.90389157  0.77169252  0.63879725  1  0.403123  0  0.092339  0.081417  0  4.036975  0
C  C116  1  0.87017300  0.40486285  0.37677080  1  -0.096042  0  0.005442  -8.3e-05  0  3.992075  0
C  C117  1  0.37017323  0.59513800  0.62322628  1  -0.096004  0  0.005496  3.6e-05  0  3.99194  0
C  C118  1  0.37017435  0.09513894  0.37677254  1  -0.096285  0  0.00551  0.000109  0  3.9918  0
C  C119  1  0.87017470  0.90486246  0.62322503  1  -0.09626  0  0.005466  -1.2e-05  0  3.991689  0
C  C120  1  0.52931945  0.08924559  0.54731052  1  0.020809  0  -0.003494  0.034238  0  4.017267  0
C  C121  1  0.02933185  0.91075270  0.45268679  1  0.020703  0  -0.003582  0.034165  0  4.017259  0
C  C122  1  0.02931103  0.41075273  0.54730917  1  0.021005  0  -0.00343  0.034382  0  4.017545  0
C  C123  1  0.52932336  0.58924721  0.45268715  1  0.020458  0  -0.003507  0.034349  0  4.017506  0
C  C124  1  0.75423778  0.23147587  0.42825946  1  0.941035  0  0.218431  0.292672  0  4.019558  0
C  C125  1  0.25423663  0.76852412  0.57173968  1  0.940985  0  0.218451  0.292581  0  4.019633  0
C  C126  1  0.25423577  0.26852506  0.42826526  1  0.941012  0  0.218467  0.292431  0  4.019974  0
C  C127  1  0.75424615  0.73147603  0.57173388  1  0.941146  0  0.218559  0.292612  0  4.019794  0
C  C128  1  0.60726914  0.44150391  0.99829225  1  -0.022277  0  -0.087454  -0.115437  0  3.983743  0
C  C129  1  0.10725617  0.55849569  0.00171146  1  -0.021789  0  -0.08755  -0.115597  0  3.98387  0
C  C130  1  0.10727115  0.05849507  0.99829763  1  -0.022411  0  -0.087531  -0.115581  0  3.983718  0
C  C131  1  0.60727765  0.94150343  0.00170459  1  -0.022356  0  -0.087441  -0.115551  0  3.983698  0
C  C132  1  0.95515073  0.54440193  0.35227689  1  0.508282  0  0.044445  0.090243  0  3.973963  0
C  C133  1  0.45514326  0.45559914  0.64771913  1  0.508776  0  0.04458  0.090264  0  3.973991  0
C  C134  1  0.45515486  0.95560244  0.35228042  1  0.508357  0  0.044528  0.090341  0  3.973986  0
C  C135  1  0.95514664  0.04440139  0.64771809  1  0.508859  0  0.044596  0.090408  0  3.973925  0
C  C136  1  0.68016816  0.32008145  0.96684860  1  0.014027  0  -0.011008  0.005727  0  4.034345  0
C  C137  1  0.18015888  0.67991945  0.03315109  1  0.013991  0  -0.011048  0.00566  0  4.034583  0
C  C138  1  0.18017111  0.17991518  0.96685360  1  0.014009  0  -0.011173  0.00564  0  4.034534  0
C  C139  1  0.68017003  0.82008461  0.03315156  1  0.01393  0  -0.011054  0.005752  0  4.034379  0
C  C140  1  0.67536596  0.18210864  0.46676957  1  -0.009477  0  -0.011428  0.005734  0  4.036239  0
C  C141  1  0.17536245  0.81788783  0.53322714  1  -0.009668  0  -0.011464  0.005737  0  4.036437  0
C  C142  1  0.17535682  0.31788754  0.46677532  1  -0.009792  0  -0.011486  0.005718  0  4.036638  0
C  C143  1  0.67536783  0.68210949  0.53322040  1  -0.009803  0  -0.011479  0.005673  0  4.036552  0
C  C144  1  0.00649637  0.28263027  0.31690462  1  0.102273  0  0.001084  -0.015382  0  4.014633  0
C  C145  1  0.50650455  0.71737182  0.68308873  1  0.102389  0  0.001108  -0.015354  0  4.014565  0
C  C146  1  0.50650296  0.21737487  0.31690961  1  0.102615  0  0.001157  -0.015257  0  4.014426  0
C  C147  1  0.00650078  0.78262942  0.68309019  1  0.102098  0  0.001133  -0.015351  0  4.014455  0
C  C148  1  0.46844036  0.45963650  0.09548453  1  0.905491  0  0.200042  0.22503  0  4.082931  0
C  C149  1  0.96842232  0.54036571  0.90452291  1  0.90555  0  0.20015  0.225182  0  4.082937  0
C  C150  1  0.96844652  0.04036638  0.09549040  1  0.904989  0  0.199959  0.225003  0  4.082866  0
C  C151  1  0.46845374  0.95963308  0.90451009  1  0.905142  0  0.200058  0.224885  0  4.083127  0
C  C152  1  0.80413019  0.46500128  0.40365527  1  0.090423  0  -0.058011  -0.046229  0  3.894075  0
C  C153  1  0.30412907  0.53500050  0.59634036  1  0.090403  0  -0.058008  -0.046265  0  3.894274  0
C  C154  1  0.30413107  0.03500393  0.40365747  1  0.090564  0  -0.057962  -0.046092  0  3.894293  0
C  C155  1  0.80412912  0.96499730  0.59634015  1  0.090435  0  -0.058052  -0.046263  0  3.894192  0
C  C156  1  0.04284067  0.35727994  0.30406785  1  0.459547  0  0.114166  0.113118  0  3.963576  0
C  C157  1  0.54284544  0.64272225  0.69592797  1  0.459478  0  0.1142  0.113168  0  3.963523  0
C  C158  1  0.54284200  0.14272460  0.30407266  1  0.459286  0  0.114157  0.113101  0  3.96358  0
C  C159  1  0.04284224  0.85728198  0.69592911  1  0.459582  0  0.114163  0.113039  0  3.963605  0
C  C160  1  0.53578667  0.41128528  0.05015897  1  0.033674  0  -0.002602  0.034553  0  4.013601  0
C  C161  1  0.03576932  0.58871578  0.94984826  1  0.033143  0  -0.00259  0.034448  0  4.013875  0
C  C162  1  0.03579267  0.08871815  0.05016562  1  0.033721  0  -0.002511  0.034913  0  4.013583  0
C  C163  1  0.53579715  0.91128071  0.94983516  1  0.033807  0  -0.002626  0.034808  0  4.01348  0
C  C164  1  0.07517896  0.22580048  0.28564348  1  -0.047815  0  -0.062069  -0.058076  0  3.91331  0
C  C165  1  0.57519599  0.77420179  0.71434685  1  -0.047891  0  -0.062126  -0.0582  0  3.913256  0
C  C166  1  0.57518506  0.27420560  0.28565296  1  -0.047926  0  -0.062129  -0.058309  0  3.913502  0
C  C167  1  0.07518519  0.72580107  0.71434729  1  -0.047206  0  -0.062138  -0.058143  0  3.9135  0
C  C168  1  0.52700513  0.16595815  0.55695893  1  -0.035332  0  -0.088998  -0.119709  0  3.988761  0
C  C169  1  0.02701037  0.83403628  0.44303392  1  -0.034799  0  -0.08898  -0.119761  0  3.988573  0
C  C170  1  0.02699329  0.33403972  0.55696482  1  -0.034943  0  -0.089054  -0.119916  0  3.988591  0
C  C171  1  0.52700435  0.66596077  0.44303150  1  -0.034967  0  -0.08901  -0.119886  0  3.988579  0
C  C172  1  0.53346517  0.33436526  0.05828241  1  -0.04611  0  -0.088015  -0.115847  0  3.983752  0
C  C173  1  0.03344938  0.66563469  0.94172085  1  -0.046288  0  -0.088099  -0.115803  0  3.9838  0
C  C174  1  0.03346895  0.16563330  0.05829076  1  -0.04633  0  -0.088127  -0.116181  0  3.983956  0
C  C175  1  0.53347943  0.83436280  0.94171300  1  -0.046654  0  -0.088107  -0.116116  0  3.983927  0
C  C176  1  0.59862298  0.21191980  0.51708888  1  -0.049504  0  -0.084544  -0.103081  0  3.968005  0
C  C177  1  0.09862685  0.78807647  0.48290938  1  -0.049866  0  -0.084585  -0.103049  0  3.968092  0
C  C178  1  0.09862300  0.28807507  0.51708989  1  -0.049818  0  -0.084652  -0.10312  0  3.96796  0
C  C179  1  0.59863340  0.71192451  0.48290638  1  -0.049849  0  -0.084599  -0.102977  0  3.967924  0
C  C180  1  0.84680184  0.53556055  0.39123157  1  -0.100877  0  -0.084041  -0.126207  0  3.979593  0
C  C181  1  0.34679169  0.46444354  0.60876254  1  -0.101065  0  -0.084018  -0.125997  0  3.97957  0
C  C182  1  0.34680416  0.96444561  0.39123666  1  -0.101057  0  -0.084091  -0.126273  0  3.979742  0
C  C183  1  0.84679312  0.03555463  0.60876192  1  -0.101107  0  -0.084032  -0.12614  0  3.979542  0
C  C184  1  0.60422844  0.28937229  0.01709970  1  -0.10637  0  -0.085479  -0.104395  0  3.968109  0
C  C185  1  0.10421949  0.71062896  0.98290402  1  -0.106345  0  -0.08547  -0.104414  0  3.968225  0
C  C186  1  0.10423444  0.21062932  0.01710497  1  -0.106439  0  -0.085346  -0.104252  0  3.967893  0
C  C187  1  0.60423416  0.78937027  0.98289775  1  -0.105789  0  -0.085484  -0.104444  0  3.967932  0
C  C188  1  0.75806037  0.27101240  0.92736788  1  0.969896  0  0.219122  0.29479  0  4.014795  0
C  C189  1  0.25805798  0.72898871  0.07262928  1  0.969925  0  0.219101  0.294844  0  4.014707  0
C  C190  1  0.25806088  0.22898897  0.92737381  1  0.969873  0  0.219214  0.295036  0  4.014638  0
C  C191  1  0.75805747  0.77101103  0.07263377  1  0.969965  0  0.219171  0.294823  0  4.014611  0
C  C192  1  0.90466175  0.23073628  0.85839634  1  0.332906  0  0.092348  0.08382  0  4.033039  0
C  C193  1  0.40466141  0.76926081  0.14160121  1  0.332873  0  0.092349  0.083815  0  4.033087  0
C  C194  1  0.40466350  0.26926198  0.85840265  1  0.332057  0  0.092377  0.08381  0  4.032927  0
C  C195  1  0.90465778  0.73073731  0.14160434  1  0.332892  0  0.092405  0.08394  0  4.032963  0
C  C196  1  0.84374482  0.17228316  0.89065940  1  0.516684  0  0.090486  0.096625  0  4.11542  0
C  C197  1  0.34374688  0.82771817  0.10933819  1  0.516588  0  0.090406  0.096611  0  4.115544  0
C  C198  1  0.34375079  0.32772024  0.89067020  1  0.517447  0  0.090175  0.096578  0  4.11534  0
C  C199  1  0.84374373  0.67228164  0.10933831  1  0.516574  0  0.090373  0.096561  0  4.115502  0
C  C200  1  0.88044002  0.09783550  0.87974540  1  0.041961  0  0.006745  0.002268  0  3.99071  0
C  C201  1  0.38044357  0.90216042  0.12025465  1  0.04202  0  0.006841  0.002308  0  3.990755  0
C  C202  1  0.38044656  0.40216182  0.87975688  1  0.04235  0  0.00678  0.00199  0  3.991064  0
C  C203  1  0.88044079  0.59783905  0.12025161  1  0.04196  0  0.006808  0.002168  0  3.990637  0
C  C204  1  0.00472234  0.21970505  0.81249236  1  0.045737  0  0.001701  -0.014072  0  4.009554  0
C  C205  1  0.50471785  0.78029263  0.18750596  1  0.045912  0  0.001702  -0.014106  0  4.009573  0
C  C206  1  0.50472097  0.28029496  0.81250140  1  0.045937  0  0.001864  -0.014026  0  4.009402  0
C  C207  1  0.00471735  0.71970492  0.18750635  1  0.045928  0  0.001672  -0.014127  0  4.009554  0
C  C208  1  0.98355065  0.08430733  0.83664830  1  0.49609  0  0.112322  0.109913  0  3.98476  0
C  C209  1  0.48355422  0.91569107  0.16335367  1  0.496068  0  0.112339  0.110007  0  3.984776  0
C  C210  1  0.48355729  0.41569201  0.83665841  1  0.49593  0  0.112343  0.110022  0  3.984993  0
C  C211  1  0.98355039  0.58430914  0.16335100  1  0.496066  0  0.112382  0.110053  0  3.984575  0
C  C212  1  0.82167607  0.03787834  0.91124185  1  -0.069536  0  -0.056042  -0.044953  0  3.896689  0
C  C213  1  0.32168202  0.96212183  0.08875675  1  -0.069464  0  -0.056108  -0.045045  0  3.896799  0
C  C214  1  0.32167649  0.46212412  0.91125338  1  -0.070826  0  -0.055986  -0.044783  0  3.896229  0
C  C215  1  0.82167971  0.53787550  0.08875366  1  -0.06939  0  -0.056055  -0.044841  0  3.896427  0
C  C216  1  0.04467754  0.14521280  0.80172632  1  0.499986  0  0.11403  0.111783  0  3.960646  0
C  C217  1  0.54467361  0.85478333  0.19827346  1  0.499686  0  0.11395  0.111585  0  3.96085  0
C  C218  1  0.54467956  0.35478500  0.80173703  1  0.499922  0  0.113994  0.111769  0  3.961028  0
C  C219  1  0.04466971  0.64521554  0.19827168  1  0.49971  0  0.113928  0.111588  0  3.960782  0
C  C220  1  0.06733552  0.27619112  0.77735851  1  -0.065209  0  -0.062109  -0.057988  0  3.908453  0
C  C221  1  0.56733052  0.72380397  0.22263877  1  -0.06368  0  -0.06193  -0.057684  0  3.907857  0
C  C222  1  0.56733747  0.22380482  0.77736655  1  -0.064667  0  -0.06203  -0.057882  0  3.907976  0
C  C223  1  0.06733609  0.77619522  0.22263918  1  -0.065034  0  -0.061982  -0.057743  0  3.90795  0
C  C224  1  0.46225469  0.04009917  0.59192563  1  0.917446  0  0.200681  0.225338  0  4.086464  0
C  C225  1  0.96226245  0.95989697  0.40806939  1  0.917662  0  0.200655  0.225442  0  4.086844  0
C  C226  1  0.96223591  0.45989692  0.59192538  1  0.916444  0  0.200558  0.225315  0  4.086642  0
C  C227  1  0.46224928  0.54010252  0.40807114  1  0.916689  0  0.200656  0.225382  0  4.086577  0
C  C228  1  0.19635014  0.18372299  0.72559656  1  0.448751  0  0.042821  0.083623  0  3.960145  0
C  C229  1  0.69634952  0.81626969  0.27440064  1  0.449456  0  0.042922  0.083727  0  3.96018  0
C  C230  1  0.69635186  0.31627383  0.72560692  1  0.449419  0  0.042988  0.083858  0  3.959858  0
C  C231  1  0.19634967  0.68372876  0.27440070  1  0.449065  0  0.04291  0.083644  0  3.960071  0
C  C232  1  0.97286808  0.95902848  0.85949193  1  0.472712  0  0.046653  0.092087  0  3.970387  0
C  C233  1  0.47287621  0.04097099  0.14050657  1  0.472539  0  0.046502  0.091815  0  3.970358  0
C  C234  1  0.47287465  0.54097204  0.85950411  1  0.472422  0  0.046335  0.091698  0  3.970398  0
C  C235  1  0.97287434  0.45902798  0.14050184  1  0.472671  0  0.046485  0.091814  0  3.970259  0
C  C236  1  0.16279654  0.25803411  0.73361792  1  0.018628  0  -0.084511  -0.125676  0  3.996468  0
C  C237  1  0.66279536  0.74196013  0.26638029  1  0.017047  0  -0.084731  -0.125956  0  3.996341  0
C  C238  1  0.66280050  0.24196327  0.73362612  1  0.018475  0  -0.084639  -0.125841  0  3.996367  0
C  C239  1  0.16279985  0.75803924  0.26637904  1  0.01846  0  -0.084654  -0.125775  0  3.996374  0
C  C240  1  0.86821718  0.96773184  0.90123058  1  0.01083  0  -0.082901  -0.125517  0  3.978351  0
C  C241  1  0.36822626  0.03226571  0.09876749  1  0.010838  0  -0.082834  -0.125374  0  3.978545  0
C  C242  1  0.36822650  0.53227217  0.90124020  1  0.010469  0  -0.082862  -0.125426  0  3.978362  0
C  C243  1  0.86822446  0.46773198  0.09876334  1  0.010737  0  -0.082802  -0.125383  0  3.978414  0
C  C244  1  0.17323102  0.24379433  0.24349782  1  -0.040195  0  -0.084344  -0.12523  0  3.99754  0
C  C245  1  0.67324313  0.75620655  0.75649194  1  -0.040018  0  -0.084291  -0.12493  0  3.997552  0
C  C246  1  0.67323886  0.25621046  0.24350913  1  -0.039912  0  -0.084352  -0.124881  0  3.997607  0
C  C247  1  0.17323623  0.74379593  0.75649106  1  -0.040359  0  -0.084343  -0.124947  0  3.997801  0
C  C248  1  0.20294067  0.31829866  0.23315946  1  0.479293  0  0.043388  0.085301  0  3.959642  0
C  C249  1  0.70295218  0.68170284  0.76683674  1  0.478963  0  0.043218  0.08491  0  3.959506  0
C  C250  1  0.70295263  0.18170609  0.23316711  1  0.478992  0  0.043383  0.085138  0  3.959514  0
C  C251  1  0.20294868  0.81829927  0.76683356  1  0.47874  0  0.043317  0.085107  0  3.959324  0
N  N252  1  0.01656473  0.48812190  0.32496132  1  -1.215959  0  -0.326929  -0.256409  0  3.519385  0
N  N253  1  0.51655724  0.51187801  0.67503501  1  -1.216501  0  -0.32697  -0.256493  0  3.519694  0
N  N254  1  0.51656316  0.01188224  0.32496445  1  -1.216621  0  -0.326974  -0.256436  0  3.519774  0
N  N255  1  0.01655881  0.98812373  0.67503436  1  -1.216048  0  -0.327033  -0.256584  0  3.51967  0
N  N256  1  0.38127250  0.43740583  0.14003821  1  -0.663875  0  -0.227055  -0.281  0  3.192901  0
N  N257  1  0.88126506  0.56259340  0.85996532  1  -0.664116  0  -0.227021  -0.280967  0  3.193005  0
N  N258  1  0.88128166  0.06259785  0.14004726  1  -0.663808  0  -0.227022  -0.281151  0  3.192791  0
N  N259  1  0.38129255  0.93740193  0.85995080  1  -0.663977  0  -0.227014  -0.280993  0  3.193056  0
N  N260  1  0.13986839  0.37274247  0.26273992  1  -1.242477  0  -0.32443  -0.255212  0  3.497515  0
N  N261  1  0.63986920  0.62725722  0.73725533  1  -1.242356  0  -0.324367  -0.255071  0  3.497199  0
N  N262  1  0.63987147  0.12726188  0.26274559  1  -1.242316  0  -0.324455  -0.255181  0  3.497285  0
N  N263  1  0.13986800  0.87274441  0.73725463  1  -1.242375  0  -0.324425  -0.255136  0  3.497311  0
N  N264  1  0.34710705  0.49919590  0.17083711  1  -0.219037  0  -0.133478  -0.066905  0  3.533801  0
N  N265  1  0.84710107  0.50080379  0.82916594  1  -0.219095  0  -0.133491  -0.066801  0  3.533773  0
N  N266  1  0.84711009  0.00080581  0.17084312  1  -0.218973  0  -0.13352  -0.066822  0  3.53385  0
N  N267  1  0.34711776  0.99919442  0.82915794  1  -0.219112  0  -0.13349  -0.066892  0  3.533954  0
N  N268  1  0.84870546  0.20900219  0.38571791  1  -1.268706  0  -0.366295  -0.281459  0  3.581319  0
N  N269  1  0.34870910  0.79099860  0.61427968  1  -1.269109  0  -0.366278  -0.281447  0  3.581272  0
N  N270  1  0.34870550  0.29100129  0.38572341  1  -1.268302  0  -0.366298  -0.281386  0  3.581281  0
N  N271  1  0.84871094  0.70900060  0.61427666  1  -1.26878  0  -0.366354  -0.281486  0  3.581445  0
N  N272  1  0.74581223  0.30483568  0.43158091  1  -1.127285  0  -0.33672  -0.393185  0  3.201721  0
N  N273  1  0.24580864  0.69516428  0.56841824  1  -1.127306  0  -0.336718  -0.39312  0  3.201704  0
N  N274  1  0.24581529  0.19516471  0.43158505  1  -1.127361  0  -0.336811  -0.393124  0  3.201878  0
N  N275  1  0.74582061  0.80483471  0.56841162  1  -1.12736  0  -0.336825  -0.393194  0  3.201993  0
N  N276  1  0.41102929  0.55672473  0.14675494  1  -0.193135  0  -0.110713  -0.105996  0  3.372267  0
N  N277  1  0.91101531  0.44327458  0.85325353  1  -0.193433  0  -0.110725  -0.106157  0  3.372319  0
N  N278  1  0.91102448  0.94327731  0.14675652  1  -0.193042  0  -0.110703  -0.106001  0  3.372142  0
N  N279  1  0.41102951  0.05672255  0.85324897  1  -0.192617  0  -0.110815  -0.106195  0  3.372276  0
N  N280  1  0.48777511  0.53320004  0.09904628  1  -0.643523  0  -0.227337  -0.276674  0  3.202372  0
N  N281  1  0.98775652  0.46679947  0.90096611  1  -0.64298  0  -0.227429  -0.276732  0  3.202249  0
N  N282  1  0.98777330  0.96680334  0.09904757  1  -0.643401  0  -0.227321  -0.276691  0  3.202394  0
N  N283  1  0.48777618  0.03319782  0.90095687  1  -0.643561  0  -0.22728  -0.276489  0  3.202406  0
N  N284  1  0.75360472  0.19768289  0.93296910  1  -1.156892  0  -0.337574  -0.393921  0  3.204374  0
N  N285  1  0.25360854  0.80231765  0.06702856  1  -1.156958  0  -0.337543  -0.393948  0  3.204448  0
N  N286  1  0.25361049  0.30231632  0.93297868  1  -1.157236  0  -0.337559  -0.39403  0  3.204272  0
N  N287  1  0.75360559  0.69768201  0.06703039  1  -1.156979  0  -0.337569  -0.393933  0  3.20436  0
N  N288  1  0.84796009  0.29341208  0.88207639  1  -1.239735  0  -0.366441  -0.282639  0  3.57731  0
N  N289  1  0.34795838  0.70658816  0.11792169  1  -1.239692  0  -0.366389  -0.28261  0  3.577411  0
N  N290  1  0.34795761  0.20658739  0.88207965  1  -1.239651  0  -0.366358  -0.282679  0  3.577344  0
N  N291  1  0.84795617  0.79341340  0.11792738  1  -1.23967  0  -0.366432  -0.282641  0  3.577374  0
N  N292  1  0.37479098  0.06154559  0.63651923  1  -0.66313  0  -0.225831  -0.279338  0  3.194686  0
N  N293  1  0.87480900  0.93844866  0.36347288  1  -0.663586  0  -0.225731  -0.279267  0  3.195053  0
N  N294  1  0.87477674  0.43844965  0.63652027  1  -0.662916  0  -0.225631  -0.279159  0  3.194626  0
N  N295  1  0.37478190  0.56155176  0.36347978  1  -0.662853  0  -0.225654  -0.279227  0  3.194564  0
N  N296  1  0.48345534  0.96673598  0.59541826  1  -0.63185  0  -0.224556  -0.27493  0  3.215029  0
N  N297  1  0.98344842  0.03326187  0.40458569  1  -0.63179  0  -0.224568  -0.275098  0  3.215295  0
N  N298  1  0.98342856  0.53326228  0.59541315  1  -0.63163  0  -0.224515  -0.27511  0  3.215171  0
N  N299  1  0.48344231  0.46673942  0.40458038  1  -0.631393  0  -0.224625  -0.275116  0  3.215122  0
N  N300  1  0.40772427  0.94245628  0.64323445  1  -0.21625  0  -0.109658  -0.104856  0  3.363982  0
N  N301  1  0.90771669  0.05754137  0.35677054  1  -0.215843  0  -0.109704  -0.104766  0  3.363966  0
N  N302  1  0.90769580  0.55754119  0.64322956  1  -0.215768  0  -0.109743  -0.104948  0  3.363841  0
N  N303  1  0.40770193  0.44245921  0.35676749  1  -0.216018  0  -0.109678  -0.104904  0  3.363778  0
N  N304  1  0.13935106  0.12962840  0.75893357  1  -1.252242  0  -0.323488  -0.253688  0  3.493889  0
N  N305  1  0.63935092  0.87036798  0.24106714  1  -1.252162  0  -0.323432  -0.253623  0  3.493873  0
N  N306  1  0.63935414  0.37036918  0.75894442  1  -1.252054  0  -0.323647  -0.253858  0  3.493927  0
N  N307  1  0.13934878  0.62962995  0.24106572  1  -1.252033  0  -0.323473  -0.253676  0  3.493739  0
N  N308  1  0.02753686  0.01503331  0.82809355  1  -1.223849  0  -0.32857  -0.256964  0  3.533808  0
N  N309  1  0.52754150  0.98496333  0.17190723  1  -1.223791  0  -0.328496  -0.256833  0  3.533623  0
N  N310  1  0.52754553  0.48496417  0.82810346  1  -1.223409  0  -0.328367  -0.25669  0  3.533331  0
N  N311  1  0.02754035  0.51503522  0.17190328  1  -1.223711  0  -0.328547  -0.256893  0  3.533405  0
N  N312  1  0.34238814  0.99945780  0.66733253  1  -0.224488  0  -0.135082  -0.065837  0  3.537332  0
N  N313  1  0.84239520  0.00053692  0.33266506  1  -0.224744  0  -0.135073  -0.065939  0  3.537546  0
N  N314  1  0.84236769  0.50053701  0.66733060  1  -0.224866  0  -0.135178  -0.065801  0  3.537528  0
N  N315  1  0.34236866  0.49946267  0.33267047  1  -0.22478  0  -0.135174  -0.065829  0  3.53753  0
