# generated using pymatgen
data_KH9C13(NF)2
_symmetry_space_group_name_H-M   'P 1'
_cell_length_a   3.97791909
_cell_length_b   11.53466695
_cell_length_c   25.03500000
_cell_angle_alpha   90.00000000
_cell_angle_beta   91.98643275
_cell_angle_gamma   90.00000000
_symmetry_Int_Tables_number   1
_chemical_formula_structural   KH9C13(NF)2
_chemical_formula_sum   'K4 H36 C52 N8 F8'
_cell_volume   1148.01493572
_cell_formula_units_Z   4
loop_
 _symmetry_equiv_pos_site_id
 _symmetry_equiv_pos_as_xyz
  1  'x, y, z'
loop_
 _atom_site_type_symbol
 _atom_site_label
 _atom_site_symmetry_multiplicity
 _atom_site_fract_x
 _atom_site_fract_y
 _atom_site_fract_z
 _atom_site_occupancy
 _atom_site_hle17_bader_spin_density
 _atom_site_hle17_ddec_charge
 _atom_site_hle17_ddec_spin_density
 _atom_site_hle17_ddec_sum_bond_order
 _atom_site_hle17_magmom
 _atom_site_hse06_10hf_bader_spin_density
 _atom_site_hse06_10hf_ddec_charge
 _atom_site_hse06_10hf_ddec_spin_density
 _atom_site_hse06_10hf_ddec_sum_bond_order
 _atom_site_hse06_10hf_magmom
 _atom_site_hse06_bader_spin_density
 _atom_site_hse06_ddec_charge
 _atom_site_hse06_ddec_spin_density
 _atom_site_hse06_ddec_sum_bond_order
 _atom_site_hse06_magmom
 _atom_site_pbe_bader_charge
 _atom_site_pbe_bader_spin_density
 _atom_site_pbe_cm5_charge
 _atom_site_pbe_ddec_charge
 _atom_site_pbe_ddec_spin_density
 _atom_site_pbe_ddec_sum_bond_order
 _atom_site_pbe_magmom
K  K0  1  0.59161692  0.14207519  0.02286901  1  0  0.88977  0  0.507317  0  0  0.805772  0  0.721149  0  0  0.823359  0  0.699445  0  0.867368  0  0.811904  0.792788  0  0.736636  0
K  K1  1  0.09161549  0.35792624  0.52286848  1  0  0.889754  0  0.507345  0  0  0.805777  0  0.721136  0  0  0.823371  0  0.699427  0  0.867372  0  0.81189  0.792797  0  0.736621  0
K  K2  1  0.40838091  0.85792681  0.97713162  1  0  0.889779  0  0.507318  0  0  0.805805  0  0.72111  0  0  0.82339  0  0.6994  0  0.867381  0  0.811915  0.792824  0  0.736594  0
K  K3  1  0.90838486  0.64207489  0.47713136  1  0  0.88977  0  0.50731  0  0  0.805777  0  0.721132  0  0  0.823367  0  0.699425  0  0.867376  0  0.811898  0.792796  0  0.736616  0
H  H4  1  0.24094657  0.51183186  0.96730310  1  0  0.12113  0  0.954626  0  0  0.12727  0  1.021217  0  0  0.131149  0  1.018021  0  0.101608  0  0.105852  0.124422  0  1.023632  0
H  H5  1  0.74094549  0.98816637  0.46730401  1  0  0.121078  0  0.954675  0  0  0.127246  0  1.021245  0  0  0.131109  0  1.018067  0  0.101575  0  0.10583  0.124399  0  1.023657  0
H  H6  1  0.75905378  0.48816754  0.03269634  1  0  0.121099  0  0.954672  0  0  0.127267  0  1.021234  0  0  0.131127  0  1.018062  0  0.10144  0  0.105845  0.124418  0  1.023651  0
H  H7  1  0.25905234  0.01183389  0.53269541  1  0  0.12109  0  0.954662  0  0  0.127255  0  1.021235  0  0  0.131117  0  1.018057  0  0.101419  0  0.10583  0.124406  0  1.02365  0
H  H8  1  0.52306755  0.54688965  0.88060570  1  0  0.089588  0  0.977476  0  0  0.094613  0  1.047288  0  0  0.097957  0  1.04553  0  0.069665  0  0.094506  0.092227  0  1.048598  0
H  H9  1  0.02306863  0.95311031  0.38060638  1  0  0.089593  0  0.97746  0  0  0.094603  0  1.047278  0  0  0.097948  0  1.04552  0  0.069779  0  0.094503  0.092219  0  1.048592  0
H  H10  1  0.47693029  0.45310974  0.11939373  1  0  0.089598  0  0.977437  0  0  0.094616  0  1.047265  0  0  0.09796  0  1.045507  0  0.069778  0  0.094506  0.09223  0  1.048574  0
H  H11  1  0.97692920  0.04689169  0.61939304  1  0  0.089598  0  0.977436  0  0  0.094617  0  1.047247  0  0  0.097961  0  1.045491  0  0.069761  0  0.094493  0.09223  0  1.048556  0
H  H12  1  0.60746890  0.37931221  0.81883609  1  0  0.078015  0  0.979659  0  0  0.089841  0  1.043902  0  0  0.09182  0  1.043748  0  0.063541  0  0.092995  0.088431  0  1.04403  0
H  H13  1  0.10746747  0.12068662  0.31883716  1  0  0.078063  0  0.979599  0  0  0.089882  0  1.043849  0  0  0.091861  0  1.043694  0  0.063579  0  0.093011  0.088466  0  1.043984  0
H  H14  1  0.39252642  0.62068632  0.18116333  1  0  0.078136  0  0.979536  0  0  0.089913  0  1.04383  0  0  0.091893  0  1.043673  0  0.063549  0  0.093002  0.088499  0  1.043964  0
H  H15  1  0.89253288  0.87931364  0.68116228  1  0  0.078157  0  0.979546  0  0  0.089881  0  1.043894  0  0  0.091861  0  1.043737  0  0.063598  0  0.092996  0.088464  0  1.044032  0
H  H16  1  0.41260928  0.18519217  0.84210118  1  0  0.083439  0  0.978207  0  0  0.094566  0  1.043333  0  0  0.096924  0  1.04208  0  0.018378  0  0.09565  0.092833  0  1.044383  0
H  H17  1  0.91261071  0.31480666  0.34210131  1  0  0.083389  0  0.978221  0  0  0.094508  0  1.043364  0  0  0.096867  0  1.042108  0  0.01841  0  0.095635  0.092776  0  1.044413  0
H  H18  1  0.58738855  0.81480636  0.15789905  1  0  0.083414  0  0.978198  0  0  0.094528  0  1.043347  0  0  0.096888  0  1.042092  0  0.018371  0  0.095642  0.092794  0  1.044401  0
H  H19  1  0.08739215  0.68519447  0.65789775  1  0  0.083401  0  0.978276  0  0  0.094539  0  1.043392  0  0  0.09689  0  1.042145  0  0.018441  0  0.095637  0.092805  0  1.044444  0
H  H20  1  0.93547308  0.60091809  0.81111279  1  0  0.116785  0  0.938842  0  0  0.131076  0  0.993316  0  0  0.133581  0  0.992589  0  0.097029  0  0.10798  0.129275  0  0.993919  0
H  H21  1  0.43546410  0.89908448  0.31111142  1  0  0.116799  0  0.938863  0  0  0.131061  0  0.99336  0  0  0.133562  0  0.992634  0  0.09704  0  0.107978  0.12926  0  0.993962  0
H  H22  1  0.06453230  0.39908218  0.18888948  1  0  0.116799  0  0.938814  0  0  0.131079  0  0.993287  0  0  0.133584  0  0.99256  0  0.09704  0  0.10797  0.129277  0  0.99389  0
H  H23  1  0.56453373  0.10091665  0.68888801  1  0  0.116797  0  0.938825  0  0  0.131055  0  0.993332  0  0  0.133557  0  0.992606  0  0.097051  0  0.107958  0.129253  0  0.993934  0
H  H24  1  0.57989773  0.68045224  0.73423326  1  0  0.079505  0  0.965994  0  0  0.089478  0  1.029967  0  0  0.092158  0  1.029029  0  0.016429  0  0.092421  0.08756  0  1.030709  0
H  H25  1  0.07989126  0.81954772  0.23423111  1  0  0.079554  0  0.965913  0  0  0.089502  0  1.029917  0  0  0.092182  0  1.02898  0  0.016352  0  0.092421  0.087582  0  1.030661  0
H  H26  1  0.42011269  0.31954629  0.26576823  1  0  0.079463  0  0.965988  0  0  0.089442  0  1.029964  0  0  0.092125  0  1.029019  0  0.016369  0  0.092386  0.087506  0  1.030724  0
H  H27  1  0.92011160  0.18045168  0.76576834  1  0  0.079464  0  0.965973  0  0  0.089444  0  1.02995  0  0  0.092126  0  1.029008  0  0.016363  0  0.092378  0.087512  0  1.030705  0
H  H28  1  0.38493749  0.88551668  0.73757729  1  0  0.082457  0  0.971473  0  0  0.094547  0  1.03358  0  0  0.09689  0  1.032946  0  0.068328  0  0.094896  0.092813  0  1.03415  0
H  H29  1  0.88494395  0.61448155  0.23757665  1  0  0.082493  0  0.971431  0  0  0.094571  0  1.033558  0  0  0.096911  0  1.032924  0  0.068213  0  0.09489  0.092836  0  1.034131  0
H  H30  1  0.61507041  0.11448098  0.26242299  1  0  0.082447  0  0.971447  0  0  0.094511  0  1.0336  0  0  0.096864  0  1.032953  0  0.068243  0  0.094869  0.092776  0  1.034171  0
H  H31  1  0.11506394  0.38551785  0.76242204  1  0  0.082459  0  0.971444  0  0  0.094518  0  1.033602  0  0  0.096869  0  1.03296  0  0.068291  0  0.094875  0.092782  0  1.034176  0
H  H32  1  0.53288008  0.00863657  0.81564556  1  0  0.08874  0  0.970358  0  0  0.100841  0  1.032277  0  0  0.103355  0  1.031017  0  0.0293  0  0.096689  0.098962  0  1.033408  0
H  H33  1  0.03288368  0.49136399  0.31564506  1  0  0.088758  0  0.970377  0  0  0.100869  0  1.032279  0  0  0.103382  0  1.031019  0  0.0293  0  0.096701  0.09899  0  1.033409  0
H  H34  1  0.46712279  0.99136282  0.18435469  1  0  0.088756  0  0.970375  0  0  0.100867  0  1.032271  0  0  0.103376  0  1.031016  0  0.029283  0  0.096714  0.098988  0  1.033403  0
H  H35  1  0.96711667  0.50863627  0.68435438  1  0  0.08875  0  0.970374  0  0  0.100858  0  1.032277  0  0  0.103373  0  1.031014  0  0.029308  0  0.0967  0.098978  0  1.03341  0
H  H36  1  0.98870122  0.08472113  0.85378702  1  0  0.007371  0  0.963226  0  0  0.025713  0  1.032129  0  0  0.026677  0  1.028695  0  0.033063  0  0.10444  0.024937  0  1.034583  0
H  H37  1  0.48869979  0.41527857  0.35378729  1  0  0.007356  0  0.963233  0  0  0.025697  0  1.032134  0  0  0.026662  0  1.028699  0  0.033067  0  0.104434  0.02492  0  1.034592  0
H  H38  1  0.01129913  0.91527827  0.14621282  1  0  0.00738  0  0.963216  0  0  0.025705  0  1.032143  0  0  0.026669  0  1.028708  0  0.033048  0  0.10444  0.024947  0  1.034574  0
H  H39  1  0.51129804  0.58472256  0.64621254  1  0  0.00739  0  0.963175  0  0  0.025701  0  1.032111  0  0  0.026667  0  1.028674  0  0.033067  0  0.104434  0.024931  0  1.034552  0
C  C40  1  0.20243346  0.23388278  0.91747005  1  0  0.118828  0  3.939562  0  0  0.11692  0  4.187433  0  0  0.122504  0  4.212209  0  0.428163  0  0.056932  0.113218  0  4.170581  0
C  C41  1  0.70242986  0.26611692  0.41747015  1  0  0.118806  0  3.939603  0  0  0.116887  0  4.187482  0  0  0.12247  0  4.212257  0  0.42818  0  0.056918  0.113183  0  4.170629  0
C  C42  1  0.79756689  0.76611661  0.08253019  1  0  0.118799  0  3.939476  0  0  0.116878  0  4.187345  0  0  0.122462  0  4.21212  0  0.42817  0  0.056895  0.113172  0  4.170493  0
C  C43  1  0.29756798  0.73388421  0.58252968  1  0  0.118818  0  3.939422  0  0  0.116881  0  4.187325  0  0  0.122466  0  4.212096  0  0.428164  0  0.056926  0.113176  0  4.170475  0
C  C44  1  0.17500063  0.33101693  0.95102098  1  0  0.185016  0  3.75029  0  0  0.177672  0  4.02291  0  0  0.183633  0  4.035212  0  0.237637  0  0.065677  0.173224  0  4.014843  0
C  C45  1  0.67500206  0.16898277  0.45102190  1  0  0.184967  0  3.750195  0  0  0.177634  0  4.022818  0  0  0.183595  0  4.035117  0  0.237804  0  0.065676  0.173189  0  4.014747  0
C  C46  1  0.82499721  0.66898247  0.04897845  1  0  0.185016  0  3.750198  0  0  0.17771  0  4.02278  0  0  0.183672  0  4.035077  0  0.237649  0  0.065744  0.173271  0  4.014702  0
C  C47  1  0.32499829  0.83101836  0.54897794  1  0  0.185024  0  3.750152  0  0  0.1777  0  4.02277  0  0  0.183661  0  4.035068  0  0.23779  0  0.065705  0.173255  0  4.014699  0
C  C48  1  0.28140409  0.44176828  0.93914367  1  0  -0.163999  0  3.789158  0  0  -0.19414  0  4.055668  0  0  -0.194983  0  4.072541  0  0.079786  0  -0.102765  -0.193334  0  4.04434  0
C  C49  1  0.78140552  0.05823142  0.43914459  1  0  -0.163976  0  3.789144  0  0  -0.194147  0  4.055656  0  0  -0.194975  0  4.072534  0  0.079616  0  -0.102757  -0.193344  0  4.044334  0
C  C50  1  0.71859375  0.55823112  0.06085576  1  0  -0.164019  0  3.789265  0  0  -0.194199  0  4.055773  0  0  -0.195025  0  4.072651  0  0.079772  0  -0.102789  -0.193397  0  4.044445  0
C  C51  1  0.21859483  0.94176798  0.56085485  1  0  -0.164007  0  3.789254  0  0  -0.194184  0  4.055768  0  0  -0.195012  0  4.072651  0  0.079602  0  -0.102768  -0.193379  0  4.04444  0
C  C52  1  0.43502139  0.46060801  0.89063125  1  0  -0.070855  0  3.78696  0  0  -0.087347  0  4.049547  0  0  -0.090446  0  4.070958  0  -0.05072  0  -0.103614  -0.085285  0  4.035017  0
C  C53  1  0.93502534  0.03939169  0.39063219  1  0  -0.07082  0  3.786935  0  0  -0.087292  0  4.049529  0  0  -0.09039  0  4.070937  0  -0.050832  0  -0.103595  -0.085234  0  4.034999  0
C  C54  1  0.56497644  0.53939139  0.10936778  1  0  -0.070798  0  3.786945  0  0  -0.087283  0  4.049515  0  0  -0.090381  0  4.070923  0  -0.050838  0  -0.103574  -0.08522  0  4.034982  0
C  C55  1  0.06497501  0.96060944  0.60936725  1  0  -0.070803  0  3.786888  0  0  -0.087272  0  4.049427  0  0  -0.090372  0  4.070837  0  -0.050771  0  -0.103556  -0.085208  0  4.034894  0
C  C56  1  0.47755662  0.36721650  0.85606185  1  0  -0.069441  0  3.811017  0  0  -0.085463  0  4.061748  0  0  -0.086297  0  4.085162  0  -0.012433  0  -0.100396  -0.084708  0  4.045755  0
C  C57  1  0.97755554  0.13278320  0.35606276  1  0  -0.069496  0  3.811006  0  0  -0.08551  0  4.061728  0  0  -0.086345  0  4.085144  0  -0.012435  0  -0.100409  -0.084749  0  4.045736  0
C  C58  1  0.52244122  0.63278290  0.14393758  1  0  -0.069562  0  3.810954  0  0  -0.085546  0  4.061679  0  0  -0.08638  0  4.085094  0  -0.012408  0  -0.10041  -0.084788  0  4.045688  0
C  C59  1  0.02244481  0.86721706  0.64393668  1  0  -0.069559  0  3.811034  0  0  -0.085502  0  4.061744  0  0  -0.086335  0  4.085156  0  -0.012478  0  -0.100389  -0.084743  0  4.045753  0
C  C60  1  0.36523948  0.25680239  0.86917321  1  0  -0.149486  0  3.734206  0  0  -0.16414  0  3.982282  0  0  -0.170106  0  4.006301  0  -0.020056  0  -0.100629  -0.160151  0  3.966089  0
C  C61  1  0.86523840  0.24319645  0.36917413  1  0  -0.149421  0  3.734237  0  0  -0.164067  0  3.982314  0  0  -0.170033  0  4.006333  0  -0.02005  0  -0.100617  -0.160078  0  3.966117  0
C  C62  1  0.63476087  0.74319701  0.13082663  1  0  -0.149465  0  3.734181  0  0  -0.164103  0  3.982235  0  0  -0.17007  0  4.006254  0  -0.020054  0  -0.100629  -0.160117  0  3.966047  0
C  C63  1  0.13476447  0.75680469  0.63082573  1  0  -0.149456  0  3.734372  0  0  -0.164104  0  3.982401  0  0  -0.170064  0  4.006423  0  -0.020065  0  -0.10063  -0.160116  0  3.966208  0
C  C64  1  0.82507518  0.87793952  0.85792676  1  0  0.133091  0  3.91341  0  0  0.125894  0  4.170466  0  0  0.132085  0  4.193193  0  0.428241  0  0.069423  0.121744  0  4.155072  0
C  C65  1  0.32507878  0.62206217  0.35792626  1  0  0.133158  0  3.913447  0  0  0.125945  0  4.170475  0  0  0.132144  0  4.193202  0  0.428304  0  0.06945  0.121795  0  4.15508  0
C  C66  1  0.17491762  0.12206074  0.14207424  1  0  0.133098  0  3.913349  0  0  0.125859  0  4.170438  0  0  0.13205  0  4.193158  0  0.42826  0  0.069412  0.121708  0  4.155046  0
C  C67  1  0.67492157  0.37793809  0.64207359  1  0  0.133125  0  3.913396  0  0  0.125887  0  4.17047  0  0  0.132081  0  4.193196  0  0.428233  0  0.069418  0.121736  0  4.155076  0
C  C68  1  0.92315774  0.76108916  0.85408510  1  0  0.215344  0  3.727618  0  0  0.201461  0  4.008391  0  0  0.20904  0  4.018077  0  0.352171  0  0.088188  0.19587  0  4.002208  0
C  C69  1  0.42315128  0.73891254  0.35408455  1  0  0.215315  0  3.727864  0  0  0.201492  0  4.008562  0  0  0.209047  0  4.018276  0  0.352167  0  0.088214  0.1959  0  4.002379  0
C  C70  1  0.07684010  0.23891024  0.14591632  1  0  0.215529  0  3.727549  0  0  0.201669  0  4.008284  0  0  0.209248  0  4.017969  0  0.352309  0  0.08829  0.196078  0  4.002101  0
C  C71  1  0.57684656  0.26108773  0.64591528  1  0  0.215372  0  3.727753  0  0  0.201552  0  4.008467  0  0  0.209117  0  4.018168  0  0.352173  0  0.088238  0.19596  0  4.002284  0
C  C72  1  0.84215467  0.68971649  0.81110011  1  0  -0.176105  0  3.802906  0  0  -0.201763  0  4.059434  0  0  -0.203592  0  4.078501  0  -0.007854  0  -0.103734  -0.200335  0  4.046543  0
C  C73  1  0.34215073  0.81028434  0.31109957  1  0  -0.176149  0  3.803037  0  0  -0.20179  0  4.059543  0  0  -0.203606  0  4.078612  0  -0.007863  0  -0.103736  -0.20036  0  4.046647  0
C  C74  1  0.15784568  0.31028291  0.18890133  1  0  -0.176175  0  3.802908  0  0  -0.20182  0  4.05941  0  0  -0.20365  0  4.078478  0  -0.007859  0  -0.103698  -0.200389  0  4.04651  0
C  C75  1  0.65784962  0.18971592  0.68890027  1  0  -0.176156  0  3.802974  0  0  -0.201792  0  4.059486  0  0  -0.203611  0  4.078547  0  -0.007854  0  -0.103724  -0.200362  0  4.046588  0
C  C76  1  0.64899797  0.73518638  0.76835821  1  0  -0.076211  0  3.803348  0  0  -0.088074  0  4.058744  0  0  -0.091982  0  4.082232  0  -0.014133  0  -0.104266  -0.085403  0  4.04271  0
C  C77  1  0.14899905  0.76481272  0.26835690  1  0  -0.076249  0  3.803385  0  0  -0.088098  0  4.058788  0  0  -0.092004  0  4.082272  0  -0.014099  0  -0.104293  -0.085426  0  4.042754  0
C  C78  1  0.35100489  0.26481302  0.23164245  1  0  -0.076165  0  3.803338  0  0  -0.088034  0  4.058715  0  0  -0.091941  0  4.082208  0  -0.014118  0  -0.104243  -0.085349  0  4.042683  0
C  C79  1  0.85100633  0.23518668  0.73164218  1  0  -0.076157  0  3.803353  0  0  -0.088024  0  4.058726  0  0  -0.091931  0  4.082217  0  -0.014108  0  -0.104213  -0.085342  0  4.042694  0
C  C80  1  0.54293409  0.85049183  0.77015670  1  0  -0.07181  0  3.819709  0  0  -0.090334  0  4.073474  0  0  -0.090823  0  4.096169  0  -0.019357  0  -0.102327  -0.089781  0  4.057957  0
C  C81  1  0.04294020  0.64950640  0.27015582  1  0  -0.071857  0  3.819698  0  0  -0.090377  0  4.073472  0  0  -0.090861  0  4.096166  0  -0.019254  0  -0.102296  -0.089823  0  4.057952  0
C  C82  1  0.45706878  0.14950670  0.22984395  1  0  -0.071792  0  3.819644  0  0  -0.090313  0  4.073433  0  0  -0.090808  0  4.096123  0  -0.019307  0  -0.102331  -0.08976  0  4.057913  0
C  C83  1  0.95706769  0.35049213  0.72984327  1  0  -0.071786  0  3.819662  0  0  -0.090304  0  4.073449  0  0  -0.0908  0  4.096142  0  -0.019335  0  -0.102322  -0.089751  0  4.05793  0
C  C84  1  0.62771778  0.92010719  0.81410000  1  0  -0.15619  0  3.743846  0  0  -0.172619  0  3.995574  0  0  -0.178049  0  4.018512  0  -0.018879  0  -0.102488  -0.168958  0  3.980078  0
C  C85  1  0.12772390  0.57989277  0.31409951  1  0  -0.156225  0  3.743857  0  0  -0.172655  0  3.995594  0  0  -0.178083  0  4.01853  0  -0.018862  0  -0.102531  -0.168994  0  3.9801  0
C  C86  1  0.37228005  0.07989221  0.18590023  1  0  -0.156262  0  3.743848  0  0  -0.172679  0  3.995575  0  0  -0.178104  0  4.018517  0  -0.018866  0  -0.102512  -0.16902  0  3.980084  0
C  C87  1  0.87228149  0.42010662  0.68589996  1  0  -0.156205  0  3.74382  0  0  -0.172619  0  3.995545  0  0  -0.178049  0  4.018485  0  -0.018869  0  -0.102473  -0.16896  0  3.980053  0
C  C88  1  0.99754030  0.05227459  0.89541509  1  0  0.339404  0  3.896178  0  0  0.292951  0  4.174855  0  0  0.314068  0  4.183927  0  1.132066  0  0.148918  0.279055  0  4.167872  0
C  C89  1  0.49753887  0.44772597  0.39541457  1  0  0.339461  0  3.896048  0  0  0.293006  0  4.174724  0  0  0.31412  0  4.183792  0  1.132053  0  0.14894  0.279109  0  4.167741  0
C  C90  1  0.00246005  0.94772481  0.10458595  1  0  0.339397  0  3.896036  0  0  0.292944  0  4.174732  0  0  0.31406  0  4.183795  0  1.132027  0  0.148921  0.27904  0  4.167747  0
C  C91  1  0.50246148  0.55227516  0.60458528  1  0  0.339433  0  3.896106  0  0  0.292995  0  4.17478  0  0  0.314111  0  4.183848  0  1.132056  0  0.148928  0.279101  0  4.167799  0
N  N92  1  0.08564647  0.12612588  0.93424484  1  0  -0.606211  0  3.163743  0  0  -0.563234  0  3.453297  0  0  -0.584981  0  3.466223  0  -1.275073  0  -0.491718  -0.548123  0  3.443831  0
N  N93  1  0.58564036  0.37387469  0.43424492  1  0  -0.606238  0  3.163648  0  0  -0.56326  0  3.453206  0  0  -0.585011  0  3.466145  0  -1.275059  0  -0.491733  -0.54815  0  3.443742  0
N  N94  1  0.91435639  0.87387439  0.06575582  1  0  -0.606228  0  3.1636  0  0  -0.563253  0  3.45316  0  0  -0.584998  0  3.466086  0  -1.275027  0  -0.491731  -0.548145  0  3.4437  0
N  N95  1  0.41435999  0.62612644  0.56575492  1  0  -0.606253  0  3.163678  0  0  -0.563268  0  3.453231  0  0  -0.585017  0  3.466166  0  -1.275054  0  -0.491733  -0.54816  0  3.443768  0
N  N96  1  0.92366333  0.94155731  0.90329859  1  0  -0.598819  0  3.176038  0  0  -0.552391  0  3.466505  0  0  -0.574241  0  3.479025  0  -1.297619  0  -0.521133  -0.537231  0  3.457361  0
N  N97  1  0.42366441  0.55844352  0.40329808  1  0  -0.598813  0  3.17605  0  0  -0.552377  0  3.466514  0  0  -0.574236  0  3.479058  0  -1.297674  0  -0.521125  -0.537216  0  3.457367  0
N  N98  1  0.07633199  0.05844295  0.09670242  1  0  -0.598779  0  3.175985  0  0  -0.55233  0  3.466454  0  0  -0.574194  0  3.479015  0  -1.297604  0  -0.5211  -0.537171  0  3.457312  0
N  N99  1  0.57633342  0.44155675  0.59670175  1  0  -0.598846  0  3.176024  0  0  -0.552403  0  3.466495  0  0  -0.574263  0  3.47904  0  -1.297589  0  -0.521121  -0.537244  0  3.457347  0
F  F100  1  0.02803652  0.31430730  0.00004058  1  0  -0.25521  0  1.250296  0  0  -0.197276  0  1.426189  0  0  -0.207387  0  1.416954  0  -0.654526  0  -0.165681  -0.189874  0  1.432512  0
F  F101  1  0.52803796  0.18569240  0.50004150  1  0  -0.255175  0  1.250257  0  0  -0.197241  0  1.426144  0  0  -0.207354  0  1.416909  0  -0.654573  0  -0.165679  -0.18984  0  1.432467  0
F  F102  1  0.97195880  0.68569470  0.99995884  1  0  -0.255192  0  1.250283  0  0  -0.19727  0  1.426161  0  0  -0.207383  0  1.416929  0  -0.654549  0  -0.165711  -0.189872  0  1.432482  0
F  F103  1  0.47196239  0.81430786  0.49995794  1  0  -0.255206  0  1.250241  0  0  -0.197273  0  1.426126  0  0  -0.207386  0  1.416891  0  -0.654586  0  -0.165701  -0.189874  0  1.432449  0
F  F104  1  0.12240133  0.71635358  0.89529369  1  0  -0.234175  0  1.245379  0  0  -0.171862  0  1.412362  0  0  -0.182335  0  1.404287  0  -0.652053  0  -0.127731  -0.164198  0  1.417888  0
F  F105  1  0.62238264  0.78365245  0.39529370  1  0  -0.234139  0  1.245531  0  0  -0.17186  0  1.412516  0  0  -0.182327  0  1.404449  0  -0.652035  0  -0.127736  -0.164197  0  1.418043  0
F  F106  1  0.87760153  0.28364842  0.10470857  1  0  -0.234261  0  1.2454  0  0  -0.171943  0  1.412385  0  0  -0.182416  0  1.404307  0  -0.652137  0  -0.127813  -0.16428  0  1.417911  0
F  F107  1  0.37761268  0.21634782  0.60470651  1  0  -0.234183  0  1.245467  0  0  -0.171915  0  1.412467  0  0  -0.182385  0  1.404394  0  -0.652051  0  -0.12777  -0.164252  0  1.417994  0
