# generated using pymatgen
data_TbH14C24(NO3)2
_symmetry_space_group_name_H-M   'P 1'
_cell_length_a   12.52941744
_cell_length_b   14.18412074
_cell_length_c   14.81291167
_cell_angle_alpha   68.80369108
_cell_angle_beta   67.48812770
_cell_angle_gamma   78.11943717
_symmetry_Int_Tables_number   1
_chemical_formula_structural   TbH14C24(NO3)2
_chemical_formula_sum   'Tb4 H56 C96 N8 O24'
_cell_volume   2260.44569559
_cell_formula_units_Z   4
loop_
 _symmetry_equiv_pos_site_id
 _symmetry_equiv_pos_as_xyz
  1  'x, y, z'
loop_
 _atom_site_type_symbol
 _atom_site_label
 _atom_site_symmetry_multiplicity
 _atom_site_fract_x
 _atom_site_fract_y
 _atom_site_fract_z
 _atom_site_occupancy
 _atom_site_pbe_bader_charge
 _atom_site_pbe_bader_spin_density
 _atom_site_pbe_cm5_charge
 _atom_site_pbe_ddec_charge
 _atom_site_pbe_ddec_spin_density
 _atom_site_pbe_ddec_sum_bond_order
 _atom_site_pbe_magmom
Tb  Tb0  1  0.43571068  0.48136064  0.40353482  1  2.152196  0  1.506161  1.957383  0  2.215525  0
Tb  Tb1  1  0.56429068  0.51863938  0.59646522  1  2.152269  0  1.50615  1.957441  0  2.215431  0
Tb  Tb2  1  0.94770124  0.94591107  0.90538868  1  2.15859  0  1.535802  1.967413  0  2.282722  0
Tb  Tb3  1  0.05229839  0.05408895  0.09461260  1  2.158552  0  1.535765  1.967419  0  2.282961  0
H  H4  1  0.69970942  0.78337512  0.18925244  1  0.074575  0  0.105276  0.108581  0  1.025677  0
H  H5  1  0.30028935  0.21662491  0.81074776  1  0.074602  0  0.105305  0.108593  0  1.025657  0
H  H6  1  0.19389796  0.71187525  0.22558866  1  0.101849  0  0.110882  0.116223  0  1.00716  0
H  H7  1  0.80610194  0.28812172  0.77441559  1  0.101607  0  0.110873  0.116209  0  1.007164  0
H  H8  1  0.44299042  0.78659206  0.48247191  1  0.086286  0  0.106084  0.103731  0  1.022288  0
H  H9  1  0.55700675  0.21340646  0.51752730  1  0.085991  0  0.106065  0.103684  0  1.022322  0
H  H10  1  0.68029094  0.02146643  0.31152602  1  0.079925  0  0.105523  0.109074  0  1.001536  0
H  H11  1  0.31970617  0.97853284  0.68847566  1  0.079876  0  0.105544  0.10911  0  1.001613  0
H  H12  1  0.20510055  0.70466216  0.72719091  1  0.101939  0  0.105296  0.110352  0  1.01305  0
H  H13  1  0.79489895  0.29533939  0.27280854  1  0.101956  0  0.105287  0.110346  0  1.013058  0
H  H14  1  0.16428317  0.72746697  0.93985484  1  0.159438  0  0.10976  0.122644  0  1.034388  0
H  H15  1  0.83571667  0.27253077  0.06014782  1  0.159356  0  0.109767  0.122652  0  1.034316  0
H  H16  1  0.38799792  0.49057886  0.07567918  1  0.092808  0  0.107116  0.110141  0  0.995349  0
H  H17  1  0.61200264  0.50942039  0.92432205  1  0.092842  0  0.107132  0.110141  0  0.995342  0
H  H18  1  0.30128742  0.57181302  0.93675838  1  0.075197  0  0.100977  0.098386  0  1.020814  0
H  H19  1  0.69871308  0.42818699  0.06324397  1  0.075163  0  0.100976  0.098369  0  1.020803  0
H  H20  1  0.01623914  0.94617749  0.56145523  1  0.058005  0  0.103497  0.101507  0  1.035887  0
H  H21  1  0.98376202  0.05382481  0.43854342  1  0.058158  0  0.103506  0.101544  0  1.035896  0
H  H22  1  0.50684670  0.94968291  0.46158453  1  0.036115  0  0.097081  0.093362  0  1.020864  0
H  H23  1  0.49314961  0.05031561  0.53841564  1  0.036086  0  0.097086  0.093396  0  1.020921  0
H  H24  1  0.60509307  0.34590518  0.24860313  1  0.098554  0  0.121755  0.085375  0  1.011919  0
H  H25  1  0.39490822  0.65409560  0.75139599  1  0.098575  0  0.121747  0.085357  0  1.011935  0
H  H26  1  0.77515372  0.12472030  0.78543756  1  0.106029  0  0.121972  0.088672  0  1.01502  0
H  H27  1  0.22485030  0.87527898  0.21455849  1  0.106186  0  0.121957  0.088626  0  1.015073  0
H  H28  1  0.09945973  0.87981889  0.41064474  1  0.082187  0  0.102693  0.104412  0  1.01971  0
H  H29  1  0.90054070  0.12018189  0.58935467  1  0.082182  0  0.102713  0.10442  0  1.019665  0
H  H30  1  0.83747819  0.54645855  0.13175384  1  0.093422  0  0.112146  0.120879  0  0.980692  0
H  H31  1  0.16252238  0.45354070  0.86824874  1  0.093425  0  0.112132  0.120913  0  0.980704  0
H  H32  1  0.01984297  0.33855880  0.72501194  1  0.073245  0  0.106846  0.111717  0  1.013316  0
H  H33  1  0.98015632  0.66144502  0.27498545  1  0.07318  0  0.106851  0.111684  0  1.013316  0
H  H34  1  0.11097196  0.06917685  0.57657042  1  0.120264  0  0.106417  0.114024  0  1.037283  0
H  H35  1  0.88902834  0.93082544  0.42343054  1  0.120372  0  0.106411  0.114036  0  1.037247  0
H  H36  1  0.61237976  0.20403382  0.18309066  1  0.08161  0  0.10889  0.115155  0  1.007768  0
H  H37  1  0.38761807  0.79596697  0.81690958  1  0.081555  0  0.10889  0.115151  0  1.007759  0
H  H38  1  0.17980319  0.45250948  0.61047649  1  0.121857  0  0.122832  0.095377  0  1.007912  0
H  H39  1  0.82019437  0.54749436  0.38952010  1  0.118332  0  0.122813  0.095327  0  1.007916  0
H  H40  1  0.96030010  0.69456209  0.03016564  1  0.107324  0  0.121118  0.084578  0  1.015997  0
H  H41  1  0.03970126  0.30543792  0.96983575  1  0.107353  0  0.121099  0.084599  0  1.016023  0
H  H42  1  0.01841513  0.17925301  0.68843172  1  0.119905  0  0.116644  0.120666  0  1.010126  0
H  H43  1  0.98158689  0.82074929  0.31156800  1  0.119872  0  0.11663  0.120665  0  1.010106  0
H  H44  1  0.22791736  0.71743511  0.42558129  1  0.11666  0  0.112843  0.119389  0  1.000299  0
H  H45  1  0.77208234  0.28256416  0.57441887  1  0.1167  0  0.112835  0.119361  0  1.000325  0
H  H46  1  0.63217846  0.56750963  0.13135887  1  0.12027  0  0.117768  0.125752  0  1.011617  0
H  H47  1  0.36782131  0.43248887  0.86864220  1  0.12028  0  0.117774  0.125687  0  1.011681  0
H  H48  1  0.57597298  0.16236891  0.77348291  1  0.126142  0  0.106378  0.117587  0  1.030728  0
H  H49  1  0.42403030  0.83762885  0.22651458  1  0.126035  0  0.106341  0.11753  0  1.030814  0
H  H50  1  0.26654874  0.03675763  0.42236119  1  0.062396  0  0.103831  0.109366  0  1.001081  0
H  H51  1  0.73345089  0.96324239  0.57764076  1  0.062349  0  0.103826  0.109345  0  1.001058  0
H  H52  1  0.47942378  0.67438402  0.06666774  1  0.098746  0  0.10431  0.1084  0  1.051816  0
H  H53  1  0.52057765  0.32561523  0.93333592  1  0.098727  0  0.104352  0.108433  0  1.051861  0
H  H54  1  0.40582815  0.84242961  0.97110096  1  0.089935  0  0.107299  0.114553  0  0.991945  0
H  H55  1  0.59417248  0.15756889  0.02890119  1  0.08989  0  0.107282  0.114518  0  0.992001  0
H  H56  1  0.44921006  0.08865509  0.27388507  1  0.074484  0  0.103573  0.100354  0  1.02591  0
H  H57  1  0.55078864  0.91134569  0.72611625  1  0.074445  0  0.103627  0.100456  0  1.02592  0
H  H58  1  0.43951357  0.02321932  0.86486655  1  0.095822  0  0.106388  0.109926  0  1.025935  0
H  H59  1  0.56048872  0.97677995  0.13513210  1  0.096117  0  0.106366  0.10993  0  1.02597  0
C  C60  1  0.53299909  0.67239445  0.35623689  1  1.565302  0  0.21987  0.621222  0  4.173383  0
C  C61  1  0.46699881  0.32760558  0.64376291  1  1.565258  0  0.219838  0.621177  0  4.173458  0
C  C62  1  0.69934085  0.90756955  0.24113100  1  -0.004528  0  -0.013632  -0.032365  0  3.965424  0
C  C63  1  0.30065885  0.09242972  0.75886916  1  -0.00451  0  -0.013626  -0.032415  0  3.965557  0
C  C64  1  0.79985850  0.95413059  0.14935358  1  1.604449  0  0.229925  0.64681  0  4.165477  0
C  C65  1  0.20013542  0.04586572  0.85063664  1  1.60436  0  0.229938  0.646816  0  4.165859  0
C  C66  1  0.17113322  0.72993501  0.08252248  1  -0.05407  0  -0.019573  -0.052166  0  3.985358  0
C  C67  1  0.82886569  0.27006347  0.91748293  1  -0.054392  0  -0.019627  -0.052247  0  3.985451  0
C  C68  1  0.56926448  0.77334124  0.33851296  1  -0.09422  0  -0.010084  -0.025229  0  3.970322  0
C  C69  1  0.43073262  0.22665804  0.66148669  1  -0.094886  0  -0.010102  -0.025289  0  3.970336  0
C  C70  1  0.65881133  0.81862584  0.24994181  1  0.021104  0  -0.074366  -0.110966  0  3.913456  0
C  C71  1  0.34118677  0.18137191  0.75005803  1  0.021125  0  -0.07434  -0.110839  0  3.913458  0
C  C72  1  0.29426710  0.59560175  0.15969815  1  -0.00661  0  -0.013038  -0.019528  0  3.970901  0
C  C73  1  0.70573101  0.40439599  0.84030507  1  -0.006536  0  -0.013059  -0.019529  0  3.970798  0
C  C74  1  0.21693520  0.68177944  0.16194328  1  -0.060785  0  -0.073747  -0.107853  0  3.929204  0
C  C75  1  0.78306457  0.31821906  0.83805779  1  -0.06046  0  -0.073696  -0.1078  0  3.928887  0
C  C76  1  0.30431248  0.60633829  0.57971920  1  1.571816  0  0.22877  0.635101  0  4.157275  0
C  C77  1  0.69568795  0.39366248  0.42028156  1  1.571817  0  0.228783  0.635181  0  4.157276  0
C  C78  1  0.10638461  0.83014959  0.65182571  1  0.00468  0  -0.018135  -0.029949  0  3.972433  0
C  C79  1  0.89361595  0.16984967  0.34817485  1  0.004891  0  -0.01814  -0.029957  0  3.972417  0
C  C80  1  0.09533536  0.82665705  0.08148666  1  1.585814  0  0.23372  0.641636  0  4.17092  0
C  C81  1  0.90465590  0.17334000  0.91850754  1  1.585891  0  0.233766  0.641741  0  4.170715  0
C  C82  1  0.51411210  0.82124065  0.41436073  1  -0.042543  0  -0.08118  -0.098701  0  3.966797  0
C  C83  1  0.48588501  0.17875863  0.58563824  1  -0.041679  0  -0.081184  -0.098684  0  3.966716  0
C  C84  1  0.05411474  0.87104970  0.74041979  1  1.543586  0  0.187037  0.568934  0  4.230035  0
C  C85  1  0.94588549  0.12895335  0.25958093  1  1.543345  0  0.187081  0.568967  0  4.230044  0
C  C86  1  0.64641897  0.95329888  0.31872259  1  -0.054587  0  -0.083294  -0.101655  0  3.984799  0
C  C87  1  0.35357914  0.04669888  0.68127658  1  -0.054639  0  -0.083357  -0.101782  0  3.984953  0
C  C88  1  0.34677870  0.55036112  0.24273182  1  1.560314  0  0.188041  0.570451  0  4.232606  0
C  C89  1  0.65322193  0.44963738  0.75726830  1  1.560135  0  0.188016  0.570413  0  4.232572  0
C  C90  1  0.18218614  0.74229543  0.65789191  1  -0.092385  0  -0.073736  -0.09753  0  3.925453  0
C  C91  1  0.81781416  0.25770687  0.34210702  1  -0.092415  0  -0.073743  -0.097525  0  3.92538  0
C  C92  1  0.26338520  0.27781183  0.49626692  1  0.505343  0  0.125035  0.133967  0  3.974903  0
C  C93  1  0.73661330  0.72219124  0.50373165  1  0.505207  0  0.124961  0.133931  0  3.974745  0
C  C94  1  0.20031546  0.68934695  0.00170408  1  -0.053158  0  -0.080231  -0.100191  0  3.943884  0
C  C95  1  0.79968603  0.31065156  0.99829643  1  -0.052815  0  -0.080186  -0.10012  0  3.943995  0
C  C96  1  0.32567033  0.55668423  0.07767632  1  -0.067007  0  -0.076604  -0.087268  0  3.953404  0
C  C97  1  0.67433189  0.44331579  0.92232412  1  -0.06732  0  -0.076603  -0.087229  0  3.953368  0
C  C98  1  0.27732061  0.60287813  0.99990247  1  -0.087562  0  -0.091642  -0.088782  0  4.023758  0
C  C99  1  0.72268088  0.39712036  0.00009940  1  -0.087303  0  -0.091691  -0.088861  0  4.023715  0
C  C100  1  0.35808035  0.25511597  0.41181891  1  0.489548  0  0.125273  0.14114  0  3.976917  0
C  C101  1  0.64191895  0.74488785  0.58817983  1  0.489756  0  0.125306  0.141144  0  3.976899  0
C  C102  1  0.22522043  0.70189713  0.57636761  1  0.032464  0  -0.020062  -0.055084  0  3.971413  0
C  C103  1  0.77477921  0.29810289  0.42363163  1  0.032447  0  -0.020024  -0.05507  0  3.9713  0
C  C104  1  0.68150975  0.89914222  0.92148067  1  0.500175  0  0.124591  0.13869  0  3.963457  0
C  C105  1  0.31849161  0.10085780  0.07851869  1  0.500232  0  0.124555  0.138627  0  3.963578  0
C  C106  1  0.64882043  0.72139243  0.02961726  1  0.013898  0  0.002574  0.050023  0  3.984249  0
C  C107  1  0.35118027  0.27860532  0.97038309  1  0.013683  0  0.002556  0.050057  0  3.984274  0
C  C108  1  0.72356293  0.80153671  0.97719575  1  0.48204  0  0.124404  0.136565  0  3.971436  0
C  C109  1  0.27643763  0.19846256  0.02280345  1  0.48214  0  0.124429  0.136597  0  3.971537  0
C  C110  1  0.07676401  0.87894247  0.56289725  1  -0.078494  0  -0.078577  -0.082931  0  3.956553  0
C  C111  1  0.92323296  0.12105831  0.43710395  1  -0.078702  0  -0.078612  -0.083018  0  3.956648  0
C  C112  1  0.55107347  0.91225103  0.40295817  1  -0.016894  0  -0.091976  -0.087406  0  4.042  0
C  C113  1  0.44892450  0.08774824  0.59704119  1  -0.016692  0  -0.091945  -0.087357  0  4.042014  0
C  C114  1  0.17479516  0.20954327  0.55475797  1  0.042348  0  0.00347  0.051384  0  3.986437  0
C  C115  1  0.82520593  0.79045978  0.44524044  1  0.042196  0  0.003475  0.051363  0  3.986412  0
C  C116  1  0.53506727  0.29571054  0.28437327  1  0.517509  0  0.061785  0.129092  0  3.956549  0
C  C117  1  0.46493316  0.70429023  0.71562749  1  0.517782  0  0.061823  0.129148  0  3.956539  0
C  C118  1  0.56674400  0.91261974  0.91920571  1  -0.050816  0  -0.002572  0.038411  0  4.012547  0
C  C119  1  0.43325743  0.08737953  0.08079389  1  -0.051091  0  -0.002531  0.038516  0  4.01249  0
C  C120  1  0.71488700  0.06561562  0.82144933  1  0.528224  0  0.06203  0.121513  0  3.944059  0
C  C121  1  0.28511622  0.93438290  0.17854792  1  0.527694  0  0.062023  0.121528  0  3.944111  0
C  C122  1  0.12195490  0.84057858  0.48010252  1  -0.02616  0  -0.093726  -0.100514  0  4.023141  0
C  C123  1  0.87804632  0.15942296  0.51989704  1  -0.026227  0  -0.093743  -0.100518  0  4.023051  0
C  C124  1  0.80264916  0.61726229  0.08777095  1  -0.033953  0  -0.082911  -0.136795  0  3.984402  0
C  C125  1  0.19735054  0.38273698  0.91222921  1  -0.033964  0  -0.082942  -0.136885  0  3.984466  0
C  C126  1  0.35620123  0.16967482  0.38369171  1  -0.003395  0  -0.002657  0.042471  0  4.00654  0
C  C127  1  0.64379726  0.83032824  0.61630754  1  -0.003549  0  -0.002739  0.042347  0  4.006609  0
C  C128  1  0.08716246  0.31848153  0.66054593  1  -0.057926  0  -0.081254  -0.124002  0  3.966019  0
C  C129  1  0.91283691  0.68152154  0.33945170  1  -0.057828  0  -0.081231  -0.123887  0  3.965994  0
C  C130  1  0.17850566  0.12140758  0.52762323  1  -0.030071  0  -0.079061  -0.112182  0  3.972449  0
C  C131  1  0.82149377  0.87859471  0.47237665  1  -0.030167  0  -0.079044  -0.112178  0  3.972396  0
C  C132  1  0.53878355  0.21556061  0.24857751  1  -0.052655  0  -0.085281  -0.133421  0  3.976485  0
C  C133  1  0.46121522  0.78443941  0.75142405  1  -0.052657  0  -0.08531  -0.13347  0  3.976465  0
C  C134  1  0.17705269  0.38266053  0.59698660  1  0.552049  0  0.064225  0.128815  0  3.935256  0
C  C135  1  0.82294760  0.61734177  0.40301301  1  0.555556  0  0.064227  0.128802  0  3.93531  0
C  C136  1  0.87159341  0.70006036  0.03157678  1  0.507465  0  0.062704  0.121235  0  3.961519  0
C  C137  1  0.12840795  0.29993966  0.96842326  1  0.507439  0  0.062704  0.121191  0  3.96164  0
C  C138  1  0.08574598  0.23154004  0.63964037  1  -0.087492  0  -0.055591  -0.058758  0  3.895662  0
C  C139  1  0.91425525  0.76846150  0.36035920  1  -0.087319  0  -0.05557  -0.05874  0  3.895593  0
C  C140  1  0.19441975  0.75126117  0.48754789  1  -0.081088  0  -0.073549  -0.072407  0  3.923453  0
C  C141  1  0.80557975  0.24874037  0.51245223  1  -0.081097  0  -0.073547  -0.072355  0  3.923264  0
C  C142  1  0.69076477  0.62800390  0.08706096  1  -0.037704  0  -0.053262  -0.056264  0  3.902495  0
C  C143  1  0.30923493  0.37199535  0.91294056  1  -0.037701  0  -0.053244  -0.056181  0  3.90243  0
C  C144  1  0.60299178  0.08626402  0.81495826  1  -0.070236  0  -0.082353  -0.124329  0  3.963403  0
C  C145  1  0.39701237  0.91373374  0.18503962  1  -0.069728  0  -0.082282  -0.124221  0  3.963421  0
C  C146  1  0.26463977  0.10329992  0.44371874  1  -0.070356  0  -0.086255  -0.12513  0  3.98669  0
C  C147  1  0.73535966  0.89670237  0.55628114  1  -0.070283  0  -0.086221  -0.125051  0  3.986634  0
C  C148  1  0.53409952  0.73753796  0.02529646  1  -0.021236  0  -0.080524  -0.105944  0  3.959144  0
C  C149  1  0.46590077  0.26246433  0.97470383  1  -0.021101  0  -0.080569  -0.106033  0  3.959153  0
C  C150  1  0.49430244  0.82968758  0.97231297  1  -0.042407  0  -0.0847  -0.12439  0  3.990152  0
C  C151  1  0.50569992  0.17031093  0.02768659  1  -0.042204  0  -0.084699  -0.124383  0  3.990122  0
C  C152  1  0.44894040  0.15255454  0.29831353  1  0.040846  0  -0.064274  -0.070442  0  3.937629  0
C  C153  1  0.55105730  0.84744775  0.70168691  1  0.040898  0  -0.064291  -0.070477  0  3.937701  0
C  C154  1  0.52831218  0.00970778  0.86512719  1  0.001241  0  -0.066284  -0.078063  0  3.925093  0
C  C155  1  0.47169012  0.99029148  0.13487280  1  0.000919  0  -0.066331  -0.078176  0  3.925163  0
N  N156  1  0.26382295  0.36336541  0.51734579  1  -1.234091  0  -0.354756  -0.35213  0  3.470685  0
N  N157  1  0.73617735  0.63663690  0.48265246  1  -1.234049  0  -0.354746  -0.352145  0  3.470643  0
N  N158  1  0.75301466  0.97581039  0.87406357  1  -1.247107  0  -0.369005  -0.350827  0  3.481098  0
N  N159  1  0.24698670  0.02418963  0.12593647  1  -1.24711  0  -0.368986  -0.350782  0  3.481165  0
N  N160  1  0.83345764  0.78983508  0.97867952  1  -1.243363  0  -0.379599  -0.368206  0  3.502258  0
N  N161  1  0.16654126  0.21016343  0.02132116  1  -1.243357  0  -0.379562  -0.368157  0  3.502197  0
N  N162  1  0.44734921  0.31578231  0.36306873  1  -1.24822  0  -0.370884  -0.370675  0  3.509382  0
N  N163  1  0.55265022  0.68421999  0.63693048  1  -1.248478  0  -0.370889  -0.370675  0  3.509445  0
O  O164  1  0.44995573  0.50846926  0.22218160  1  -1.193658  0  -0.368809  -0.628901  0  2.216915  0
O  O165  1  0.55004470  0.49153152  0.77781713  1  -1.193451  0  -0.368804  -0.628923  0  2.216903  0
O  O166  1  0.07228089  0.82186352  0.82500031  1  -1.181554  0  -0.381537  -0.627376  0  2.229709  0
O  O167  1  0.92772020  0.17813953  0.17499810  1  -1.181396  0  -0.381572  -0.627386  0  2.229704  0
O  O168  1  0.53048878  0.60354028  0.44176632  1  -1.213848  0  -0.432092  -0.73696  0  2.514531  0
O  O169  1  0.46951085  0.39645975  0.55823292  1  -1.213832  0  -0.432086  -0.736924  0  2.514553  0
O  O170  1  0.80367378  0.95603963  0.06163361  1  -1.192725  0  -0.394727  -0.673712  0  2.318061  0
O  O171  1  0.19632360  0.04395658  0.93837240  1  -1.192421  0  -0.394765  -0.673806  0  2.317655  0
O  O172  1  0.87283768  0.98876018  0.16699483  1  -1.195468  0  -0.395753  -0.652602  0  2.330436  0
O  O173  1  0.12716793  0.01124058  0.83300628  1  -1.195695  0  -0.395752  -0.652523  0  2.331197  0
O  O174  1  0.36284415  0.57683082  0.64059201  1  -1.19257  0  -0.38859  -0.658658  0  2.236086  0
O  O175  1  0.63715641  0.42316844  0.35940922  1  -1.192537  0  -0.388588  -0.658657  0  2.236156  0
O  O176  1  0.30789347  0.56200046  0.51771761  1  -1.183764  0  -0.398882  -0.644271  0  2.395861  0
O  O177  1  0.69210524  0.43800032  0.48228303  1  -1.183802  0  -0.398905  -0.644353  0  2.395882  0
O  O178  1  0.98988431  0.95486029  0.73049455  1  -1.191637  0  -0.394934  -0.643311  0  2.199224  0
O  O179  1  0.01011606  0.04514125  0.26950394  1  -1.191552  0  -0.394935  -0.643321  0  2.199249  0
O  O180  1  0.03196484  0.85440656  0.02557554  1  -1.21135  0  -0.410238  -0.68784  0  2.408207  0
O  O181  1  0.96803966  0.14558736  0.97443165  1  -1.211188  0  -0.410379  -0.688033  0  2.407513  0
O  O182  1  0.50335206  0.65490304  0.29165475  1  -1.173171  0  -0.34354  -0.590493  0  2.178298  0
O  O183  1  0.49664677  0.34509623  0.70834501  1  -1.173126  0  -0.343516  -0.590475  0  2.178283  0
O  O184  1  0.28726666  0.55741845  0.33233610  1  -1.162616  0  -0.399467  -0.627792  0  2.196245  0
O  O185  1  0.71273390  0.44258082  0.66766446  1  -1.162637  0  -0.399454  -0.627758  0  2.196288  0
O  O186  1  0.09973414  0.87722796  0.13554607  1  -1.192599  0  -0.383581  -0.648418  0  2.317603  0
O  O187  1  0.90026010  0.12277429  0.86446294  1  -1.192821  0  -0.383495  -0.648316  0  2.318148  0
