# generated using pymatgen
data_CuH14C10S2I
_symmetry_space_group_name_H-M   'P 1'
_cell_length_a   7.37792440
_cell_length_b   8.56373893
_cell_length_c   11.36280285
_cell_angle_alpha   67.85255491
_cell_angle_beta   83.87935838
_cell_angle_gamma   73.57658293
_symmetry_Int_Tables_number   1
_chemical_formula_structural   CuH14C10S2I
_chemical_formula_sum   'Cu2 H28 C20 S4 I2'
_cell_volume   637.82894395
_cell_formula_units_Z   2
loop_
 _symmetry_equiv_pos_site_id
 _symmetry_equiv_pos_as_xyz
  1  'x, y, z'
loop_
 _atom_site_type_symbol
 _atom_site_label
 _atom_site_symmetry_multiplicity
 _atom_site_fract_x
 _atom_site_fract_y
 _atom_site_fract_z
 _atom_site_occupancy
 _atom_site_hle17_bader_spin_density
 _atom_site_hle17_ddec_charge
 _atom_site_hle17_ddec_spin_density
 _atom_site_hle17_ddec_sum_bond_order
 _atom_site_hle17_magmom
 _atom_site_hse06_10hf_bader_spin_density
 _atom_site_hse06_10hf_ddec_charge
 _atom_site_hse06_10hf_ddec_spin_density
 _atom_site_hse06_10hf_ddec_sum_bond_order
 _atom_site_hse06_10hf_magmom
 _atom_site_hse06_bader_spin_density
 _atom_site_hse06_ddec_charge
 _atom_site_hse06_ddec_spin_density
 _atom_site_hse06_ddec_sum_bond_order
 _atom_site_hse06_magmom
 _atom_site_pbe_bader_spin_density
 _atom_site_pbe_cm5_charge
 _atom_site_pbe_ddec_charge
 _atom_site_pbe_ddec_spin_density
 _atom_site_pbe_ddec_sum_bond_order
 _atom_site_pbe_magmom
Cu  Cu0  1  0.50008900  0.43708640  0.12578864  1  0  0.125759  0  2.357363  0  0  0.056135  0  2.848704  0  0  0.064535  0  2.798986  0  0  0.226921  0.053578  0  2.878471  0
Cu  Cu1  1  0.49990572  0.56292030  0.87421249  1  0  0.125742  0  2.357284  0  0  0.056116  0  2.848609  0  0  0.064514  0  2.7989  0  0  0.226915  0.053543  0  2.878404  0
H  H2  1  0.33412991  0.64391524  0.29087046  1  0  0.095391  0  0.980672  0  0  0.102192  0  1.05191  0  0  0.1057  0  1.04968  0  0  0.092943  0.100894  0  1.051495  0
H  H3  1  0.66575191  0.06481801  0.29081314  1  0  0.096366  0  0.979038  0  0  0.103776  0  1.049257  0  0  0.107208  0  1.047101  0  0  0.093009  0.101289  0  1.050866  0
H  H4  1  0.66586729  0.35608034  0.70913262  1  0  0.095406  0  0.980635  0  0  0.102217  0  1.051857  0  0  0.105723  0  1.049628  0  0  0.092934  0.10092  0  1.051442  0
H  H5  1  0.33423866  0.93518598  0.70918039  1  0  0.096296  0  0.979081  0  0  0.103711  0  1.049309  0  0  0.107141  0  1.047156  0  0  0.092994  0.101224  0  1.050919  0
H  H6  1  0.16883991  0.68210366  0.48629869  1  0  0.096085  0  0.951165  0  0  0.108833  0  1.009844  0  0  0.111834  0  1.007961  0  0  0.102847  0.106666  0  1.011328  0
H  H7  1  0.83086792  0.83097780  0.48623557  1  0  0.09572  0  0.950742  0  0  0.108284  0  1.009736  0  0  0.111278  0  1.007833  0  0  0.102619  0.106153  0  1.011095  0
H  H8  1  0.83115936  0.31789274  0.51370613  1  0  0.096025  0  0.951225  0  0  0.108783  0  1.009891  0  0  0.111785  0  1.008006  0  0  0.102792  0.106615  0  1.011372  0
H  H9  1  0.16912403  0.16902520  0.51375892  1  0  0.095629  0  0.950768  0  0  0.108208  0  1.009757  0  0  0.111201  0  1.007853  0  0  0.102565  0.106077  0  1.011112  0
H  H10  1  0.86106489  0.63316765  0.09497362  1  0  0.082375  0  0.949256  0  0  0.100314  0  1.009812  0  0  0.101294  0  1.009693  0  0  0.091915  0.099546  0  1.010093  0
H  H11  1  0.13825469  0.27206638  0.09537452  1  0  0.082663  0  0.948322  0  0  0.100625  0  1.008786  0  0  0.101598  0  1.008653  0  0  0.091697  0.099841  0  1.008994  0
H  H12  1  0.13892986  0.36683639  0.90503016  1  0  0.0824  0  0.949322  0  0  0.100375  0  1.00982  0  0  0.101354  0  1.009705  0  0  0.091934  0.099604  0  1.010104  0
H  H13  1  0.86174313  0.72792976  0.90462022  1  0  0.082613  0  0.948374  0  0  0.100606  0  1.00879  0  0  0.101583  0  1.008657  0  0  0.091669  0.099813  0  1.009008  0
H  H14  1  0.64242362  0.75402912  0.13660459  1  0  0.081415  0  0.948696  0  0  0.094974  0  1.013767  0  0  0.09666  0  1.01341  0  0  0.085074  0.093857  0  1.013869  0
H  H15  1  0.35706156  0.10967674  0.13653429  1  0  0.081842  0  0.948824  0  0  0.095554  0  1.013463  0  0  0.097194  0  1.013152  0  0  0.085691  0.094281  0  1.013914  0
H  H16  1  0.35757532  0.24596930  0.86340470  1  0  0.081368  0  0.948691  0  0  0.094961  0  1.013738  0  0  0.096646  0  1.013379  0  0  0.08505  0.093847  0  1.013837  0
H  H17  1  0.64293996  0.89032641  0.86345988  1  0  0.081841  0  0.948865  0  0  0.095546  0  1.013497  0  0  0.097188  0  1.013189  0  0  0.085717  0.094276  0  1.013943  0
H  H18  1  0.79560683  0.71310610  0.34111936  1  0  0.093223  0  0.980774  0  0  0.114213  0  1.042356  0  0  0.1145  0  1.044636  0  0  0.079444  0.114049  0  1.04057  0
H  H19  1  0.20454180  0.94577116  0.34147746  1  0  0.092412  0  0.980869  0  0  0.113952  0  1.041924  0  0  0.114285  0  1.044174  0  0  0.079685  0.113585  0  1.040489  0
H  H20  1  0.20439859  0.28689168  0.65888656  1  0  0.093319  0  0.980683  0  0  0.114301  0  1.042267  0  0  0.114587  0  1.044547  0  0  0.079488  0.114135  0  1.040483  0
H  H21  1  0.79547038  0.05422663  0.65851798  1  0  0.09242  0  0.980928  0  0  0.114006  0  1.04193  0  0  0.114339  0  1.044177  0  0  0.079722  0.113639  0  1.040496  0
H  H22  1  0.91386171  0.82279264  0.20322963  1  0  0.101291  0  0.974176  0  0  0.122658  0  1.036228  0  0  0.123914  0  1.03669  0  0  0.079696  0.121599  0  1.036197  0
H  H23  1  0.08584520  0.97392435  0.20377482  1  0  0.100362  0  0.974155  0  0  0.121822  0  1.036312  0  0  0.123058  0  1.036821  0  0  0.079759  0.120846  0  1.036115  0
H  H24  1  0.08613853  0.17720726  0.79677298  1  0  0.101313  0  0.974144  0  0  0.12268  0  1.036199  0  0  0.123936  0  1.036661  0  0  0.079703  0.121624  0  1.036168  0
H  H25  1  0.91416602  0.02606621  0.79622134  1  0  0.100421  0  0.97419  0  0  0.121906  0  1.036307  0  0  0.123143  0  1.036815  0  0  0.079796  0.120929  0  1.036115  0
H  H26  1  0.01336306  0.59739561  0.29282032  1  0  0.089734  0  0.992441  0  0  0.104562  0  1.066942  0  0  0.105333  0  1.068393  0  0  0.074688  0.103802  0  1.06619  0
H  H27  1  0.98668773  0.10972278  0.29339425  1  0  0.088555  0  0.991846  0  0  0.10332  0  1.066892  0  0  0.104089  0  1.068342  0  0  0.073905  0.102732  0  1.065803  0
H  H28  1  0.98664268  0.40260299  0.70718349  1  0  0.089746  0  0.992481  0  0  0.104591  0  1.066965  0  0  0.105356  0  1.068423  0  0  0.074681  0.103832  0  1.066211  0
H  H29  1  0.01331734  0.89026835  0.70660406  1  0  0.088601  0  0.991935  0  0  0.103352  0  1.066987  0  0  0.104122  0  1.068436  0  0  0.073892  0.102767  0  1.065896  0
C  C30  1  0.40597364  0.58151438  0.38269399  1  0  -0.093038  0  3.735066  0  0  -0.109892  0  3.975605  0  0  -0.112412  0  3.997045  0  0  -0.087859  -0.109107  0  3.96104  0
C  C31  1  0.59394348  0.03555296  0.38265613  1  0  -0.095432  0  3.733861  0  0  -0.11282  0  3.97443  0  0  -0.115241  0  3.995742  0  0  -0.088303  -0.111167  0  3.960216  0
C  C32  1  0.59402423  0.41848672  0.61731135  1  0  -0.093017  0  3.735227  0  0  -0.109886  0  3.975792  0  0  -0.112406  0  3.997233  0  0  -0.087814  -0.109103  0  3.961225  0
C  C33  1  0.40604644  0.96445029  0.61734074  1  0  -0.09529  0  3.733706  0  0  -0.112704  0  3.97429  0  0  -0.115124  0  3.995601  0  0  -0.088288  -0.111051  0  3.96008  0
C  C34  1  0.59213102  0.47786173  0.39114164  1  0  0.040758  0  3.752395  0  0  0.065201  0  3.996806  0  0  0.064037  0  4.022346  0  0  -0.0098  0.065551  0  3.979909  0
C  C35  1  0.40797507  0.13110229  0.39112636  1  0  0.041043  0  3.75197  0  0  0.0652  0  3.996659  0  0  0.064045  0  4.022158  0  0  -0.010221  0.065775  0  3.979743  0
C  C36  1  0.40787132  0.52213439  0.60886211  1  0  0.040809  0  3.752636  0  0  0.065234  0  3.997066  0  0  0.064065  0  4.022617  0  0  -0.009774  0.065582  0  3.980167  0
C  C37  1  0.59201753  0.86890430  0.60886716  1  0  0.040913  0  3.752063  0  0  0.065091  0  3.996738  0  0  0.063936  0  4.022235  0  0  -0.010225  0.065665  0  3.97982  0
C  C38  1  0.31443449  0.60310100  0.49154273  1  0  -0.094416  0  3.7421  0  0  -0.112348  0  3.982913  0  0  -0.114408  0  4.004474  0  0  -0.086393  -0.110518  0  3.968437  0
C  C39  1  0.68538783  0.90495673  0.49150976  1  0  -0.092551  0  3.738428  0  0  -0.110096  0  3.979306  0  0  -0.11213  0  4.000784  0  0  -0.08571  -0.108794  0  3.964728  0
C  C40  1  0.68556171  0.39689763  0.50846640  1  0  -0.094373  0  3.742111  0  0  -0.112316  0  3.982922  0  0  -0.114376  0  4.004484  0  0  -0.086313  -0.110482  0  3.968442  0
C  C41  1  0.31460000  0.09505031  0.50848598  1  0  -0.092521  0  3.738252  0  0  -0.110071  0  3.979146  0  0  -0.112103  0  4.000621  0  0  -0.085679  -0.108766  0  3.964572  0
C  C42  1  0.77357909  0.65293578  0.17526178  1  0  -0.079526  0  3.643847  0  0  -0.110688  0  3.907032  0  0  -0.110528  0  3.918865  0  0  -0.150446  -0.110928  0  3.898913  0
C  C43  1  0.22610007  0.17193406  0.17546238  1  0  -0.0807  0  3.644558  0  0  -0.111434  0  3.906869  0  0  -0.111217  0  3.918676  0  0  -0.15079  -0.111575  0  3.89866  0
C  C44  1  0.22641880  0.34706355  0.82474532  1  0  -0.079503  0  3.643905  0  0  -0.110731  0  3.907143  0  0  -0.110559  0  3.918947  0  0  -0.150446  -0.110971  0  3.899027  0
C  C45  1  0.77390114  0.82806545  0.82453154  1  0  -0.080658  0  3.644571  0  0  -0.111378  0  3.906876  0  0  -0.111195  0  3.91875  0  0  -0.150766  -0.111512  0  3.898668  0
C  C46  1  0.88068056  0.69815191  0.25899518  1  0  -0.292206  0  3.734949  0  0  -0.365346  0  3.973805  0  0  -0.368568  0  3.986093  0  0  -0.259355  -0.36289  0  3.965473  0
C  C47  1  0.11925084  0.04281132  0.25943168  1  0  -0.288646  0  3.733442  0  0  -0.362484  0  3.972065  0  0  -0.365727  0  3.984382  0  0  -0.258467  -0.359806  0  3.963377  0
C  C48  1  0.11932246  0.30184601  0.74100935  1  0  -0.292388  0  3.734963  0  0  -0.365544  0  3.973859  0  0  -0.368759  0  3.986156  0  0  -0.25942  -0.36309  0  3.965528  0
C  C49  1  0.88075794  0.95718399  0.74056370  1  0  -0.288804  0  3.733637  0  0  -0.362695  0  3.972253  0  0  -0.365932  0  3.984574  0  0  -0.258537  -0.36002  0  3.963569  0
S  S50  1  0.71408118  0.44427027  0.25520200  1  0  0.016823  0  2.792869  0  0  0.029654  0  3.203467  0  0  0.03054  0  3.193671  0  0  -0.021887  0.028939  0  3.20878  0
S  S51  1  0.28598622  0.30063855  0.25523907  1  0  0.016677  0  2.793067  0  0  0.029126  0  3.203725  0  0  0.030009  0  3.193879  0  0  -0.021983  0.027832  0  3.21064  0
S  S52  1  0.28591975  0.55572861  0.74479903  1  0  0.016819  0  2.792914  0  0  0.029682  0  3.203502  0  0  0.03057  0  3.193705  0  0  -0.021875  0.028971  0  3.208816  0
S  S53  1  0.71400710  0.69936435  0.74475551  1  0  0.016761  0  2.79306  0  0  0.029193  0  3.203705  0  0  0.030086  0  3.193869  0  0  -0.021975  0.027902  0  3.210615  0
I  I54  1  0.28851621  0.75430848  0.00003408  1  0  -0.401954  0  1.374817  0  0  -0.345273  0  1.745051  0  0  -0.36086  0  1.713582  0  0  -0.208716  -0.336009  0  1.76444  0
I  I55  1  0.71148810  0.24569944  0.99997085  1  0  -0.401917  0  1.374755  0  0  -0.34525  0  1.745015  0  0  -0.36084  0  1.713546  0  0  -0.208704  -0.335989  0  1.764409  0
