# generated using pymatgen
data_BaZn2H14C24(NO3)4
_symmetry_space_group_name_H-M   'P 1'
_cell_length_a   7.41768451
_cell_length_b   11.36297955
_cell_length_c   15.35260000
_cell_angle_alpha   95.45106626
_cell_angle_beta   97.55872284
_cell_angle_gamma   105.09322833
_symmetry_Int_Tables_number   1
_chemical_formula_structural   BaZn2H14C24(NO3)4
_chemical_formula_sum   'Ba2 Zn4 H28 C48 N8 O24'
_cell_volume   1227.18405628
_cell_formula_units_Z   2
loop_
 _symmetry_equiv_pos_site_id
 _symmetry_equiv_pos_as_xyz
  1  'x, y, z'
loop_
 _atom_site_type_symbol
 _atom_site_label
 _atom_site_symmetry_multiplicity
 _atom_site_fract_x
 _atom_site_fract_y
 _atom_site_fract_z
 _atom_site_occupancy
 _atom_site_hle17_bader_spin_density
 _atom_site_hle17_ddec_charge
 _atom_site_hle17_ddec_spin_density
 _atom_site_hle17_ddec_sum_bond_order
 _atom_site_hle17_magmom
 _atom_site_hse06_10hf_bader_spin_density
 _atom_site_hse06_10hf_ddec_charge
 _atom_site_hse06_10hf_ddec_spin_density
 _atom_site_hse06_10hf_ddec_sum_bond_order
 _atom_site_hse06_10hf_magmom
 _atom_site_hse06_bader_spin_density
 _atom_site_hse06_ddec_charge
 _atom_site_hse06_ddec_spin_density
 _atom_site_hse06_ddec_sum_bond_order
 _atom_site_hse06_magmom
 _atom_site_pbe_bader_charge
 _atom_site_pbe_bader_spin_density
 _atom_site_pbe_cm5_charge
 _atom_site_pbe_ddec_charge
 _atom_site_pbe_ddec_spin_density
 _atom_site_pbe_ddec_sum_bond_order
 _atom_site_pbe_magmom
Ba  Ba0  1  0.74359038  0.47235253  0.44042853  1  0  1.617671  0  1.228577  0  0  1.472477  0  1.636622  0  0  1.514708  0  1.592407  0  1.68104  0  0.968833  1.44177  0  1.667421  0
Ba  Ba1  1  0.25640855  0.52764711  0.55957151  1  0  1.617662  0  1.228589  0  0  1.472477  0  1.636641  0  0  1.514703  0  1.592423  0  1.681022  0  0.968853  1.441797  0  1.667396  0
Zn  Zn2  1  0.99020344  0.96526528  0.11955821  1  0  1.076784  0  1.767813  0  0  0.898108  0  2.226097  0  0  0.947181  0  2.169625  0  1.28542  0  0.705089  0.863614  0  2.265018  0
Zn  Zn3  1  0.00979549  0.03473436  0.88044248  1  0  1.076749  0  1.767841  0  0  0.898072  0  2.226117  0  0  0.947147  0  2.169641  0  1.285446  0  0.705066  0.863579  0  2.265036  0
Zn  Zn4  1  0.02715557  0.30359862  0.73766470  1  0  1.115921  0  1.746504  0  0  0.934266  0  2.217974  0  0  0.983829  0  2.158306  0  1.296683  0  0.723097  0.899262  0  2.259264  0
Zn  Zn5  1  0.97284608  0.69640102  0.26233486  1  0  1.115883  0  1.74647  0  0  0.934235  0  2.21795  0  0  0.983801  0  2.158283  0  1.296565  0  0.723076  0.89923  0  2.259238  0
H  H6  1  0.65216350  0.20290320  0.26239867  1  0  0.330731  0  0.890029  0  0  0.311249  0  0.951058  0  0  0.31978  0  0.94393  0  0.565803  0  0.328047  0.305155  0  0.95627  0
H  H7  1  0.34783717  0.79709736  0.73760024  1  0  0.330692  0  0.890056  0  0  0.311207  0  0.951101  0  0  0.319739  0  0.943971  0  0.565829  0  0.328012  0.305113  0  0.956314  0
H  H8  1  0.42544902  0.25704880  0.86522831  1  0  0.321111  0  0.867604  0  0  0.303956  0  0.924552  0  0  0.310998  0  0.919672  0  0.513561  0  0.328475  0.298951  0  0.928165  0
H  H9  1  0.57455030  0.74295176  0.13476986  1  0  0.321086  0  0.867653  0  0  0.303933  0  0.924601  0  0  0.310975  0  0.91972  0  0.513541  0  0.328474  0.298929  0  0.928213  0
H  H10  1  0.55124317  0.65372406  0.93452906  1  0  0.102047  0  0.95929  0  0  0.109984  0  1.026161  0  0  0.114012  0  1.022047  0  0.124002  0  0.107684  0.107093  0  1.029051  0
H  H11  1  0.44875654  0.34627741  0.06547116  1  0  0.102038  0  0.959226  0  0  0.109948  0  1.026115  0  0  0.113975  0  1.022004  0  0.124032  0  0.107671  0.107057  0  1.029006  0
H  H12  1  0.60097207  0.47509389  0.68099761  1  0  0.108306  0  0.960449  0  0  0.114645  0  1.031507  0  0  0.118975  0  1.027138  0  0.123952  0  0.122472  0.111436  0  1.034775  0
H  H13  1  0.39902725  0.52490667  0.31900382  1  0  0.108287  0  0.9604  0  0  0.1146  0  1.031487  0  0  0.118929  0  1.027118  0  0.123941  0  0.122473  0.111394  0  1.034748  0
H  H14  1  0.07067514  0.75647183  0.82892677  1  0  0.105653  0  0.975237  0  0  0.112572  0  1.042931  0  0  0.116663  0  1.038555  0  0.125401  0  0.108989  0.109647  0  1.045932  0
H  H15  1  0.92932418  0.24352873  0.17107466  1  0  0.10565  0  0.975251  0  0  0.112571  0  1.04294  0  0  0.116658  0  1.038573  0  0.125406  0  0.108986  0.109647  0  1.04594  0
H  H16  1  0.30618893  0.12366032  0.28467839  1  0  0.108045  0  0.957763  0  0  0.115884  0  1.020442  0  0  0.118606  0  1.017493  0  0.187927  0  0.139312  0.11382  0  1.022638  0
H  H17  1  0.69381214  0.87634116  0.71532256  1  0  0.108037  0  0.957761  0  0  0.115884  0  1.020431  0  0  0.118606  0  1.017483  0  0.187937  0  0.139323  0.113819  0  1.022628  0
H  H18  1  0.70761040  0.10750744  0.11558695  1  0  0.112676  0  1.009334  0  0  0.121321  0  1.071998  0  0  0.124716  0  1.069069  0  0.159407  0  0.11835  0.118801  0  1.074308  0
H  H19  1  0.29238774  0.89249036  0.88441226  1  0  0.112685  0  1.009283  0  0  0.121306  0  1.07198  0  0  0.124701  0  1.06905  0  0.159131  0  0.118366  0.118789  0  1.074283  0
H  H20  1  0.35644794  0.95335047  0.03535285  1  0  0.110206  0  0.982163  0  0  0.120042  0  1.042087  0  0  0.122297  0  1.041581  0  0.140828  0  0.115028  0.118432  0  1.04247  0
H  H21  1  0.64354923  0.04664825  0.96464701  1  0  0.110203  0  0.982164  0  0  0.12004  0  1.042084  0  0  0.122291  0  1.041596  0  0.140808  0  0.115019  0.11843  0  1.042467  0
H  H22  1  0.68099889  0.98655316  0.59548254  1  0  0.105693  0  0.950524  0  0  0.110982  0  1.020966  0  0  0.115346  0  1.01669  0  0.114865  0  0.106583  0.107806  0  1.024035  0
H  H23  1  0.31900140  0.01344648  0.40451759  1  0  0.105697  0  0.950491  0  0  0.110967  0  1.020959  0  0  0.115332  0  1.016683  0  0.114868  0  0.106573  0.107795  0  1.024021  0
H  H24  1  0.68218375  0.75550407  0.35781231  1  0  0.103672  0  0.975556  0  0  0.107661  0  1.051213  0  0  0.112264  0  1.046389  0  0.131875  0  0.111382  0.104297  0  1.054699  0
H  H25  1  0.31781343  0.24449465  0.64218755  1  0  0.103687  0  0.975548  0  0  0.107676  0  1.051206  0  0  0.112278  0  1.046382  0  0.13189  0  0.111389  0.10431  0  1.054695  0
H  H26  1  0.91993924  0.14914212  0.38020853  1  0  0.11973  0  0.941717  0  0  0.125843  0  1.007517  0  0  0.130196  0  1.003533  0  0.15606  0  0.116713  0.122659  0  1.010409  0
H  H27  1  0.08005754  0.85085568  0.61978994  1  0  0.119702  0  0.941743  0  0  0.12582  0  1.00753  0  0  0.130177  0  1.003542  0  0.156035  0  0.116701  0.122635  0  1.010426  0
H  H28  1  0.58360130  0.20590398  0.73417936  1  0  0.097967  0  0.943809  0  0  0.10896  0  1.005216  0  0  0.110646  0  1.003546  0  0.160166  0  0.138726  0.107691  0  1.006391  0
H  H29  1  0.41640074  0.79409658  0.26581963  1  0  0.097977  0  0.943804  0  0  0.108972  0  1.005208  0  0  0.110657  0  1.003539  0  0.160195  0  0.138739  0.107705  0  1.006376  0
H  H30  1  0.67023020  0.39196711  0.99637794  1  0  0.121143  0  0.973675  0  0  0.129149  0  1.03524  0  0  0.132674  0  1.032405  0  0.178108  0  0.122898  0.12657  0  1.037388  0
H  H31  1  0.32977184  0.60803345  0.00362236  1  0  0.12113  0  0.973688  0  0  0.129126  0  1.035266  0  0  0.13265  0  1.032432  0  0.178133  0  0.12289  0.126548  0  1.037416  0
H  H32  1  0.01598536  0.42163731  0.93607316  1  0  0.119841  0  0.966044  0  0  0.130296  0  1.023071  0  0  0.132648  0  1.02242  0  0.197484  0  0.121825  0.128551  0  1.023703  0
H  H33  1  0.98401686  0.57836049  0.06392566  1  0  0.119845  0  0.966054  0  0  0.130311  0  1.023049  0  0  0.132666  0  1.022393  0  0.197514  0  0.121805  0.128566  0  1.02368  0
C  C34  1  0.81941780  0.71685085  0.89027789  1  0  -0.092877  0  3.798681  0  0  -0.065414  0  4.036366  0  0  -0.077967  0  4.06124  0  -0.03852  0  -0.022172  -0.057444  0  4.01966  0
C  C35  1  0.18057880  0.28314971  0.10972336  1  0  -0.09279  0  3.798728  0  0  -0.065371  0  4.03644  0  0  -0.077925  0  4.061317  0  -0.038514  0  -0.022152  -0.057402  0  4.019735  0
C  C36  1  0.63378802  0.64338232  0.88231894  1  0  -0.031141  0  3.669201  0  0  -0.073012  0  3.920201  0  0  -0.066921  0  3.936619  0  -0.013226  0  -0.06336  -0.076541  0  3.908893  0
C  C37  1  0.36620858  0.35661824  0.11768166  1  0  -0.031174  0  3.669205  0  0  -0.072971  0  3.920157  0  0  -0.06688  0  3.936575  0  -0.013208  0  -0.063347  -0.0765  0  3.90885  0
C  C38  1  0.55212555  0.55808360  0.80624222  1  0  -0.08237  0  3.752696  0  0  -0.055998  0  3.992789  0  0  -0.06737  0  4.016533  0  -0.052461  0  -0.011972  -0.048874  0  3.976924  0
C  C39  1  0.44787319  0.44191880  0.19375865  1  0  -0.082427  0  3.75278  0  0  -0.056072  0  3.992877  0  0  -0.067441  0  4.016616  0  -0.052462  0  -0.012014  -0.048948  0  3.977013  0
C  C40  1  0.65990693  0.54386715  0.73944121  1  0  -0.051383  0  3.652705  0  0  -0.09011  0  3.902862  0  0  -0.084841  0  3.919782  0  -0.053568  0  -0.053638  -0.093124  0  3.891402  0
C  C41  1  0.34009414  0.45613433  0.26055975  1  0  -0.051347  0  3.652625  0  0  -0.090036  0  3.90283  0  0  -0.084764  0  3.919743  0  -0.05358  0  -0.053638  -0.093051  0  3.89137  0
C  C42  1  0.84844775  0.61487582  0.74872144  1  0  -0.060477  0  3.728182  0  0  -0.034821  0  3.963548  0  0  -0.045233  0  3.985758  0  -0.025492  0  -0.007907  -0.028473  0  3.948894  0
C  C43  1  0.15155117  0.38512382  0.25127990  1  0  -0.060471  0  3.728171  0  0  -0.034881  0  3.963616  0  0  -0.045293  0  3.985825  0  -0.0255  0  -0.007901  -0.028533  0  3.948964  0
C  C44  1  0.92573457  0.70109997  0.82358009  1  0  -0.034474  0  3.68204  0  0  -0.074752  0  3.929026  0  0  -0.069047  0  3.945594  0  -0.011949  0  -0.066308  -0.07804  0  3.917757  0
C  C45  1  0.07426475  0.29890059  0.17642133  1  0  -0.034499  0  3.682128  0  0  -0.074741  0  3.929139  0  0  -0.069038  0  3.94571  0  -0.011985  0  -0.066301  -0.078031  0  3.917871  0
C  C46  1  0.90675635  0.81579015  0.96555817  1  0  0.657951  0  3.876622  0  0  0.604178  0  4.162793  0  0  0.639401  0  4.156694  0  1.546186  0  0.215555  0.580207  0  4.16634  0
C  C47  1  0.09324258  0.18420949  0.03444317  1  0  0.658076  0  3.876423  0  0  0.604287  0  4.162615  0  0  0.639513  0  4.156514  0  1.546182  0  0.215624  0.580317  0  4.166163  0
C  C48  1  0.35261827  0.48086363  0.80116811  1  0  0.648385  0  3.905097  0  0  0.596473  0  4.199459  0  0  0.631099  0  4.192611  0  1.56268  0  0.210827  0.572954  0  4.203462  0
C  C49  1  0.64738008  0.51913785  0.19883202  1  0  0.648438  0  3.905079  0  0  0.596516  0  4.199474  0  0  0.631138  0  4.192618  0  1.562642  0  0.210837  0.572997  0  4.203476  0
C  C50  1  0.97145533  0.60086451  0.68006460  1  0  0.665383  0  3.923657  0  0  0.619386  0  4.210083  0  0  0.653668  0  4.20203  0  1.596574  0  0.213894  0.596149  0  4.214947  0
C  C51  1  0.02854535  0.39913605  0.31993626  1  0  0.665438  0  3.923665  0  0  0.619455  0  4.210111  0  0  0.653739  0  4.202052  0  1.596526  0  0.213901  0.596218  0  4.214975  0
C  C52  1  0.36375521  0.09516210  0.22755112  1  0  0.228489  0  3.636573  0  0  0.167932  0  3.904538  0  0  0.182615  0  3.917018  0  0.995125  0  0.148058  0.158387  0  3.895859  0
C  C53  1  0.63624586  0.90483938  0.77244919  1  0  0.228517  0  3.636642  0  0  0.167946  0  3.904618  0  0  0.18263  0  3.917095  0  0.995118  0  0.148057  0.158402  0  3.895939  0
C  C54  1  0.57191444  0.08701069  0.13796174  1  0  -0.018561  0  3.693598  0  0  -0.05727  0  3.955929  0  0  -0.056266  0  3.974682  0  0.335926  0  -0.005374  -0.057943  0  3.943495  0
C  C55  1  0.42808409  0.91298803  0.86203755  1  0  -0.018484  0  3.693483  0  0  -0.057172  0  3.955825  0  0  -0.056165  0  3.974574  0  0.336198  0  -0.005338  -0.057847  0  3.943393  0
C  C56  1  0.39909382  0.01083390  0.09878300  1  0  -0.014683  0  3.760168  0  0  -0.049221  0  4.025769  0  0  -0.047787  0  4.047619  0  0.334156  0  -0.016295  -0.050181  0  4.010978  0
C  C57  1  0.60090471  0.98916481  0.90121760  1  0  -0.014709  0  3.76015  0  0  -0.049252  0  4.025747  0  0  -0.047822  0  4.047589  0  0.334158  0  -0.016314  -0.050213  0  4.01096  0
C  C58  1  0.80765181  0.08078650  0.49378092  1  0  -0.076788  0  3.729141  0  0  -0.049802  0  3.965957  0  0  -0.061691  0  3.990368  0  0.013559  0  -0.010339  -0.042395  0  3.949721  0
C  C59  1  0.19234944  0.91921222  0.50621855  1  0  -0.076702  0  3.729046  0  0  -0.049725  0  3.965856  0  0  -0.061615  0  3.990269  0  0.013544  0  -0.010326  -0.042321  0  3.949624  0
C  C60  1  0.71464793  0.97637700  0.52880316  1  0  -0.033101  0  3.659192  0  0  -0.071845  0  3.909754  0  0  -0.066715  0  3.927327  0  -0.024598  0  -0.061993  -0.074691  0  3.897679  0
C  C61  1  0.28535099  0.02362264  0.47119688  1  0  -0.033114  0  3.659127  0  0  -0.071837  0  3.909682  0  0  -0.06671  0  3.927259  0  -0.024736  0  -0.061969  -0.074681  0  3.897611  0
C  C62  1  0.66814905  0.85938242  0.47979071  1  0  -0.064921  0  3.736733  0  0  -0.038839  0  3.971542  0  0  -0.049804  0  3.9949  0  -0.037567  0  -0.011566  -0.032068  0  3.955947  0
C  C63  1  0.33184716  0.14061722  0.52020916  1  0  -0.06494  0  3.736752  0  0  -0.038867  0  3.971563  0  0  -0.04983  0  3.994922  0  -0.037514  0  -0.011581  -0.032096  0  3.955967  0
C  C64  1  0.71436275  0.84711252  0.39484926  1  0  -0.058308  0  3.69907  0  0  -0.096601  0  3.949831  0  0  -0.091322  0  3.966697  0  -0.042271  0  -0.069394  -0.099578  0  3.938308  0
C  C65  1  0.28563578  0.15288620  0.60515068  1  0  -0.058274  0  3.699134  0  0  -0.09656  0  3.949886  0  0  -0.091282  0  3.966753  0  -0.042312  0  -0.069374  -0.099539  0  3.938366  0
C  C66  1  0.80300163  0.95096603  0.35840536  1  0  -0.097368  0  3.792613  0  0  -0.072181  0  4.033393  0  0  -0.085066  0  4.057914  0  -0.009163  0  -0.024815  -0.064006  0  4.016881  0
C  C67  1  0.19699730  0.04903361  0.64159468  1  0  -0.097405  0  3.792654  0  0  -0.072221  0  4.033433  0  0  -0.085107  0  4.057955  0  -0.008953  0  -0.024817  -0.064046  0  4.01692  0
C  C68  1  0.84874554  0.06813668  0.40778129  1  0  -0.023369  0  3.635468  0  0  -0.063569  0  3.886695  0  0  -0.056922  0  3.902201  0  -0.079487  0  -0.057598  -0.067464  0  3.876068  0
C  C69  1  0.15125475  0.93186296  0.59221818  1  0  -0.02338  0  3.635439  0  0  -0.063573  0  3.886662  0  0  -0.056927  0  3.902164  0  -0.079436  0  -0.057601  -0.067467  0  3.876035  0
C  C70  1  0.87987619  0.20403286  0.55092032  1  0  0.67857  0  3.888643  0  0  0.628072  0  4.180714  0  0  0.662932  0  4.173212  0  1.582538  0  0.228994  0.60436  0  4.185148  0
C  C71  1  0.12012409  0.79596678  0.44907915  1  0  0.678542  0  3.888647  0  0  0.628049  0  4.180717  0  0  0.662912  0  4.173211  0  1.582535  0  0.228995  0.604337  0  4.185151  0
C  C72  1  0.57517248  0.74634534  0.51809713  1  0  0.657964  0  3.93688  0  0  0.613834  0  4.219765  0  0  0.647669  0  4.212973  0  1.57413  0  0.204111  0.590939  0  4.223609  0
C  C73  1  0.42482508  0.25365429  0.48190347  1  0  0.657986  0  3.936774  0  0  0.613862  0  4.219649  0  0  0.647696  0  4.21286  0  1.574135  0  0.204144  0.590966  0  4.223492  0
C  C74  1  0.85570714  0.93611484  0.26922997  1  0  0.658153  0  3.869213  0  0  0.60629  0  4.150893  0  0  0.642041  0  4.143639  0  1.4977  0  0.215038  0.581972  0  4.155173  0
C  C75  1  0.14429314  0.06388480  0.73077015  1  0  0.658269  0  3.869136  0  0  0.606399  0  4.150811  0  0  0.642148  0  4.143556  0  1.497637  0  0.215069  0.582082  0  4.155094  0
C  C76  1  0.65495536  0.25968713  0.79716988  1  0  0.231525  0  3.645994  0  0  0.169074  0  3.91656  0  0  0.183509  0  3.930236  0  0.955596  0  0.149403  0.159758  0  3.906928  0
C  C77  1  0.34504629  0.74031251  0.20282968  1  0  0.231559  0  3.646083  0  0  0.169119  0  3.916658  0  0  0.183555  0  3.930331  0  0.95564  0  0.149416  0.159804  0  3.907027  0
C  C78  1  0.70382398  0.35593198  0.93438592  1  0  -0.003864  0  3.654571  0  0  -0.038753  0  3.912278  0  0  -0.038335  0  3.931934  0  0.309098  0  0.007158  -0.038955  0  3.899092  0
C  C79  1  0.29618038  0.64406766  0.06561447  1  0  -0.00376  0  3.654662  0  0  -0.038638  0  3.912367  0  0  -0.038221  0  3.932022  0  0.309059  0  0.007196  -0.038842  0  3.899182  0
C  C80  1  0.87386065  0.37194504  0.90435755  1  0  -0.000611  0  3.721646  0  0  -0.03439  0  3.982736  0  0  -0.033412  0  4.005476  0  0.326496  0  -0.001556  -0.034998  0  3.96736  0
C  C81  1  0.12614157  0.62805276  0.09564062  1  0  -0.000683  0  3.721633  0  0  -0.034449  0  3.982737  0  0  -0.03347  0  4.005472  0  0.326425  0  -0.001549  -0.035055  0  3.967358  0
N  N82  1  0.26963985  0.01675635  0.15515062  1  0  -0.433591  0  3.341945  0  0  -0.348961  0  3.641204  0  0  -0.372445  0  3.656214  0  -1.249553  0  -0.373931  -0.333019  0  3.630707  0
N  N83  1  0.73036044  0.98324329  0.84484950  1  0  -0.433616  0  3.342059  0  0  -0.348965  0  3.641307  0  0  -0.372448  0  3.656317  0  -1.249578  0  -0.373929  -0.333023  0  3.63081  0
N  N84  1  0.54689194  0.13812791  0.21894751  1  0  -0.263661  0  3.434055  0  0  -0.194869  0  3.668066  0  0  -0.210921  0  3.683083  0  -1.311138  0  -0.365658  -0.18414  0  3.657804  0
N  N85  1  0.45310874  0.86187265  0.78105205  1  0  -0.263652  0  3.43401  0  0  -0.194863  0  3.668023  0  0  -0.210916  0  3.683039  0  -1.311164  0  -0.365639  -0.184134  0  3.657764  0
N  N86  1  0.84139832  0.31169760  0.81871747  1  0  -0.414783  0  3.320539  0  0  -0.330383  0  3.626711  0  0  -0.352911  0  3.639516  0  -1.210429  0  -0.35978  -0.315026  0  3.617689  0
N  N87  1  0.15860507  0.68830296  0.18128161  1  0  -0.414752  0  3.32048  0  0  -0.330387  0  3.626685  0  0  -0.352915  0  3.639489  0  -1.21027  0  -0.359783  -0.315029  0  3.61766  0
N  N88  1  0.56838654  0.28472553  0.86591255  1  0  -0.275816  0  3.464719  0  0  -0.208688  0  3.70131  0  0  -0.22478  0  3.718238  0  -1.257403  0  -0.371129  -0.19795  0  3.689782  0
N  N89  1  0.43161510  0.71527411  0.13408635  1  0  -0.275897  0  3.464851  0  0  -0.208778  0  3.701463  0  0  -0.224868  0  3.718383  0  -1.257455  0  -0.371172  -0.198041  0  3.689936  0
O  O90  1  0.83311953  0.81779833  0.03637271  1  0  -0.597621  0  2.017667  0  0  -0.525834  0  2.27853  0  0  -0.553765  0  2.264406  0  -1.146429  0  -0.303756  -0.50656  0  2.287728  0
O  O91  1  0.16687940  0.18220130  0.96362863  1  0  -0.597715  0  2.017504  0  0  -0.525945  0  2.278439  0  0  -0.553858  0  2.264269  0  -1.146378  0  -0.303852  -0.50667  0  2.287636  0
O  O92  1  0.05550827  0.89899328  0.95701670  1  0  -0.674041  0  2.106258  0  0  -0.59857  0  2.370025  0  0  -0.625582  0  2.355032  0  -1.212506  0  -0.321333  -0.579602  0  2.379562  0
O  O93  1  0.94449202  0.10100636  0.04298407  1  0  -0.674082  0  2.106268  0  0  -0.598607  0  2.370057  0  0  -0.625612  0  2.355046  0  -1.212505  0  -0.321316  -0.579639  0  2.379594  0
O  O94  1  0.26302583  0.42561596  0.72236549  1  0  -0.716818  0  2.084591  0  0  -0.634001  0  2.370383  0  0  -0.665694  0  2.354224  0  -1.187335  0  -0.355873  -0.611719  0  2.380749  0
O  O95  1  0.73697581  0.57438368  0.27763276  1  0  -0.716859  0  2.084678  0  0  -0.634006  0  2.370406  0  0  -0.665724  0  2.354317  0  -1.187301  0  -0.355874  -0.611726  0  2.38078  0
O  O96  1  0.28062991  0.46854038  0.86986110  1  0  -0.590327  0  1.909911  0  0  -0.541307  0  2.130341  0  0  -0.563504  0  2.121086  0  -1.173281  0  -0.305079  -0.52579  0  2.136194  0
O  O97  1  0.71936805  0.53146018  0.13013829  1  0  -0.590319  0  1.909862  0  0  -0.541301  0  2.130287  0  0  -0.563502  0  2.12105  0  -1.173268  0  -0.305062  -0.525786  0  2.136146  0
O  O98  1  0.89788243  0.52112671  0.61192113  1  0  -0.744232  0  2.031249  0  0  -0.680991  0  2.281016  0  0  -0.708141  0  2.27063  0  -1.229732  0  -0.410265  -0.6619  0  2.287623  0
O  O99  1  0.10211825  0.47887384  0.38808104  1  0  -0.744306  0  2.031298  0  0  -0.68106  0  2.281057  0  0  -0.70821  0  2.270668  0  -1.22972  0  -0.410297  -0.66197  0  2.287665  0
O  O100  1  0.14287202  0.66595349  0.69383870  1  0  -0.673966  0  1.971893  0  0  -0.623327  0  2.207323  0  0  -0.648525  0  2.198165  0  -1.214274  0  -0.353395  -0.605671  0  2.213078  0
O  O101  1  0.85712730  0.33404707  0.30616143  1  0  -0.673982  0  1.971884  0  0  -0.623344  0  2.207311  0  0  -0.648539  0  2.198151  0  -1.214248  0  -0.353386  -0.605685  0  2.213065  0
O  O102  1  0.85865896  0.20160151  0.63310204  1  0  -0.675556  0  2.060099  0  0  -0.599817  0  2.339418  0  0  -0.62991  0  2.323758  0  -1.17779  0  -0.329868  -0.578656  0  2.34947  0
O  O103  1  0.14134366  0.79839721  0.36689752  1  0  -0.675515  0  2.060119  0  0  -0.599775  0  2.339446  0  0  -0.629863  0  2.323771  0  -1.177802  0  -0.329841  -0.578614  0  2.349497  0
O  O104  1  0.95977115  0.29741124  0.51835335  1  0  -0.679837  0  1.981711  0  0  -0.625358  0  2.22571  0  0  -0.650703  0  2.217838  0  -1.211514  0  -0.334042  -0.607704  0  2.230685  0
O  O105  1  0.04023050  0.70258840  0.48164686  1  0  -0.679866  0  1.981656  0  0  -0.625399  0  2.225662  0  0  -0.650745  0  2.217788  0  -1.211512  0  -0.33407  -0.607744  0  2.230637  0
O  O106  1  0.52017583  0.75873575  0.59229188  1  0  -0.66886  0  1.925573  0  0  -0.61901  0  2.15488  0  0  -0.644158  0  2.148257  0  -1.204376  0  -0.360796  -0.60143  0  2.158879  0
O  O107  1  0.47982310  0.24126388  0.40770751  1  0  -0.668871  0  1.925559  0  0  -0.619012  0  2.15485  0  0  -0.644159  0  2.148229  0  -1.204353  0  -0.360794  -0.601428  0  2.158848  0
O  O108  1  0.55267942  0.64131066  0.47234819  1  0  -0.757276  0  1.991103  0  0  -0.691643  0  2.237218  0  0  -0.719063  0  2.226631  0  -1.232589  0  -0.421817  -0.672332  0  2.243911  0
O  O109  1  0.44732126  0.35868990  0.52765268  1  0  -0.7573  0  1.991045  0  0  -0.691688  0  2.2372  0  0  -0.719108  0  2.226615  0  -1.23259  0  -0.421858  -0.672376  0  2.243893  0
O  O110  1  0.83798147  0.82862672  0.22767728  1  0  -0.686647  0  2.08565  0  0  -0.610689  0  2.36246  0  0  -0.637713  0  2.34384  0  -1.211712  0  -0.325667  -0.591813  0  2.374847  0
O  O111  1  0.16201882  0.17137292  0.77232219  1  0  -0.686746  0  2.085698  0  0  -0.610759  0  2.362495  0  0  -0.637782  0  2.343872  0  -1.21169  0  -0.325692  -0.591884  0  2.374883  0
O  O112  1  0.91757050  0.03184673  0.23287233  1  0  -0.606226  0  2.052441  0  0  -0.532542  0  2.311364  0  0  -0.561891  0  2.300512  0  -1.154016  0  -0.299859  -0.512148  0  2.318033  0
O  O113  1  0.08242804  0.96815199  0.76712762  1  0  -0.60626  0  2.052376  0  0  -0.532587  0  2.31132  0  0  -0.561949  0  2.300493  0  -1.154027  0  -0.299867  -0.512189  0  2.317977  0
