# generated using pymatgen
data_ZnH12C11N3O5
_symmetry_space_group_name_H-M   'P 1'
_cell_length_a   9.64291317
_cell_length_b   10.93975207
_cell_length_c   10.94691168
_cell_angle_alpha   90.05737020
_cell_angle_beta   90.26035818
_cell_angle_gamma   90.15931050
_symmetry_Int_Tables_number   1
_chemical_formula_structural   ZnH12C11N3O5
_chemical_formula_sum   'Zn2 H24 C22 N6 O10'
_cell_volume   1154.78454901
_cell_formula_units_Z   2
loop_
 _symmetry_equiv_pos_site_id
 _symmetry_equiv_pos_as_xyz
  1  'x, y, z'
loop_
 _atom_site_type_symbol
 _atom_site_label
 _atom_site_symmetry_multiplicity
 _atom_site_fract_x
 _atom_site_fract_y
 _atom_site_fract_z
 _atom_site_occupancy
 _atom_site_pbe_bader_charge
 _atom_site_pbe_bader_spin_density
 _atom_site_pbe_cm5_charge
 _atom_site_pbe_ddec_charge
 _atom_site_pbe_ddec_spin_density
 _atom_site_pbe_ddec_sum_bond_order
 _atom_site_pbe_magmom
Zn  Zn0  1  0.65184387  0.49532468  0.49466332  1  1.310355  0  0.684331  0.860665  0  2.343563  0
Zn  Zn1  1  0.35367858  0.49937096  0.49887015  1  1.305386  0  0.682804  0.84883  0  2.338619  0
H  H2  1  0.71979123  0.50241742  0.11479217  1  0.142662  0  0.11632  0.135111  0  1.022153  0
H  H3  1  0.17845154  0.58371283  0.11308660  1  0.04459  0  0.093781  0.103415  0  0.986056  0
H  H4  1  0.17964746  0.41960145  0.11157477  1  0.045836  0  0.09475  0.105709  0  0.986804  0
H  H5  1  0.18057748  0.42026735  0.88550090  1  0.034994  0  0.093925  0.10487  0  0.989018  0
H  H6  1  0.17901464  0.58428894  0.88515349  1  0.026534  0  0.092905  0.103338  0  0.987089  0
H  H7  1  0.12715787  0.33301815  0.60142200  1  0.067515  0  0.112724  0.098604  0  0.98377  0
H  H8  1  0.12695636  0.46955088  0.68816319  1  0.104378  0  0.111409  0.096775  0  1.011827  0
H  H9  1  0.88486209  0.47116825  0.68827274  1  0.063015  0  0.114156  0.10028  0  0.99687  0
H  H10  1  0.87936549  0.33361883  0.60287713  1  0.074886  0  0.115731  0.105954  0  0.962467  0
H  H11  1  0.88228632  0.66509365  0.58479075  1  0.031765  0  0.116624  0.104468  0  0.959308  0
H  H12  1  0.88278700  0.66986779  0.42259919  1  0.063517  0  0.117344  0.104523  0  0.962415  0
H  H13  1  0.12676055  0.66457422  0.58578669  1  0.110417  0  0.115305  0.101291  0  0.972465  0
H  H14  1  0.12692122  0.67052480  0.42481693  1  0.060862  0  0.114724  0.100539  0  0.976586  0
H  H15  1  0.12653248  0.34084304  0.38444981  1  0.083565  0  0.11337  0.098778  0  0.97802  0
H  H16  1  0.12686967  0.48299777  0.30788033  1  0.092006  0  0.110439  0.095622  0  1.014538  0
H  H17  1  0.88076440  0.48378670  0.30687993  1  0.077954  0  0.11356  0.104272  0  0.976269  0
H  H18  1  0.87949139  0.34103130  0.38249648  1  0.085374  0  0.115768  0.105312  0  0.959642  0
H  H19  1  0.72058222  0.11593390  0.49871689  1  0.120452  0  0.116058  0.13485  0  1.020808  0
H  H20  1  0.17965726  0.11377937  0.41897116  1  0.03992  0  0.092574  0.101086  0  0.99297  0
H  H21  1  0.18013114  0.11398175  0.58284554  1  0.040244  0  0.092352  0.100792  0  0.993708  0
H  H22  1  0.18077664  0.88641816  0.58267107  1  0.034248  0  0.093245  0.103491  0  0.989113  0
H  H23  1  0.18058317  0.88648616  0.41897019  1  0.046221  0  0.093268  0.102962  0  0.990442  0
H  H24  1  0.71843797  0.50441813  0.78977844  1  0.647137  0  0.29774  0.341351  0  1.017674  0
H  H25  1  0.72111161  0.79089338  0.49921018  1  0.654528  0  0.298548  0.341101  0  1.021219  0
C  C26  1  0.49765590  0.50374210  0.73991657  1  1.944637  0  0.303308  0.684075  0  4.205106  0
C  C27  1  0.50133396  0.50303873  0.26067425  1  2.064739  0  0.297053  0.674018  0  4.230918  0
C  C28  1  0.50202176  0.26154087  0.50086316  1  2.02788  0  0.29692  0.673602  0  4.230375  0
C  C29  1  0.49932460  0.74059483  0.50103359  1  1.951184  0  0.302902  0.684049  0  4.203212  0
C  C30  1  0.38119575  0.50340328  0.06191980  1  0.501629  0  0.079487  0.087763  0  3.967732  0
C  C31  1  0.62584977  0.50390665  0.94027013  1  0.800832  0  0.163054  0.339983  0  4.132524  0
C  C32  1  0.38176574  0.50395538  0.93912243  1  0.304258  0  0.070758  0.086436  0  3.949483  0
C  C33  1  0.62325682  0.50270761  0.06394626  1  0.419404  0  -0.044054  -0.248578  0  3.986082  0
C  C34  1  0.22541265  0.50234959  0.07142025  1  -0.055197  0  -0.147994  -0.202823  0  3.922059  0
C  C35  1  0.22607438  0.50285100  0.92679144  1  0.068829  0  -0.148918  -0.203686  0  3.927266  0
C  C36  1  0.08427634  0.42565672  0.60625561  1  0.197789  0  -0.068944  -0.093111  0  3.817013  0
C  C37  1  0.92380412  0.42599826  0.60615845  1  0.249849  0  -0.066572  -0.086353  0  3.807044  0
C  C38  1  0.92401817  0.62148697  0.50253168  1  0.307528  0  -0.066808  -0.087114  0  3.815903  0
C  C39  1  0.08400707  0.62147362  0.50333972  1  0.194757  0  -0.067638  -0.091467  0  3.828407  0
C  C40  1  0.08371015  0.43367691  0.38600045  1  0.220291  0  -0.069398  -0.095197  0  3.819411  0
C  C41  1  0.92309399  0.43375691  0.38528627  1  0.22606  0  -0.066975  -0.08816  0  3.80576  0
C  C42  1  0.38207671  0.06292704  0.50120028  1  0.430428  0  0.079285  0.088384  0  3.967254  0
C  C43  1  0.62700790  0.94118026  0.49984968  1  0.824271  0  0.163406  0.340663  0  4.129753  0
C  C44  1  0.38280507  0.94002452  0.50132728  1  0.311718  0  0.070109  0.08494  0  3.947071  0
C  C45  1  0.62422669  0.06492529  0.49948103  1  0.418719  0  -0.045227  -0.249451  0  3.987052  0
C  C46  1  0.22634340  0.07276385  0.50100423  1  0.062781  0  -0.148111  -0.201315  0  3.924612  0
C  C47  1  0.22702779  0.92798403  0.50103399  1  -0.032474  0  -0.147978  -0.199954  0  3.920242  0
N  N48  1  0.49968224  0.50264887  0.13449992  1  -1.324531  0  -0.248177  -0.105258  0  3.771416  0
N  N49  1  0.50153529  0.50404931  0.86627812  1  -1.1847  0  -0.2463  -0.225739  0  3.663553  0
N  N50  1  0.86995114  0.49400316  0.49806363  1  -1.032234  0  -0.338987  -0.113496  0  3.454306  0
N  N51  1  0.13692723  0.49409817  0.49867946  1  -1.018182  0  -0.341645  -0.103231  0  3.460982  0
N  N52  1  0.50051179  0.13542499  0.50036758  1  -1.277197  0  -0.248077  -0.104957  0  3.77319  0
N  N53  1  0.50279418  0.86713462  0.50073978  1  -1.191073  0  -0.245665  -0.224065  0  3.658142  0
O  O54  1  0.62192955  0.31264426  0.50005496  1  -1.177745  0  -0.337364  -0.603803  0  2.345793  0
O  O55  1  0.38394753  0.31497040  0.50227819  1  -1.184382  0  -0.334326  -0.601354  0  2.332281  0
O  O56  1  0.61800331  0.68460695  0.49965403  1  -1.179147  0  -0.328262  -0.6069  0  2.404479  0
O  O57  1  0.38176487  0.68866586  0.50277682  1  -1.172609  0  -0.316418  -0.571879  0  2.336107  0
O  O58  1  0.61619813  0.50250349  0.68373084  1  -1.177442  0  -0.327943  -0.603078  0  2.389142  0
O  O59  1  0.38341980  0.50463783  0.31402369  1  -1.185997  0  -0.333728  -0.599464  0  2.333015  0
O  O60  1  0.37985763  0.50469807  0.68808058  1  -1.184478  0  -0.317318  -0.568887  0  2.323629  0
O  O61  1  0.62123539  0.50178208  0.31175529  1  -1.192169  0  -0.336067  -0.601885  0  2.350186  0
O  O62  1  0.74710719  0.50546817  0.87966574  1  -1.17979  0  -0.376107  -0.483428  0  2.279202  0
O  O63  1  0.74860421  0.88088800  0.49953754  1  -1.186598  0  -0.375035  -0.48327  0  2.282739  0
