# generated using pymatgen
data_CoPH7C8N3ClO3
_symmetry_space_group_name_H-M   'P 1'
_cell_length_a   7.52246715
_cell_length_b   7.60940111
_cell_length_c   10.45205044
_cell_angle_alpha   95.52030878
_cell_angle_beta   108.70958264
_cell_angle_gamma   84.16413665
_symmetry_Int_Tables_number   1
_chemical_formula_structural   CoPH7C8N3ClO3
_chemical_formula_sum   'Co2 P2 H14 C16 N6 Cl2 O6'
_cell_volume   562.45314125
_cell_formula_units_Z   2
loop_
 _symmetry_equiv_pos_site_id
 _symmetry_equiv_pos_as_xyz
  1  'x, y, z'
loop_
 _atom_site_type_symbol
 _atom_site_label
 _atom_site_symmetry_multiplicity
 _atom_site_fract_x
 _atom_site_fract_y
 _atom_site_fract_z
 _atom_site_occupancy
 _atom_site_hse06_10hf_ddec_charge
 _atom_site_hse06_10hf_ddec_spin_density
 _atom_site_hse06_10hf_ddec_sum_bond_order
 _atom_site_hse06_10hf_magmom
 _atom_site_hse06_ddec_charge
 _atom_site_hse06_ddec_spin_density
 _atom_site_hse06_ddec_sum_bond_order
 _atom_site_hse06_magmom
 _atom_site_pbe_cm5_charge
 _atom_site_pbe_ddec_charge
 _atom_site_pbe_ddec_spin_density
 _atom_site_pbe_ddec_sum_bond_order
 _atom_site_pbe_magmom
Co  Co0  1  0.00000359  0.49999962  0.49999949  1  0.751678  -0.991422  2.904066  -0.917  0.836806  -1.020832  2.817893  -0.935  0.619062  0.714647  -0.899537  2.951119  -0.825
Co  Co1  1  0.49999940  0.49999043  0.49999349  1  0.901818  2.838949  2.46589  2.624  0.981656  2.903127  2.390037  2.706  0.583517  0.802798  2.727683  2.551095  2.502
P  P2  1  0.75957531  0.84071293  0.58142791  1  1.315082  0.002195  5.286957  0.001  1.368911  0.001383  5.249146  0.0  0.370349  1.276919  0.00312  5.312385  0.002
P  P3  1  0.24041919  0.15927684  0.41857136  1  1.315138  0.002195  5.286837  0.001  1.368964  0.001382  5.249034  0.0  0.370376  1.276976  0.00312  5.312261  0.002
H  H4  1  0.62248440  0.10965904  0.52041640  1  0.4089  -0.000213  0.929995  0.0  0.420562  -0.000211  0.913413  0.0  0.306176  0.401047  -0.000189  0.94121  0.0
H  H5  1  0.37751572  0.89033013  0.47958891  1  0.408959  -0.000213  0.929902  0.0  0.420623  -0.000211  0.913319  0.0  0.306189  0.401104  -0.000189  0.941126  0.0
H  H6  1  0.13738021  0.81739570  0.77229088  1  0.123174  0.000447  1.000823  0.0  0.12705  0.000353  0.997907  0.0  0.104791  0.11907  0.000537  1.004588  0.0
H  H7  1  0.42816060  0.18855268  0.21379709  1  0.11574  -0.00038  1.016173  0.0  0.119815  -0.00033  1.013175  0.0  0.099369  0.112607  -0.000315  1.017758  0.0
H  H8  1  0.86261938  0.18266881  0.22771960  1  0.12337  0.000447  1.00075  0.0  0.127251  0.000353  0.997825  0.0  0.104835  0.119268  0.000537  1.00452  0.0
H  H9  1  0.57184007  0.81136195  0.78618686  1  0.115912  -0.00038  1.016061  0.0  0.119996  -0.00033  1.013064  0.0  0.099451  0.112774  -0.000315  1.017644  0.0
H  H10  1  0.26356080  0.75615183  0.01320740  1  0.11417  6.2e-05  1.003168  0.0  0.116959  5.4e-05  1.001952  0.0  0.105676  0.111644  5e-05  1.004854  0.0
H  H11  1  0.30424508  0.25248640  0.97311851  1  0.114188  3e-05  1.004608  0.0  0.117135  2.6e-05  1.003095  0.0  0.105469  0.111793  3.2e-05  1.00619  0.0
H  H12  1  0.73644130  0.24395301  0.98681614  1  0.114264  6.2e-05  1.003434  0.0  0.117055  5.4e-05  1.002216  0.0  0.105733  0.11177  5e-05  1.005076  0.0
H  H13  1  0.69575266  0.74744397  0.02687200  1  0.114194  3e-05  1.004459  0.0  0.117157  2.6e-05  1.002938  0.0  0.10549  0.111799  3.2e-05  1.006045  0.0
H  H14  1  0.80782161  0.66691352  0.22799823  1  0.122137  0.000716  1.005663  0.0  0.126698  0.000523  0.99828  0.0  0.139716  0.117219  0.000845  1.013006  0.0
H  H15  1  0.63438818  0.35116193  0.79299427  1  0.114699  -0.000478  1.007956  0.0  0.118639  -0.000364  1.001977  0.0  0.137749  0.110993  -0.000618  1.013285  0.0
H  H16  1  0.19218647  0.33314211  0.77202199  1  0.122071  0.000716  1.005772  0.0  0.126639  0.000524  0.99839  0.0  0.139677  0.117152  0.000845  1.013113  0.0
H  H17  1  0.36560933  0.64880332  0.20698805  1  0.114663  -0.000478  1.008014  0.0  0.11861  -0.000364  1.002032  0.0  0.137754  0.110958  -0.000618  1.013341  0.0
C  C18  1  0.84591885  0.82254297  0.76326767  1  -0.209532  1.2e-05  3.995781  0.0  -0.219791  0.000173  4.017581  0.0  -0.028213  -0.203091  -0.000126  3.982115  0.0
C  C19  1  0.15407847  0.17744525  0.23673307  1  -0.209641  1.2e-05  3.995639  0.0  -0.2199  0.000172  4.017433  0.0  -0.028246  -0.203198  -0.000126  3.981976  0.0
C  C20  1  0.04058005  0.80833860  0.82947168  1  -0.038074  0.000567  3.989465  0.0  -0.035737  0.00043  4.008521  0.0  -0.076372  -0.040682  0.000898  3.978997  0.001
C  C21  1  0.27662914  0.19453552  0.16277746  1  -0.050687  -0.000628  4.011922  0.0  -0.04927  -0.000478  4.032294  0.0  -0.08284  -0.051425  -0.000609  3.99873  0.0
C  C22  1  0.95941545  0.19170761  0.17053801  1  -0.03837  0.000567  3.989393  0.0  -0.036039  0.000431  4.008456  0.0  -0.076462  -0.040986  0.000899  3.97895  0.001
C  C23  1  0.72336977  0.80542753  0.83722125  1  -0.051088  -0.000629  4.012147  0.0  -0.049685  -0.000479  4.032538  0.0  -0.082995  -0.051817  -0.000609  3.998947  0.0
C  C24  1  0.11181230  0.77063339  0.96505820  1  -0.179886  4.6e-05  4.000506  0.0  -0.185894  9.3e-05  4.022421  0.0  -0.095152  -0.175657  -0.000197  3.985945  0.0
C  C25  1  0.20658490  0.23320968  0.02725244  1  -0.183847  0.000153  4.002234  0.0  -0.189895  9.2e-05  4.024  0.0  -0.097399  -0.180212  0.000159  3.98839  0.0
C  C26  1  0.88818596  0.22942079  0.03494810  1  -0.179856  4.6e-05  4.000633  0.0  -0.185863  9.3e-05  4.022549  0.0  -0.095142  -0.175657  -0.000197  3.98608  0.0
C  C27  1  0.79341534  0.76676402  0.97274376  1  -0.183587  0.000153  4.002117  0.0  -0.189653  9.2e-05  4.023906  0.0  -0.097305  -0.179954  0.000159  3.988269  0.0
C  C28  1  0.98813972  0.74574654  0.03602391  1  0.178053  0.000142  4.032152  0.0  0.1847  0.000131  4.055998  0.0  0.095004  0.173798  0.000241  4.015472  0.0
C  C29  1  0.01186160  0.25427173  0.96398159  1  0.178222  0.000142  4.03187  0.0  0.184879  0.000131  4.055712  0.0  0.09506  0.173947  0.000241  4.015194  0.0
C  C30  1  0.95885701  0.64986244  0.25012400  1  0.127029  0.005649  3.814549  0.007  0.147168  0.004147  3.818428  0.005  0.172135  0.112997  0.006137  3.815923  0.007
C  C31  1  0.75591605  0.36051483  0.76076752  1  0.127339  -0.002742  3.874391  -0.003  0.144638  -0.001209  3.88078  -0.001  0.168985  0.112081  -0.005888  3.872725  -0.007
C  C32  1  0.04114714  0.35015442  0.74988011  1  0.127043  0.005648  3.814425  0.007  0.147176  0.004146  3.818309  0.005  0.172102  0.112993  0.006135  3.815787  0.007
C  C33  1  0.24408272  0.63946990  0.23922174  1  0.127312  -0.002741  3.874433  -0.003  0.14459  -0.001208  3.880826  -0.001  0.168834  0.112073  -0.005888  3.872777  -0.007
N  N34  1  0.07390322  0.57925369  0.35968005  1  -0.108606  0.003441  3.611885  0.004  -0.131914  0.002428  3.626293  0.004  -0.243486  -0.10042  0.003498  3.607838  0.004
N  N35  1  0.74574728  0.42606908  0.64638941  1  -0.192697  0.023693  3.540392  0.037  -0.210281  0.020658  3.552879  0.031  -0.234  -0.176664  0.023885  3.535937  0.039
N  N36  1  0.92610249  0.42074347  0.64031872  1  -0.10856  0.003441  3.611703  0.004  -0.131861  0.00243  3.626111  0.004  -0.243509  -0.100377  0.003499  3.607659  0.004
N  N37  1  0.25425434  0.57391151  0.35360011  1  -0.192602  0.023694  3.540311  0.037  -0.210178  0.02066  3.552796  0.031  -0.233941  -0.176569  0.023886  3.535854  0.039
N  N38  1  0.06055238  0.68861363  0.17009794  1  -0.024222  0.000904  3.772594  0.001  -0.040651  0.000766  3.79174  0.001  -0.208067  -0.013028  0.000627  3.76065  0.001
N  N39  1  0.93945040  0.31139803  0.82990536  1  -0.024292  0.000904  3.772396  0.001  -0.040749  0.000766  3.791573  0.001  -0.208076  -0.01304  0.000627  3.760381  0.001
Cl  Cl40  1  0.66687493  0.44289290  0.33494325  1  -0.549763  0.010679  1.314873  0.016  -0.586187  0.005126  1.288675  0.008  -0.252561  -0.503116  0.018593  1.328525  0.027
Cl  Cl41  1  0.33312240  0.55709578  0.66504796  1  -0.549694  0.010669  1.314833  0.016  -0.586116  0.005119  1.288635  0.008  -0.252524  -0.503051  0.018581  1.328484  0.027
O  O42  1  0.90609113  0.74450746  0.52348788  1  -0.719494  0.002307  2.435627  0.006  -0.761245  0.002143  2.417206  0.006  -0.351994  -0.689559  0.00176  2.444976  0.005
O  O43  1  0.43962553  0.22491736  0.47221272  1  -0.783542  0.02707  2.3921  0.04  -0.819968  0.021394  2.373361  0.03  -0.359575  -0.755401  0.029899  2.408382  0.044
O  O44  1  0.09390752  0.25549151  0.47650845  1  -0.71952  0.002306  2.435668  0.006  -0.761271  0.002142  2.417252  0.006  -0.352012  -0.689586  0.001759  2.445015  0.005
O  O45  1  0.56037321  0.77506973  0.52778250  1  -0.783509  0.027065  2.39203  0.04  -0.819943  0.02139  2.373309  0.03  -0.359524  -0.755364  0.029893  2.408307  0.044
O  O46  1  0.75221506  0.04256198  0.55883128  1  -0.646999  0.002573  2.241446  0.005  -0.670747  0.001528  2.217624  0.003  -0.377055  -0.62975  0.003596  2.257421  0.006
O  O47  1  0.24778081  0.95742996  0.44117618  1  -0.647087  0.002574  2.24122  0.005  -0.670837  0.001529  2.217401  0.003  -0.377049  -0.629822  0.003597  2.257166  0.006
