# generated using pymatgen
data_Zn4H11C28S2Br3O13
_symmetry_space_group_name_H-M   'P 1'
_cell_length_a   18.56005211
_cell_length_b   19.70048969
_cell_length_c   32.78302446
_cell_angle_alpha   86.05544725
_cell_angle_beta   73.62112499
_cell_angle_gamma   62.00406704
_symmetry_Int_Tables_number   1
_chemical_formula_structural   Zn4H11C28S2Br3O13
_chemical_formula_sum   'Zn16 H44 C112 S8 Br12 O52'
_cell_volume   10126.00060270
_cell_formula_units_Z   4
loop_
 _symmetry_equiv_pos_site_id
 _symmetry_equiv_pos_as_xyz
  1  'x, y, z'
loop_
 _atom_site_type_symbol
 _atom_site_label
 _atom_site_symmetry_multiplicity
 _atom_site_fract_x
 _atom_site_fract_y
 _atom_site_fract_z
 _atom_site_occupancy
 _atom_site_pbe_bader_charge
 _atom_site_pbe_bader_spin_density
 _atom_site_pbe_cm5_charge
 _atom_site_pbe_ddec_charge
 _atom_site_pbe_ddec_spin_density
 _atom_site_pbe_ddec_sum_bond_order
 _atom_site_pbe_magmom
Zn  Zn0  1  0.87280806  0.55391195  0.51843237  1  1.301113  0  0.671886  0.965043  0  2.336864  0
Zn  Zn1  1  0.03785177  0.48524845  0.43893605  1  1.321653  0  0.674197  0.964479  0  2.426348  0
Zn  Zn2  1  0.04348309  0.39837084  0.52397427  1  1.318882  0  0.672399  0.969113  0  2.357876  0
Zn  Zn3  1  0.04543656  0.56163551  0.51785315  1  1.321541  0  0.672902  0.969574  0  2.355684  0
Zn  Zn4  1  0.62576293  0.19103539  0.73275201  1  1.316206  0  0.670941  0.959665  0  2.359096  0
Zn  Zn5  1  0.46448887  0.34937992  0.72501935  1  1.314919  0  0.670918  0.957768  0  2.388814  0
Zn  Zn6  1  0.45642432  0.26549229  0.81266772  1  1.317732  0  0.672235  0.969295  0  2.351495  0
Zn  Zn7  1  0.45365585  0.19271283  0.72897104  1  1.319904  0  0.671917  0.962726  0  2.388835  0
Zn  Zn8  1  0.46220520  0.76426303  0.31284444  1  1.318762  0  0.669442  0.952797  0  2.383626  0
Zn  Zn9  1  0.45268813  0.69207857  0.23208528  1  1.32128  0  0.673693  0.964232  0  2.404515  0
Zn  Zn10  1  0.62582499  0.69389016  0.22934674  1  1.315543  0  0.672263  0.967801  0  2.343522  0
Zn  Zn11  1  0.45701980  0.85118306  0.22582529  1  1.31913  0  0.672935  0.96686  0  2.370697  0
Zn  Zn12  1  0.03705251  0.89934207  0.02434099  1  1.313923  0  0.672073  0.95834  0  2.378814  0
Zn  Zn13  1  0.04947545  0.05751263  0.01892487  1  1.314077  0  0.670342  0.954662  0  2.379317  0
Zn  Zn14  1  0.87592748  0.05797773  0.01945631  1  1.310917  0  0.672553  0.961559  0  2.387819  0
Zn  Zn15  1  0.03735298  0.98595897  0.93740105  1  1.312343  0  0.671778  0.961484  0  2.3734  0
H  H16  1  0.80463797  0.96447413  0.65517443  1  0.111563  0  0.121284  0.146466  0  0.97041  0
H  H17  1  0.31265806  0.97538443  0.40139533  1  0.137518  0  0.12032  0.145639  0  0.971842  0
H  H18  1  0.81203160  0.24167062  0.65370607  1  0.121026  0  0.105776  0.124789  0  1.004272  0
H  H19  1  0.54528397  0.48450078  0.62035018  1  0.072888  0  0.099563  0.110279  0  0.977428  0
H  H20  1  0.55126696  0.52461417  0.66560764  1  0.048291  0  0.098653  0.109635  0  0.982563  0
H  H21  1  0.65160181  0.56833049  0.61716626  1  0.063271  0  0.09834  0.110738  0  0.983237  0
H  H22  1  0.64590871  0.52792355  0.57195081  1  0.06544  0  0.098865  0.110564  0  0.981157  0
H  H23  1  0.29376431  0.60324443  0.29617939  1  0.147127  0  0.106778  0.126674  0  1.004005  0
H  H24  1  0.35005640  0.67313923  0.43518038  1  0.054265  0  0.097655  0.107034  0  0.983445  0
H  H25  1  0.25960299  0.76166019  0.43260861  1  0.031232  0  0.098939  0.109087  0  0.97996  0
H  H26  1  0.16271168  0.71164823  0.47797371  1  0.033339  0  0.099798  0.112574  0  0.977173  0
H  H27  1  0.25292250  0.62310566  0.48054361  1  0.053477  0  0.096483  0.108095  0  0.987979  0
H  H28  1  0.80953050  0.60197860  0.29503120  1  0.103897  0  0.106482  0.125561  0  1.003591  0
H  H29  1  0.54809177  0.76188681  0.43052574  1  0.034584  0  0.099026  0.109535  0  0.978407  0
H  H30  1  0.54294354  0.67357533  0.43293430  1  0.031576  0  0.098073  0.107267  0  0.983502  0
H  H31  1  0.64321353  0.62342465  0.47903769  1  0.05224  0  0.098017  0.108545  0  0.981644  0
H  H32  1  0.64856458  0.71161701  0.47653845  1  0.06159  0  0.097472  0.108498  0  0.984746  0
H  H33  1  0.30847315  0.45662018  0.64593696  1  0.129641  0  0.105729  0.124492  0  1.006146  0
H  H34  1  0.32912469  0.17916141  0.62950652  1  0.047295  0  0.099461  0.110664  0  0.977396  0
H  H35  1  0.23850991  0.22035918  0.67488833  1  0.082027  0  0.097887  0.109509  0  0.985702  0
H  H36  1  0.14290429  0.27340970  0.62635078  1  0.030857  0  0.097532  0.110267  0  0.98592  0
H  H37  1  0.23365370  0.23229641  0.58109060  1  0.047986  0  0.100398  0.113087  0  0.975928  0
H  H38  1  0.18802423  0.65950339  0.96286962  1  0.115722  0  0.122073  0.14733  0  0.969167  0
H  H39  1  0.69004207  0.14738852  0.95551445  1  0.129424  0  0.107803  0.127741  0  1.000245  0
H  H40  1  0.95450575  0.07849155  0.81677351  1  0.035266  0  0.10045  0.111726  0  0.977584  0
H  H41  1  0.95009868  0.98984672  0.81906701  1  0.064926  0  0.100089  0.110758  0  0.977314  0
H  H42  1  0.84873525  0.04005135  0.77358152  1  0.062077  0  0.100153  0.111954  0  0.977669  0
H  H43  1  0.85310771  0.12867046  0.77135606  1  0.069228  0  0.101162  0.113806  0  0.975667  0
H  H44  1  0.19219015  0.05233143  0.84517571  1  0.13237  0  0.106594  0.125925  0  1.00343  0
H  H45  1  0.17093988  0.21639837  0.97555926  1  0.036268  0  0.099119  0.109466  0  0.97862  0
H  H46  1  0.26175669  0.12790808  0.97769506  1  0.029323  0  0.099595  0.109797  0  0.981129  0
H  H47  1  0.35709418  0.17422375  0.92685847  1  0.065705  0  0.097575  0.11022  0  0.986711  0
H  H48  1  0.26627143  0.26255559  0.92474810  1  0.03031  0  0.099955  0.112301  0  0.976836  0
H  H49  1  0.92701984  0.28338892  0.09435056  1  0.085424  0  0.120098  0.144684  0  0.97363  0
H  H50  1  0.19295401  0.79418247  0.10285972  1  0.108426  0  0.106071  0.126003  0  1.003725  0
H  H51  1  0.26119548  0.03157800  0.07471797  1  0.06826  0  0.098457  0.108453  0  0.981519  0
H  H52  1  0.17030351  0.07203649  0.12005428  1  0.066974  0  0.099395  0.109927  0  0.978327  0
H  H53  1  0.26562131  0.01926039  0.16853292  1  0.064947  0  0.100503  0.113879  0  0.97572  0
H  H54  1  0.35654228  0.97883645  0.12330195  1  0.073485  0  0.097803  0.110356  0  0.985409  0
H  H55  1  0.68980787  0.00661146  0.09615586  1  0.138422  0  0.107479  0.127523  0  1.00105  0
H  H56  1  0.95073063  0.72314113  0.08508178  1  0.063068  0  0.099254  0.109196  0  0.979851  0
H  H57  1  0.95457594  0.76419204  0.13069236  1  0.062812  0  0.100993  0.112614  0  0.976864  0
H  H58  1  0.85356019  0.72064629  0.17825461  1  0.072509  0  0.102024  0.115161  0  0.973763  0
H  H59  1  0.84959752  0.67954223  0.13274677  1  0.054872  0  0.10025  0.111715  0  0.97777  0
C  C60  1  0.86252255  0.56779246  0.43037539  1  1.539916  0  0.224357  0.613969  0  4.173937  0
C  C61  1  0.12411432  0.31586305  0.43883403  1  1.612301  0  0.214774  0.61815  0  4.215073  0
C  C62  1  0.86550453  0.42718400  0.56856516  1  1.591004  0  0.226594  0.619126  0  4.167818  0
C  C63  1  0.13904363  0.43418999  0.56818097  1  1.577803  0  0.225723  0.616153  0  4.169164  0
C  C64  1  0.87281204  0.68382164  0.56029775  1  1.610143  0  0.21495  0.621214  0  4.210063  0
C  C65  1  0.13761772  0.56935292  0.43079046  1  1.545754  0  0.225929  0.616424  0  4.170522  0
C  C66  1  0.64000818  0.31691430  0.68126204  1  1.565239  0  0.230594  0.612758  0  4.167647  0
C  C67  1  0.37685620  0.43444255  0.81045140  1  1.576656  0  0.214222  0.619617  0  4.210206  0
C  C68  1  0.63430445  0.18196189  0.82070308  1  1.551482  0  0.227487  0.62081  0  4.164842  0
C  C69  1  0.36101005  0.18064474  0.81744165  1  1.543491  0  0.22724  0.620592  0  4.166467  0
C  C70  1  0.62489949  0.06544937  0.68865235  1  1.619413  0  0.217998  0.609595  0  4.217765  0
C  C71  1  0.36318487  0.31904948  0.68025461  1  1.556593  0  0.228877  0.609486  0  4.169113  0
C  C72  1  0.36285288  0.68142565  0.32035331  1  1.545342  0  0.228538  0.609125  0  4.172306  0
C  C73  1  0.62288955  0.56629474  0.18879729  1  1.534697  0  0.21515  0.61982  0  4.211972  0
C  C74  1  0.63784364  0.68175270  0.31862356  1  1.556738  0  0.229364  0.612031  0  4.172218  0
C  C75  1  0.63480096  0.82085983  0.18020617  1  1.548445  0  0.22709  0.619299  0  4.167468  0
C  C76  1  0.37584961  0.93374499  0.31163664  1  1.557807  0  0.218317  0.610184  0  4.219206  0
C  C77  1  0.36084845  0.81727489  0.18121826  1  1.573432  0  0.226486  0.617621  0  4.170446  0
C  C78  1  0.13807864  0.93151438  0.06866199  1  1.572074  0  0.228963  0.610143  0  4.174663  0
C  C79  1  0.87943832  0.18412526  0.06129570  1  1.621517  0  0.218656  0.612884  0  4.213683  0
C  C80  1  0.86160300  0.93126585  0.06898028  1  1.560624  0  0.230062  0.612563  0  4.168203  0
C  C81  1  0.86185936  0.06936782  0.93116753  1  1.548052  0  0.228623  0.608776  0  4.171579  0
C  C82  1  0.12160738  0.81571995  0.93919598  1  1.567915  0  0.217714  0.610116  0  4.217676  0
C  C83  1  0.13814603  0.06901833  0.93107767  1  1.553623  0  0.230007  0.612345  0  4.169488  0
C  C84  1  0.73421811  0.80357622  0.60079759  1  -0.001994  0  -0.024185  0.05967  0  4.005763  0
C  C85  1  0.76113855  0.94660390  0.64912512  1  0.015581  0  -0.087992  -0.132629  0  3.959938  0
C  C86  1  0.82188794  0.75845096  0.58554510  1  -0.151252  0  -0.030408  -0.172635  0  3.950582  0
C  C87  1  0.67362721  0.99046383  0.66374436  1  -0.194459  0  -0.022684  -0.113526  0  3.971909  0
C  C88  1  0.78346776  0.87831402  0.62602279  1  -0.143776  0  -0.020614  0.004196  0  4.067593  0
C  C89  1  0.71207576  0.87191300  0.62380283  1  -0.122882  0  -0.031686  -0.075039  0  4.098789  0
C  C90  1  0.20178825  0.22727748  0.36896498  1  0.041326  0  -0.022681  0.059957  0  4.000847  0
C  C91  1  0.29952264  0.02197682  0.38022737  1  0.022989  0  -0.088986  -0.134055  0  3.964778  0
C  C92  1  0.17347419  0.24204442  0.41306283  1  -0.161582  0  -0.029746  -0.170489  0  3.951369  0
C  C93  1  0.32692441  0.00888741  0.33628815  1  -0.178195  0  -0.023561  -0.115593  0  3.979052  0
C  C94  1  0.25385232  0.10175863  0.39229019  1  -0.139144  0  -0.021175  0.002771  0  4.073082  0
C  C95  1  0.24768963  0.14736834  0.35707485  1  -0.191246  0  -0.03068  -0.072815  0  4.094248  0
C  C96  1  0.69725808  0.34470694  0.65278851  1  0.004591  0  -0.010254  -0.059427  0  3.976745  0
C  C97  1  0.81181420  0.39592101  0.59739534  1  0.075153  0  -0.01488  -0.124367  0  3.924175  0
C  C98  1  0.66739032  0.41668100  0.63617272  1  -0.00798  0  -0.003818  0.061305  0  3.885484  0
C  C99  1  0.84166128  0.32272755  0.61474513  1  -0.112427  0  -0.005567  0.102461  0  3.909299  0
C  C100  1  0.72310369  0.44061674  0.60952100  1  -0.051083  0  -0.000156  0.07562  0  3.875308  0
C  C101  1  0.78612264  0.29832106  0.64133579  1  0.005048  0  -0.091879  -0.15975  0  3.968538  0
C  C102  1  0.58868365  0.49079825  0.63482040  1  -0.023198  0  -0.1511  -0.198905  0  3.881397  0
C  C103  1  0.65155295  0.51812312  0.60455458  1  -0.026863  0  -0.150093  -0.199686  0  3.877165  0
C  C104  1  0.30597279  0.65309719  0.34854926  1  -0.017602  0  -0.009394  -0.056903  0  3.979344  0
C  C105  1  0.19431062  0.59656271  0.40117246  1  0.044031  0  -0.015294  -0.126422  0  3.92932  0
C  C106  1  0.28000351  0.66430564  0.39284587  1  -0.024404  0  -0.004646  0.056854  0  3.890178  0
C  C107  1  0.22102671  0.58556654  0.35587342  1  -0.062709  0  -0.004525  0.104496  0  3.906978  0
C  C108  1  0.22623334  0.63680102  0.41780768  1  -0.004883  0  3.7e-05  0.077798  0  3.877551  0
C  C109  1  0.27498172  0.61292839  0.33072324  1  -0.005177  0  -0.090117  -0.156449  0  3.964063  0
C  C110  1  0.28607498  0.69865660  0.43088643  1  -0.00281  0  -0.150566  -0.19867  0  3.890248  0
C  C111  1  0.22530384  0.66739415  0.45930184  1  0.013047  0  -0.150682  -0.198225  0  3.875  0
C  C112  1  0.69480214  0.65287005  0.34690693  1  0.088584  0  -0.01029  -0.0599  0  3.981618  0
C  C113  1  0.80894479  0.59528848  0.40036238  1  0.009765  0  -0.013751  -0.121478  0  3.923907  0
C  C114  1  0.66472039  0.66408693  0.39121011  1  -0.026087  0  -0.004115  0.059857  0  3.887932  0
C  C115  1  0.83910602  0.58410907  0.35506300  1  -0.120159  0  -0.005093  0.103774  0  3.906343  0
C  C116  1  0.72028346  0.63611693  0.41657065  1  0.025859  0  -0.001182  0.072368  0  3.877725  0
C  C117  1  0.78360826  0.61203892  0.32953210  1  -0.040538  0  -0.091183  -0.15751  0  3.969688  0
C  C118  1  0.58592601  0.69887684  0.42893856  1  0.018332  0  -0.150796  -0.198774  0  3.887355  0
C  C119  1  0.64870137  0.66740859  0.45779354  1  -0.013711  0  -0.150212  -0.195995  0  3.877172  0
C  C120  1  0.30601757  0.34826830  0.65209931  1  -0.031628  0  -0.00965  -0.057127  0  3.974335  0
C  C121  1  0.19595393  0.40842619  0.59660640  1  -0.001477  0  -0.013801  -0.121961  0  3.923397  0
C  C122  1  0.27233922  0.30602940  0.63937833  1  0.044372  0  -0.003785  0.059372  0  3.882662  0
C  C123  1  0.23057029  0.45108908  0.60986977  1  -0.091535  0  -0.006332  0.102128  0  3.914018  0
C  C124  1  0.21949255  0.33559208  0.61263936  1  -0.027945  0  0.00159  0.07724  0  3.870531  0
C  C125  1  0.28353721  0.42179995  0.63662114  1  0.020761  0  -0.091929  -0.159296  0  3.969872  0
C  C126  1  0.26816911  0.23083100  0.64271180  1  -0.022323  0  -0.150766  -0.198977  0  3.879626  0
C  C127  1  0.20834787  0.26404743  0.61240363  1  0.020914  0  -0.149798  -0.197517  0  3.871276  0
C  C128  1  0.29809115  0.58378204  0.82045071  1  -0.035684  0  -0.023567  0.059109  0  4.005651  0
C  C129  1  0.20053814  0.66843838  0.92903044  1  0.080304  0  -0.087217  -0.131008  0  3.957392  0
C  C130  1  0.32732498  0.50998896  0.83469822  1  -0.124366  0  -0.029529  -0.171729  0  3.947911  0
C  C131  1  0.17189524  0.74112647  0.91388077  1  -0.231994  0  -0.02317  -0.115017  0  3.973482  0
C  C132  1  0.24651463  0.61075275  0.89494984  1  -0.195228  0  -0.02063  0.002962  0  4.069231  0
C  C133  1  0.25190287  0.64122537  0.85465020  1  -0.128021  0  -0.030616  -0.072247  0  4.09695  0
C  C134  1  0.80429871  0.09772682  0.90318168  1  0.022869  0  -0.009043  -0.057425  0  3.975822  0
C  C135  1  0.68851854  0.15480023  0.85048804  1  -0.009645  0  -0.014503  -0.126441  0  3.92531  0
C  C136  1  0.83351171  0.08689309  0.85887675  1  -0.059563  0  -0.004253  0.058808  0  3.889738  0
C  C137  1  0.65934190  0.16534516  0.89578361  1  -0.086295  0  -0.005793  0.102718  0  3.911818  0
C  C138  1  0.77721850  0.11466605  0.83387168  1  0.020043  0  0.001141  0.07689  0  3.874033  0
C  C139  1  0.71545797  0.13775424  0.92098237  1  0.043683  0  -0.090677  -0.157647  0  3.964644  0
C  C140  1  0.91182269  0.05285207  0.82090562  1  -0.021187  0  -0.15066  -0.200637  0  3.885115  0
C  C141  1  0.84835104  0.08425381  0.79243599  1  -0.006977  0  -0.148655  -0.197903  0  3.879282  0
C  C142  1  0.19465449  0.09732450  0.90239347  1  -0.007382  0  -0.010278  -0.058009  0  3.977989  0
C  C143  1  0.30411898  0.15099506  0.84455151  1  0.022272  0  -0.014785  -0.124855  0  3.927072  0
C  C144  1  0.22794312  0.13793364  0.91712796  1  0.016352  0  -0.005133  0.056244  0  3.889409  0
C  C145  1  0.26961794  0.10965466  0.82983000  1  -0.097312  0  -0.005962  0.101552  0  3.913878  0
C  C146  1  0.28056472  0.16343045  0.88896987  1  -0.028966  0  0.000709  0.077442  0  3.874496  0
C  C147  1  0.21699192  0.08387762  0.85789619  1  -0.00623  0  -0.090865  -0.158076  0  3.968332  0
C  C148  1  0.23196402  0.17079303  0.95636353  1  0.032278  0  -0.150449  -0.199024  0  3.885789  0
C  C149  1  0.29165621  0.19972659  0.92456507  1  0.006951  0  -0.149041  -0.19676  0  3.872779  0
C  C150  1  0.64278305  0.44697049  0.14889539  1  0.001262  0  -0.023277  0.059416  0  4.003236  0
C  C151  1  0.85946371  0.30210916  0.10059907  1  0.061868  0  -0.088071  -0.132203  0  3.96294  0
C  C152  1  0.67140536  0.49160873  0.16375212  1  -0.127709  0  -0.029824  -0.170195  0  3.948117  0
C  C153  1  0.82907596  0.25897201  0.08625229  1  -0.199718  0  -0.023513  -0.11671  0  3.977044  0
C  C154  1  0.79153931  0.37090807  0.12352820  1  -0.175961  0  -0.021192  0.003321  0  4.07092  0
C  C155  1  0.71106728  0.37824314  0.12600770  1  -0.109538  0  -0.030168  -0.072411  0  4.095359  0
C  C156  1  0.19499279  0.90264474  0.09691039  1  -0.033445  0  -0.010782  -0.059894  0  3.982194  0
C  C157  1  0.30455972  0.84286268  0.15256369  1  0.031924  0  -0.014139  -0.122935  0  3.924244  0
C  C158  1  0.22820266  0.94514882  0.10979781  1  -0.022815  0  -0.003802  0.060146  0  3.887318  0
C  C159  1  0.27050240  0.79983589  0.13910021  1  -0.100842  0  -0.004649  0.104287  0  3.910156  0
C  C160  1  0.28085145  0.91577039  0.13662082  1  0.000129  0  0.000345  0.075113  0  3.871959  0
C  C161  1  0.21769714  0.82907114  0.11227565  1  0.049875  0  -0.091778  -0.15992  0  3.970045  0
C  C162  1  0.23156804  0.02069784  0.10678371  1  -0.050751  0  -0.151011  -0.200311  0  3.887345  0
C  C163  1  0.29127527  0.98765628  0.13715666  1  -0.024197  0  -0.14833  -0.196563  0  3.872415  0
C  C164  1  0.80428260  0.90318323  0.09708887  1  -0.026486  0  -0.010431  -0.060565  0  3.978503  0
C  C165  1  0.68894430  0.85215275  0.15187228  1  0.022684  0  -0.014501  -0.123313  0  3.922602  0
C  C166  1  0.83374690  0.83118379  0.11367613  1  -0.008732  0  -0.004268  0.058546  0  3.89094  0
C  C167  1  0.65951655  0.92561227  0.13477885  1  -0.113135  0  -0.005707  0.100942  0  3.909902  0
C  C168  1  0.77763225  0.80730218  0.13999509  1  -0.016661  0  6.6e-05  0.074472  0  3.876366  0
C  C169  1  0.71542818  0.94982891  0.10839492  1  0.042113  0  -0.089841  -0.155973  0  3.964133  0
C  C170  1  0.91219812  0.75734912  0.11566500  1  -0.022948  0  -0.149766  -0.199574  0  3.887998  0
C  C171  1  0.84890550  0.73004308  0.14548200  1  -0.027272  0  -0.14938  -0.19822  0  3.875794  0
S  S172  1  0.87718764  0.80008788  0.59953645  1  0.289244  0  0.088339  0.137799  0  2.739506  0
S  S173  1  0.61784894  0.94953365  0.64979505  1  0.293527  0  0.086086  0.135664  0  2.786052  0
S  S174  1  0.20318964  0.15783068  0.43982246  1  0.271073  0  0.085368  0.134505  0  2.736314  0
S  S175  1  0.29789844  0.09260282  0.30929231  1  0.289528  0  0.087876  0.138896  0  2.781223  0
S  S176  1  0.29816380  0.51137785  0.89023639  1  0.329605  0  0.088673  0.138273  0  2.732317  0
S  S177  1  0.20051074  0.74026621  0.85850668  1  0.344065  0  0.086433  0.135836  0  2.780553  0
S  S178  1  0.78223083  0.44906455  0.14946664  1  0.281071  0  0.085203  0.132823  0  2.733311  0
S  S179  1  0.71858143  0.30106383  0.10033786  1  0.306411  0  0.090184  0.141916  0  2.779048  0
Br  Br180  1  0.65027568  0.78176411  0.59324804  1  0.00136  0  0.041506  -0.017578  0  1.401508  0
Br  Br181  1  0.18505675  0.29970838  0.32761863  1  0.017614  0  0.046963  -0.007291  0  1.43412  0
Br  Br182  1  0.31404367  0.61029896  0.76363906  1  0.00481  0  0.0445  -0.011275  0  1.399883  0
Br  Br183  1  0.52952389  0.46975357  0.15612640  1  0.015383  0  0.04835  -0.005301  0  1.415707  0
Br  Br184  1  0.95925939  0.24949356  0.60417790  1  -0.049011  0  0.007274  -0.074167  0  1.390075  0
Br  Br185  1  0.18650451  0.53438038  0.32407967  1  -0.04332  0  0.009519  -0.068378  0  1.427684  0
Br  Br186  1  0.95649630  0.53029428  0.32383207  1  -0.04091  0  0.00955  -0.068625  0  1.431654  0
Br  Br187  1  0.20980251  0.55194475  0.59303151  1  -0.051936  0  0.006115  -0.076192  0  1.391291  0
Br  Br188  1  0.54200701  0.21768401  0.92745519  1  -0.049623  0  0.009801  -0.071244  0  1.388387  0
Br  Br189  1  0.28958789  0.08503043  0.77101731  1  -0.042806  0  0.009811  -0.070523  0  1.389895  0
Br  Br190  1  0.29143991  0.69894671  0.15570053  1  -0.042178  0  0.009371  -0.06856  0  1.39952  0
Br  Br191  1  0.54218007  0.99958708  0.14565664  1  -0.043823  0  0.011086  -0.069305  0  1.390552  0
O  O192  1  0.99804614  0.50053145  0.50128797  1  -1.220834  0  -0.571289  -1.028362  0  2.52412  0
O  O193  1  0.82256146  0.58030997  0.47020315  1  -1.150972  0  -0.309265  -0.538432  0  2.31512  0
O  O194  1  0.10055919  0.37661214  0.41874306  1  -1.174199  0  -0.314745  -0.534151  0  2.398523  0
O  O195  1  0.94580242  0.38671158  0.55926071  1  -1.176582  0  -0.31509  -0.547924  0  2.440229  0
O  O196  1  0.94274949  0.53458538  0.41449727  1  -1.144852  0  -0.312625  -0.539355  0  2.453812  0
O  O197  1  0.82470253  0.49355501  0.55553397  1  -1.171811  0  -0.309052  -0.536539  0  2.31919  0
O  O198  1  0.10913702  0.31230319  0.47936908  1  -1.148776  0  -0.320056  -0.548023  0  2.321876  0
O  O199  1  0.11745337  0.38506423  0.55964127  1  -1.160952  0  -0.307344  -0.532454  0  2.325928  0
O  O200  1  0.95358371  0.65810480  0.55026787  1  -1.183215  0  -0.319511  -0.544779  0  2.33289  0
O  O201  1  0.11659190  0.50113863  0.55480253  1  -1.179395  0  -0.315517  -0.548945  0  2.435583  0
O  O202  1  0.83320809  0.65193355  0.55080016  1  -1.165153  0  -0.315588  -0.54255  0  2.372401  0
O  O203  1  0.11466830  0.52834296  0.41490438  1  -1.164276  0  -0.312745  -0.53943  0  2.450083  0
O  O204  1  0.11682860  0.58954825  0.47045072  1  -1.151236  0  -0.308681  -0.536882  0  2.315999  0
O  O205  1  0.50082886  0.24940836  0.75007461  1  -1.232249  0  -0.570921  -1.027652  0  2.527839  0
O  O206  1  0.67475528  0.25073448  0.69541734  1  -1.179301  0  -0.314255  -0.544053  0  2.331743  0
O  O207  1  0.40013530  0.43395970  0.76997150  1  -1.165861  0  -0.315715  -0.540019  0  2.385604  0
O  O208  1  0.55404318  0.21850616  0.83629226  1  -1.16092  0  -0.314638  -0.548839  0  2.435221  0
O  O209  1  0.56030770  0.36263195  0.68895964  1  -1.161022  0  -0.308512  -0.534021  0  2.325906  0
O  O210  1  0.67474238  0.16548953  0.78098353  1  -1.158555  0  -0.310088  -0.537804  0  2.323829  0
O  O211  1  0.39202768  0.37563415  0.83264636  1  -1.167494  0  -0.319099  -0.545772  0  2.323493  0
O  O212  1  0.38193917  0.21906675  0.83743350  1  -1.149682  0  -0.308677  -0.536814  0  2.321608  0
O  O213  1  0.54392738  0.09569634  0.69691786  1  -1.17109  0  -0.317648  -0.542092  0  2.345301  0
O  O214  1  0.38435883  0.16588188  0.77736325  1  -1.158401  0  -0.314311  -0.546087  0  2.444359  0
O  O215  1  0.66697654  0.09335809  0.69961373  1  -1.171592  0  -0.316773  -0.538626  0  2.305415  0
O  O216  1  0.38999620  0.36332617  0.68946281  1  -1.169441  0  -0.313516  -0.541432  0  2.340435  0
O  O217  1  0.38057400  0.25161717  0.69269699  1  -1.162733  0  -0.307517  -0.533673  0  2.325273  0
O  O218  1  0.50083636  0.75059785  0.25032755  1  -1.2392  0  -0.571617  -1.02825  0  2.52945  0
O  O219  1  0.38810446  0.71776068  0.33879616  1  -1.153098  0  -0.30933  -0.537858  0  2.322353  0
O  O220  1  0.54217552  0.59522479  0.20008792  1  -1.13336  0  -0.313906  -0.535647  0  2.393102  0
O  O221  1  0.67294303  0.66855943  0.27849971  1  -1.172669  0  -0.313452  -0.54294  0  2.331505  0
O  O222  1  0.38136741  0.66714227  0.28029705  1  -1.172238  0  -0.311372  -0.536553  0  2.34684  0
O  O223  1  0.55816315  0.71751023  0.33750745  1  -1.156863  0  -0.309196  -0.536826  0  2.329903  0
O  O224  1  0.66665985  0.59544523  0.19704392  1  -1.163696  0  -0.321104  -0.550259  0  2.31804  0
O  O225  1  0.67500641  0.75340639  0.19226308  1  -1.165847  0  -0.309469  -0.53841  0  2.32016  0
O  O226  1  0.39288566  0.93547926  0.27105569  1  -1.144024  0  -0.319214  -0.543894  0  2.337289  0
O  O227  1  0.55455540  0.86226397  0.19005745  1  -1.15088  0  -0.315162  -0.54798  0  2.44255  0
O  O228  1  0.39651295  0.87408810  0.33292185  1  -1.167632  0  -0.317448  -0.539131  0  2.318813  0
O  O229  1  0.38305484  0.75027759  0.19450521  1  -1.174956  0  -0.313753  -0.544483  0  2.444307  0
O  O230  1  0.38243622  0.86614636  0.19015269  1  -1.156583  0  -0.307844  -0.534546  0  2.32555  0
O  O231  1  0.00066161  0.00008044  0.99996844  1  -1.224562  0  -0.571532  -1.029188  0  2.535758  0
O  O232  1  0.11125115  0.88708678  0.05968216  1  -1.174914  0  -0.313777  -0.5412  0  2.341084  0
O  O233  1  0.96029503  0.15524961  0.05138376  1  -1.178625  0  -0.317027  -0.541058  0  2.315414  0
O  O234  1  0.82655581  0.99852219  0.05603186  1  -1.179162  0  -0.312187  -0.538602  0  2.335249  0
O  O235  1  0.12104545  0.99870374  0.05593199  1  -1.165447  0  -0.309008  -0.536107  0  2.328895  0
O  O236  1  0.94138285  0.88517371  0.06025048  1  -1.147657  0  -0.309462  -0.539291  0  2.323956  0
O  O237  1  0.83691222  0.15492789  0.05182227  1  -1.171433  0  -0.319142  -0.543849  0  2.334647  0
O  O238  1  0.82696693  0.08371278  0.97126756  1  -1.164925  0  -0.311623  -0.538038  0  2.34055  0
O  O239  1  0.10197634  0.87576252  0.91800203  1  -1.174435  0  -0.319158  -0.544843  0  2.33375  0
O  O240  1  0.94160388  0.03295989  0.91238490  1  -1.16693  0  -0.309273  -0.537554  0  2.321637  0
O  O241  1  0.10216224  0.81378485  0.97968833  1  -1.147812  0  -0.315339  -0.536932  0  2.313632  0
O  O242  1  0.12124696  0.08360378  0.97102536  1  -1.150556  0  -0.309108  -0.536769  0  2.325488  0
O  O243  1  0.11154168  0.03295609  0.91346536  1  -1.167752  0  -0.313519  -0.542239  0  2.33622  0
