# generated using pymatgen
data_Zr3H25C31O18
_symmetry_space_group_name_H-M   'P 1'
_cell_length_a   14.77879873
_cell_length_b   14.77935343
_cell_length_c   14.75581682
_cell_angle_alpha   60.18000987
_cell_angle_beta   60.00541357
_cell_angle_gamma   59.96595651
_symmetry_Int_Tables_number   1
_chemical_formula_structural   Zr3H25C31O18
_chemical_formula_sum   'Zr6 H50 C62 O36'
_cell_volume   2281.58056579
_cell_formula_units_Z   2
loop_
 _symmetry_equiv_pos_site_id
 _symmetry_equiv_pos_as_xyz
  1  'x, y, z'
loop_
 _atom_site_type_symbol
 _atom_site_label
 _atom_site_symmetry_multiplicity
 _atom_site_fract_x
 _atom_site_fract_y
 _atom_site_fract_z
 _atom_site_occupancy
 _atom_site_pbe_bader_charge
 _atom_site_pbe_bader_spin_density
 _atom_site_pbe_cm5_charge
 _atom_site_pbe_ddec_charge
 _atom_site_pbe_ddec_spin_density
 _atom_site_pbe_ddec_sum_bond_order
 _atom_site_pbe_magmom
Zr  Zr0  1  0.87498408  0.88474957  0.62072840  1  2.632513  0  1.63183  2.36594  0  2.770421  0
Zr  Zr1  1  0.11688983  0.11913047  0.38738072  1  2.63225  0  1.634192  2.368437  0  2.785539  0
Zr  Zr2  1  0.11358402  0.88090212  0.62580352  1  2.634147  0  1.629712  2.372049  0  2.761589  0
Zr  Zr3  1  0.87804110  0.12358356  0.38233957  1  2.633173  0  1.628164  2.371644  0  2.737335  0
Zr  Zr4  1  0.11635195  0.88266040  0.38438593  1  2.636353  0  1.634521  2.366697  0  2.777264  0
Zr  Zr5  1  0.87668401  0.12140518  0.62465654  1  2.637321  0  1.627752  2.369337  0  2.746566  0
H  H6  1  0.08909196  0.71959993  0.59572835  1  0.613088  0  0.330065  0.421364  0  0.862893  0
H  H7  1  0.09370884  0.09265448  0.22167072  1  0.5932  0  0.330285  0.420488  0  0.863001  0
H  H8  1  0.08858885  0.09322946  0.60375709  1  0.6056  0  0.331535  0.423241  0  0.858216  0
H  H9  1  0.71367460  0.10014307  0.59557651  1  0.596458  0  0.331072  0.421954  0  0.857127  0
H  H10  1  0.15820889  0.56082037  0.40700286  1  0.078034  0  0.105518  0.111794  0  1.015831  0
H  H11  1  0.82083082  0.46676863  0.56758013  1  0.097538  0  0.106412  0.112368  0  1.019016  0
H  H12  1  0.58386501  0.14361147  0.91002634  1  0.064654  0  0.104758  0.108797  0  1.029001  0
H  H13  1  0.41594301  0.85273807  0.10545156  1  0.06759  0  0.103463  0.106722  0  1.033084  0
H  H14  1  0.82327094  0.08697004  0.13993805  1  0.096818  0  0.103229  0.105609  0  1.034097  0
H  H15  1  0.14492090  0.87226896  0.90350072  1  0.054941  0  0.102359  0.105454  0  1.026156  0
H  H16  1  0.60309212  0.42491134  0.35183551  1  0.071282  0  0.106519  0.115033  0  1.010492  0
H  H17  1  0.40678007  0.59576818  0.64261198  1  0.093404  0  0.10474  0.111895  0  1.017287  0
H  H18  1  0.96567988  0.57657810  0.74448232  1  0.07306  0  0.096807  0.119594  0  1.059381  0
H  H19  1  0.99687186  0.23034825  0.06916797  1  0.088137  0  0.102324  0.127993  0  1.028323  0
H  H20  1  0.58176905  0.87536115  0.64775328  1  0.045436  0  0.104788  0.109373  0  1.025508  0
H  H21  1  0.41890755  0.12030553  0.35076512  1  0.093985  0  0.104332  0.109342  0  1.0263  0
H  H22  1  0.27188871  0.39874891  0.37207679  1  0.022292  0  0.090305  0.122686  0  1.00158  0
H  H23  1  0.22740779  0.28209018  0.43718025  1  0.079533  0  0.093231  0.135545  0  1.010419  0
H  H24  1  0.21675108  0.37444597  0.30625270  1  0.050448  0  0.099955  0.143779  0  0.982984  0
H  H25  1  0.75720381  0.65632495  0.66499467  1  0.059908  0  0.097011  0.13815  0  0.98838  0
H  H26  1  0.75711205  0.74918953  0.53153811  1  0.085844  0  0.096033  0.142534  0  1.002636  0
H  H27  1  0.70627351  0.63801380  0.59050801  1  0.028234  0  0.092282  0.128283  0  0.996688  0
H  H28  1  0.46006672  0.23886934  0.02717358  1  -0.004973  0  0.089275  0.121465  0  1.004294  0
H  H29  1  0.32261683  0.23378950  0.09172698  1  0.054376  0  0.096701  0.141028  0  0.996177  0
H  H30  1  0.41266875  0.15769971  0.16900376  1  0.062216  0  0.094205  0.133705  0  1.008971  0
H  H31  1  0.54235653  0.75531848  0.99031033  1  0.045689  0  0.088477  0.120218  0  1.005853  0
H  H32  1  0.59035952  0.83561815  0.84827924  1  0.058815  0  0.093925  0.13318  0  1.004854  0
H  H33  1  0.67958193  0.76109981  0.92623267  1  0.05933  0  0.099668  0.148823  0  0.987794  0
H  H34  1  0.77727534  0.19150928  0.90847289  1  0.054028  0  0.094782  0.134821  0  0.990782  0
H  H35  1  0.74968365  0.07106965  0.95134913  1  0.046757  0  0.092287  0.136425  0  1.021724  0
H  H36  1  0.70819389  0.13105172  0.05131143  1  0.034905  0  0.088233  0.121534  0  1.008281  0
H  H37  1  0.25142955  0.80276457  0.00541993  1  0.022338  0  0.087711  0.118825  0  1.007806  0
H  H38  1  0.22990407  0.88594711  0.07467691  1  0.045966  0  0.092722  0.13382  0  1.007373  0
H  H39  1  0.18091764  0.77339424  0.15119266  1  0.076175  0  0.097639  0.141256  0  0.988983  0
H  H40  1  0.48537892  0.54824055  0.25707311  1  -0.002077  0  0.089322  0.121281  0  1.004244  0
H  H41  1  0.34333727  0.59832969  0.33763463  1  0.058119  0  0.093412  0.132373  0  1.010115  0
H  H42  1  0.42272503  0.68583033  0.26198282  1  0.061018  0  0.096296  0.140469  0  1.006955  0
H  H43  1  0.52671391  0.47546818  0.73496325  1  0.016573  0  0.089009  0.121482  0  1.002888  0
H  H44  1  0.58426010  0.33674471  0.73466225  1  0.073554  0  0.096103  0.13935  0  1.000267  0
H  H45  1  0.66806146  0.41997556  0.65626989  1  0.039317  0  0.093723  0.133649  0  1.018854  0
H  H46  1  0.45391021  0.79065821  0.75050576  1  0.025141  0  0.088764  0.119919  0  1.005303  0
H  H47  1  0.31827971  0.86625278  0.73987482  1  0.074094  0  0.094726  0.135786  0  1.011188  0
H  H48  1  0.41100413  0.76778539  0.67214229  1  0.044382  0  0.096753  0.138697  0  0.995743  0
H  H49  1  0.57508185  0.23587305  0.32304281  1  0.040835  0  0.097477  0.139179  0  0.983643  0
H  H50  1  0.68534572  0.13285590  0.26763582  1  0.074498  0  0.095693  0.139312  0  1.030371  0
H  H51  1  0.55823245  0.19283007  0.24070059  1  0.008524  0  0.088589  0.119572  0  1.008967  0
H  H52  1  0.07475976  0.40170180  0.20928211  1  0.642548  0  0.310189  0.351828  0  0.960111  0
H  H53  1  0.06837476  0.71092434  0.90438934  1  0.625954  0  0.311852  0.356111  0  0.953396  0
H  H54  1  0.96259372  0.46637779  0.66979831  1  0.628522  0  0.309009  0.342936  0  0.959083  0
H  H55  1  0.99062154  0.23467082  0.83010730  1  0.61899  0  0.328702  0.364421  0  0.895804  0
C  C56  1  0.98726676  0.70679405  0.49487841  1  1.555994  0  0.236647  0.645178  0  4.093691  0
C  C57  1  0.30535095  0.99995890  0.20485136  1  1.523214  0  0.237498  0.645273  0  4.083156  0
C  C58  1  0.99663159  0.31020095  0.49700268  1  1.559665  0  0.237672  0.645776  0  4.088599  0
C  C59  1  0.69438714  0.99680806  0.81043041  1  1.530161  0  0.238993  0.645302  0  4.082183  0
C  C60  1  0.99112934  0.69651896  0.80937955  1  1.499369  0  0.234259  0.660943  0  4.075101  0
C  C61  1  0.69375814  0.00706487  0.49473095  1  1.536561  0  0.237458  0.642507  0  4.084555  0
C  C62  1  0.99904347  0.30549065  0.19686174  1  1.514054  0  0.233925  0.660203  0  4.076942  0
C  C63  1  0.30356533  0.99233269  0.50692426  1  1.546658  0  0.237726  0.643509  0  4.085011  0
C  C64  1  0.30364610  0.70085170  0.49948074  1  1.532194  0  0.237219  0.645371  0  4.08017  0
C  C65  1  0.98520240  0.99256581  0.81940960  1  1.528523  0  0.23799  0.646504  0  4.076352  0
C  C66  1  0.70027319  0.31365649  0.50030882  1  1.556152  0  0.238534  0.647092  0  4.077249  0
C  C67  1  0.99380647  0.99016286  0.20689357  1  1.530963  0  0.239248  0.644291  0  4.07864  0
C  C68  1  0.99664054  0.41548956  0.48797737  1  -0.029932  0  -0.010116  -0.081665  0  3.91271  0
C  C69  1  0.98298581  0.61045017  0.48977416  1  -0.051125  0  -0.016876  -0.105259  0  3.944794  0
C  C70  1  0.09507873  0.44087193  0.43881494  1  0.02321  0  0.005337  0.165797  0  3.925466  0
C  C71  1  0.88366410  0.58768079  0.53425044  1  -0.039336  0  -0.002066  0.142037  0  3.95343  0
C  C72  1  0.08440120  0.53877610  0.44182715  1  -0.026037  0  -0.08413  -0.154716  0  3.945124  0
C  C73  1  0.89458354  0.48912687  0.53198097  1  -0.037427  0  -0.081632  -0.150715  0  3.941753  0
C  C74  1  0.40634132  0.00248633  0.10371279  1  0.045155  0  -0.014407  -0.09406  0  3.92677  0
C  C75  1  0.59474298  0.99279863  0.91285503  1  -0.035589  0  -0.013999  -0.093583  0  3.92591  0
C  C76  1  0.45255433  0.08777584  0.04970380  1  -0.024386  0  0.004015  0.166741  0  3.927109  0
C  C77  1  0.54876110  0.90727359  0.96703598  1  0.02601  0  0.004409  0.167096  0  3.928188  0
C  C78  1  0.54590053  0.07953525  0.95485187  1  -0.014562  0  -0.086503  -0.160982  0  3.961157  0
C  C79  1  0.45482806  0.91603361  0.06140032  1  -0.046258  0  -0.085921  -0.158479  0  3.95379  0
C  C80  1  0.97820785  0.98486641  0.92732620  1  -0.070222  0  -0.015145  -0.095116  0  3.927144  0
C  C81  1  0.99127391  0.97840787  0.11353125  1  0.070379  0  -0.011277  -0.088662  0  3.916581  0
C  C82  1  0.88270537  0.04387555  0.99619502  1  0.018845  0  0.003435  0.165167  0  3.935045  0
C  C83  1  0.08451951  0.91295667  0.04905028  1  -0.014398  0  0.006131  0.170108  0  3.918848  0
C  C84  1  0.89329991  0.03875201  0.08758414  1  -0.090926  0  -0.081365  -0.141219  0  3.944878  0
C  C85  1  0.07433351  0.91920161  0.95690302  1  0.071986  0  -0.084599  -0.150236  0  3.944154  0
C  C86  1  0.40837915  0.60348858  0.49354813  1  -0.054655  0  -0.01408  -0.09312  0  3.925531  0
C  C87  1  0.60048109  0.41621388  0.50178540  1  -0.046302  0  -0.014099  -0.094409  0  3.924015  0
C  C88  1  0.46311442  0.55693643  0.40789929  1  0.010744  0  0.003412  0.165029  0  3.930952  0
C  C89  1  0.54681888  0.46388650  0.58644471  1  0.006219  0  0.001647  0.162588  0  3.932172  0
C  C90  1  0.55832365  0.46393354  0.41551466  1  0.004633  0  -0.085098  -0.154869  0  3.947045  0
C  C91  1  0.45159871  0.55690005  0.57880223  1  -0.02095  0  -0.085878  -0.157008  0  3.952579  0
C  C92  1  0.00063815  0.59114580  0.90292957  1  0.035351  0  -0.040253  -0.233375  0  3.971807  0
C  C93  1  0.98520849  0.50051796  0.90672807  1  -0.000226  0  -0.017132  0.074778  0  4.024495  0
C  C94  1  0.03272035  0.57934811  0.98402475  1  0.537373  0  0.083619  0.208153  0  4.050695  0
C  C95  1  0.97473722  0.50139390  0.81558517  1  0.009824  0  -0.128278  -0.28659  0  4.020339  0
C  C96  1  0.97779990  0.40688451  0.81531241  1  0.433045  0  0.05597  0.192974  0  4.146576  0
C  C97  1  0.00822439  0.39824716  0.09094141  1  0.027153  0  -0.039551  -0.233058  0  3.977905  0
C  C98  1  0.03577677  0.48198364  0.07960745  1  0.533022  0  0.082059  0.206235  0  4.056207  0
C  C99  1  0.99148217  0.40171680  0.00116125  1  0.04086  0  -0.015471  0.070631  0  4.0303  0
C  C100  1  0.99203360  0.30665021  0.99899006  1  0.027107  0  -0.117439  -0.257298  0  3.978465  0
C  C101  1  0.98890632  0.30779107  0.90671170  1  0.470803  0  0.06389  0.213111  0  4.117032  0
C  C102  1  0.40572120  0.99039445  0.50674522  1  -0.010114  0  -0.014658  -0.094564  0  3.92735  0
C  C103  1  0.59434461  0.00609934  0.49229095  1  -0.001482  0  -0.014717  -0.096285  0  3.927801  0
C  C104  1  0.45087147  0.91783494  0.59351009  1  0.0134  0  0.002395  0.16345  0  3.934747  0
C  C105  1  0.54994656  0.07772794  0.40494480  1  -0.012894  0  0.003014  0.165442  0  3.933962  0
C  C106  1  0.54445904  0.92896662  0.58275970  1  -0.009708  0  -0.085805  -0.158476  0  3.958256  0
C  C107  1  0.45619059  0.06675581  0.41580379  1  -0.067646  0  -0.085677  -0.156525  0  3.95067  0
C  C108  1  0.20883466  0.36990585  0.38643497  1  -0.046404  0  -0.237174  -0.406011  0  3.962461  0
C  C109  1  0.77002600  0.66178681  0.58256928  1  -0.079783  0  -0.238338  -0.408112  0  3.963242  0
C  C110  1  0.40962493  0.18490724  0.08612125  1  -0.02409  0  -0.23836  -0.407036  0  3.97021  0
C  C111  1  0.59261730  0.80946217  0.93126839  1  -0.05985  0  -0.237699  -0.408459  0  3.967764  0
C  C112  1  0.77352175  0.11260680  0.97603055  1  -0.060808  0  -0.240212  -0.410701  0  3.968891  0
C  C113  1  0.19267070  0.84002827  0.07101121  1  -0.06131  0  -0.238248  -0.405522  0  3.970048  0
C  C114  1  0.42688131  0.59938062  0.31086254  1  -0.03151  0  -0.238644  -0.409877  0  3.972682  0
C  C115  1  0.58325181  0.42203954  0.68323882  1  -0.043139  0  -0.238901  -0.410917  0  3.972965  0
C  C116  1  0.40614046  0.83110042  0.69460278  1  -0.057567  0  -0.237988  -0.407176  0  3.9713  0
C  C117  1  0.59488247  0.16396463  0.30332495  1  -0.015935  0  -0.237824  -0.41108  0  3.966169  0
O  O118  1  0.91180006  0.74478884  0.57362845  1  -1.186577  0  -0.35151  -0.615509  0  2.309013  0
O  O119  1  0.26289076  0.07599760  0.24681001  1  -1.184711  0  -0.356735  -0.613376  0  2.33144  0
O  O120  1  0.07474305  0.26563041  0.42358094  1  -1.183481  0  -0.358661  -0.61814  0  2.33096  0
O  O121  1  0.73523083  0.92257324  0.76667802  1  -1.176442  0  -0.356743  -0.611763  0  2.332292  0
O  O122  1  0.06217426  0.74318692  0.77504219  1  -1.183214  0  -0.361175  -0.64422  0  2.313878  0
O  O123  1  0.73258647  0.08529784  0.42159610  1  -1.184154  0  -0.350813  -0.607157  0  2.310474  0
O  O124  1  0.92342043  0.26478777  0.23606087  1  -1.176596  0  -0.349199  -0.601558  0  2.281344  0
O  O125  1  0.26107912  0.91764200  0.58358377  1  -1.182904  0  -0.351064  -0.607763  0  2.315343  0
O  O126  1  0.26111232  0.74120477  0.42455792  1  -1.174866  0  -0.355386  -0.611814  0  2.328679  0
O  O127  1  0.91404269  0.07422471  0.77409791  1  -1.184836  0  -0.353279  -0.614698  0  2.294261  0
O  O128  1  0.73899072  0.26912527  0.57909959  1  -1.184263  0  -0.357172  -0.6131  0  2.330503  0
O  O129  1  0.07403304  0.92023719  0.24428105  1  -1.184046  0  -0.360407  -0.615332  0  2.346009  0
O  O130  1  0.06524961  0.91870731  0.77608016  1  -1.199242  0  -0.360807  -0.631301  0  2.294229  0
O  O131  1  0.73959857  0.27513450  0.42239263  1  -1.182828  0  -0.352113  -0.618788  0  2.272274  0
O  O132  1  0.91791454  0.07030700  0.24272724  1  -1.17758  0  -0.349625  -0.621507  0  2.269746  0
O  O133  1  0.26161658  0.73710251  0.57979176  1  -1.18511  0  -0.355052  -0.624057  0  2.275552  0
O  O134  1  0.91607303  0.73653100  0.76775153  1  -1.176213  0  -0.340915  -0.596883  0  2.278241  0
O  O135  1  0.26372105  0.07062277  0.43059258  1  -1.184069  0  -0.356927  -0.624807  0  2.301824  0
O  O136  1  0.06814717  0.27203272  0.24550705  1  -1.194174  0  -0.352468  -0.641322  0  2.296691  0
O  O137  1  0.73323111  0.92942838  0.57155906  1  -1.184064  0  -0.355956  -0.625535  0  2.305568  0
O  O138  1  0.73225052  0.07477244  0.77169127  1  -1.188157  0  -0.35225  -0.623454  0  2.287187  0
O  O139  1  0.06859016  0.74116130  0.42314471  1  -1.181097  0  -0.350636  -0.616258  0  2.286361  0
O  O140  1  0.26624807  0.92317305  0.24267118  1  -1.18558  0  -0.351836  -0.621342  0  2.283688  0
O  O141  1  0.92048822  0.27143260  0.57653617  1  -1.180689  0  -0.344449  -0.614584  0  2.249846  0
O  O142  1  0.79405676  0.07234218  0.56944375  1  -1.222025  0  -0.693194  -1.066617  0  2.365921  0
O  O143  1  0.06278477  0.06763700  0.57479300  1  -1.234459  0  -0.695515  -1.070749  0  2.369333  0
O  O144  1  0.06532909  0.06922872  0.30194462  1  -1.222536  0  -0.696012  -1.071138  0  2.371385  0
O  O145  1  0.06154249  0.79979290  0.57148454  1  -1.24525  0  -0.696186  -1.071054  0  2.369244  0
O  O146  1  0.14484309  0.95091805  0.45670933  1  -1.201915  0  -0.795941  -1.150109  0  2.147398  0
O  O147  1  0.94641885  0.95423288  0.45268021  1  -1.199632  0  -0.792473  -1.14772  0  2.138203  0
O  O148  1  0.94795288  0.14982947  0.45523906  1  -1.19933  0  -0.792255  -1.145574  0  2.135866  0
O  O149  1  0.94494628  0.95264960  0.65257296  1  -1.194083  0  -0.793324  -1.147101  0  2.138952  0
O  O150  1  0.06387964  0.47837838  0.15597747  1  -1.138826  0  -0.351049  -0.415658  0  2.282682  0
O  O151  1  0.05961858  0.65645135  0.98033814  1  -1.118399  0  -0.35118  -0.415579  0  2.281861  0
O  O152  1  0.97294659  0.39631697  0.73074369  1  -1.176418  0  -0.365299  -0.468603  0  2.36429  0
O  O153  1  0.99720025  0.21433540  0.90114804  1  -1.127147  0  -0.347767  -0.429526  0  2.319109  0
