# generated using pymatgen
data_AlH15C25N2O7
_symmetry_space_group_name_H-M   'P 1'
_cell_length_a   6.56223878
_cell_length_b   25.52090009
_cell_length_c   30.35399333
_cell_angle_alpha   112.84432062
_cell_angle_beta   90.80984760
_cell_angle_gamma   88.58349182
_symmetry_Int_Tables_number   1
_chemical_formula_structural   AlH15C25N2O7
_chemical_formula_sum   'Al4 H60 C100 N8 O28'
_cell_volume   4683.28871841
_cell_formula_units_Z   4
loop_
 _symmetry_equiv_pos_site_id
 _symmetry_equiv_pos_as_xyz
  1  'x, y, z'
loop_
 _atom_site_type_symbol
 _atom_site_label
 _atom_site_symmetry_multiplicity
 _atom_site_fract_x
 _atom_site_fract_y
 _atom_site_fract_z
 _atom_site_occupancy
 _atom_site_pbe_bader_charge
 _atom_site_pbe_bader_spin_density
 _atom_site_pbe_cm5_charge
 _atom_site_pbe_ddec_charge
 _atom_site_pbe_ddec_spin_density
 _atom_site_pbe_ddec_sum_bond_order
 _atom_site_pbe_magmom
Al  Al0  1  0.20049294  0.75427278  0.75369342  1  2.49787  0  0.395025  1.632239  0  2.579734  0
Al  Al1  1  0.82071371  0.24618507  0.24766299  1  2.498032  0  0.393395  1.630531  0  2.589394  0
Al  Al2  1  0.70072726  0.75070304  0.74882087  1  2.500038  0  0.392695  1.63118  0  2.595899  0
Al  Al3  1  0.32074838  0.24783897  0.25140085  1  2.499247  0  0.395191  1.632411  0  2.588575  0
H  H4  1  0.28141753  0.90227872  0.04225565  1  0.073581  0  0.101846  0.102428  0  0.994778  0
H  H5  1  0.71452014  0.09402818  0.95983184  1  0.060321  0  0.101933  0.102515  0  0.995356  0
H  H6  1  0.67552805  0.59927233  0.45148511  1  0.049764  0  0.099323  0.098903  0  0.999304  0
H  H7  1  0.32156115  0.40102933  0.54971151  1  0.057975  0  0.100462  0.100001  0  0.997501  0
H  H8  1  0.08317753  0.87850179  0.89670285  1  0.045217  0  0.104736  0.105156  0  1.02303  0
H  H9  1  0.92440677  0.11902064  0.10424624  1  0.081676  0  0.104574  0.104778  0  1.035488  0
H  H10  1  0.53573961  0.62693460  0.59932740  1  0.053855  0  0.102135  0.10266  0  1.043951  0
H  H11  1  0.44494036  0.37459991  0.40074107  1  0.061745  0  0.105144  0.106537  0  1.016239  0
H  H12  1  0.71514889  0.93880516  0.80784204  1  0.099104  0  0.110237  0.113962  0  0.98849  0
H  H13  1  0.30344926  0.06034651  0.19245419  1  0.075592  0  0.108552  0.110553  0  0.996689  0
H  H14  1  0.33684748  0.55893067  0.69999191  1  0.053973  0  0.106762  0.109356  0  0.987362  0
H  H15  1  0.70931407  0.43832357  0.30329334  1  0.076556  0  0.10809  0.111929  0  0.983897  0
H  H16  1  0.34037538  0.96513695  0.12574581  1  0.056742  0  0.103635  0.102814  0  0.993999  0
H  H17  1  0.66767774  0.03294206  0.87577856  1  0.082908  0  0.102871  0.102347  0  0.99513  0
H  H18  1  0.72685664  0.53497117  0.36804006  1  0.054216  0  0.102087  0.100302  0  0.995965  0
H  H19  1  0.30064562  0.46347631  0.63449480  1  0.067212  0  0.10224  0.100488  0  0.99698  0
H  H20  1  0.15419842  0.88685608  0.96211580  1  0.054566  0  0.098773  0.095086  0  1.026153  0
H  H21  1  0.83956666  0.10892010  0.03992452  1  0.061774  0  0.096566  0.091638  0  1.047868  0
H  H22  1  0.58434839  0.61545029  0.53362408  1  0.057013  0  0.0974  0.093858  0  1.049043  0
H  H23  1  0.39577244  0.38546887  0.46698878  1  0.069835  0  0.100668  0.100168  0  1.017537  0
H  H24  1  0.03824247  0.65077074  0.07191461  1  0.092072  0  0.119746  0.126359  0  0.974827  0
H  H25  1  0.00858105  0.35084530  0.92956682  1  0.128718  0  0.119994  0.126103  0  0.974909  0
H  H26  1  0.88565992  0.89877731  0.47765636  1  0.12008  0  0.116121  0.120502  0  0.982261  0
H  H27  1  0.04745335  0.09832146  0.51919328  1  0.108825  0  0.115315  0.119635  0  0.981939  0
H  H28  1  0.05713294  0.59451718  0.12465859  1  0.115526  0  0.121132  0.127768  0  0.973469  0
H  H29  1  0.96376505  0.40725131  0.87735521  1  0.117419  0  0.120882  0.126559  0  0.973177  0
H  H30  1  0.89771867  0.94877931  0.42010224  1  0.114027  0  0.116178  0.12118  0  0.980541  0
H  H31  1  0.02637171  0.04461092  0.57358644  1  0.131984  0  0.11583  0.120638  0  0.982509  0
H  H32  1  0.75847262  0.35807342  0.07954043  1  0.065802  0  0.108002  0.120263  0  0.995954  0
H  H33  1  0.67854205  0.65107201  0.92579613  1  0.074645  0  0.108804  0.122076  0  0.992738  0
H  H34  1  0.74648918  0.15468824  0.43733717  1  0.07425  0  0.108446  0.125263  0  0.993955  0
H  H35  1  0.49204261  0.81235397  0.54834652  1  0.119907  0  0.108652  0.12204  0  0.998719  0
H  H36  1  0.35415163  0.35173589  0.17926713  1  0.114638  0  0.110389  0.113633  0  0.998511  0
H  H37  1  0.25184657  0.64164406  0.81870740  1  0.098614  0  0.111371  0.117008  0  0.996405  0
H  H38  1  0.34971736  0.11292972  0.28810517  1  0.09419  0  0.111553  0.111852  0  0.990715  0
H  H39  1  0.35862567  0.91071233  0.72170532  1  0.053819  0  0.110517  0.111412  0  0.982427  0
H  H40  1  0.36087486  0.41327808  0.13216194  1  0.07523  0  0.106319  0.120609  0  0.991861  0
H  H41  1  0.26217586  0.58047637  0.86622333  1  0.065421  0  0.107007  0.12046  0  0.988739  0
H  H42  1  0.29368313  0.05592234  0.33772005  1  0.065829  0  0.111928  0.126764  0  0.977046  0
H  H43  1  0.37089156  0.96704490  0.67084109  1  0.100988  0  0.109221  0.120592  0  0.990053  0
H  H44  1  0.60240857  0.29841714  0.10193926  1  0.415865  0  0.303341  0.239968  0  0.954646  0
H  H45  1  0.57473326  0.20974910  0.10385425  1  0.032841  0  0.110912  0.123702  0  0.966096  0
H  H46  1  0.80390676  0.21678309  0.13677117  1  0.066232  0  0.108523  0.118901  0  1.047141  0
H  H47  1  0.81361657  0.20650329  0.07509406  1  0.033324  0  0.090227  0.089175  0  1.002535  0
H  H48  1  0.52600052  0.71453310  0.90513366  1  0.404828  0  0.305149  0.241752  0  0.949154  0
H  H49  1  0.50980066  0.80480317  0.90761979  1  0.037245  0  0.107687  0.117811  0  0.975016  0
H  H50  1  0.71928134  0.79267898  0.86870875  1  0.058687  0  0.107021  0.121191  0  1.030143  0
H  H51  1  0.76183845  0.80060655  0.92931770  1  0.032247  0  0.090656  0.090123  0  0.996632  0
H  H52  1  0.85324102  0.23357722  0.42951942  1  0.372661  0  0.298838  0.239542  0  0.948268  0
H  H53  1  0.10916763  0.25752898  0.38480665  1  0.041584  0  0.095807  0.105138  0  0.983022  0
H  H54  1  0.01474384  0.20364326  0.33232839  1  0.128395  0  0.106309  0.130231  0  1.03216  0
H  H55  1  0.13058345  0.18481806  0.37800593  1  0.04337  0  0.084392  0.090236  0  1.029896  0
H  H56  1  0.47803862  0.72752177  0.56017182  1  0.376069  0  0.292002  0.23081  0  0.95924  0
H  H57  1  0.77327260  0.68520628  0.58129912  1  0.017754  0  0.093891  0.096611  0  1.014971  0
H  H58  1  0.79525570  0.74758177  0.63438272  1  0.072321  0  0.109084  0.135666  0  1.005693  0
H  H59  1  0.83713185  0.75120121  0.57761508  1  0.02925  0  0.08556  0.085771  0  0.997558  0
H  H60  1  0.46435427  0.74795813  0.80655051  1  0.625375  0  0.344154  0.419729  0  0.882962  0
H  H61  1  0.55598942  0.25201699  0.19470209  1  0.6113  0  0.344876  0.41991  0  0.885611  0
H  H62  1  0.96820703  0.70075605  0.69384889  1  0.626917  0  0.353104  0.431455  0  0.855716  0
H  H63  1  0.05898303  0.29787706  0.30710025  1  0.62039  0  0.356591  0.434739  0  0.849454  0
C  C64  1  0.43076217  0.79961472  0.69708631  1  1.60925  0  0.280856  0.664977  0  4.082786  0
C  C65  1  0.59116253  0.19774245  0.30282703  1  1.600177  0  0.279209  0.665761  0  4.072223  0
C  C66  1  0.96439487  0.70804907  0.80974039  1  1.568597  0  0.262346  0.645692  0  4.109075  0
C  C67  1  0.05578327  0.29260330  0.19147285  1  1.565359  0  0.261524  0.646098  0  4.10933  0
C  C68  1  0.45827455  0.65579646  0.69081366  1  1.59962  0  0.274624  0.661866  0  4.083129  0
C  C69  1  0.56162775  0.34345678  0.31067732  1  1.58992  0  0.273007  0.659453  0  4.085568  0
C  C70  1  0.92708139  0.84733037  0.80972962  1  1.574093  0  0.269975  0.635237  0  4.108842  0
C  C71  1  0.09073344  0.15184698  0.19042198  1  1.568804  0  0.271029  0.638087  0  4.098996  0
C  C72  1  0.10835898  0.09440277  0.15136932  1  -0.003414  0  -0.01242  -0.030084  0  3.996595  0
C  C73  1  0.90454274  0.90416897  0.84938750  1  0.061785  0  -0.010866  -0.029309  0  3.995099  0
C  C74  1  0.57169678  0.40167954  0.34909937  1  -0.066765  0  -0.013665  -0.026404  0  4.003844  0
C  C75  1  0.44270580  0.59761053  0.65240733  1  -0.06619  0  -0.012294  -0.021375  0  3.997934  0
C  C76  1  0.25228247  0.99929179  0.12080211  1  -0.038474  0  -0.087823  -0.130217  0  3.999229  0
C  C77  1  0.75561294  0.99860722  0.88050039  1  -0.075459  0  -0.089139  -0.13357  0  4.007168  0
C  C78  1  0.66695559  0.49962762  0.37530551  1  -0.023998  0  -0.088226  -0.128091  0  4.0086  0
C  C79  1  0.35241336  0.49929947  0.62674573  1  -0.107186  0  -0.089111  -0.128993  0  4.008886  0
C  C80  1  0.23005991  0.05151650  0.15795878  1  -0.039781  0  -0.083771  -0.095807  0  3.999363  0
C  C81  1  0.78330544  0.94710992  0.84278985  1  -0.050319  0  -0.083063  -0.094674  0  3.999085  0
C  C82  1  0.65581583  0.44631286  0.33923449  1  -0.059332  0  -0.088612  -0.10894  0  4.013657  0
C  C83  1  0.37334907  0.55204788  0.66318566  1  0.061393  0  -0.08862  -0.109856  0  4.014232  0
C  C84  1  0.01773897  0.08486388  0.10748582  1  -0.088163  0  -0.079512  -0.13875  0  3.937316  0
C  C85  1  0.98954111  0.91276866  0.89366884  1  -0.054416  0  -0.080178  -0.141466  0  3.943792  0
C  C86  1  0.50751928  0.41036882  0.39470708  1  0.037191  0  -0.083976  -0.15117  0  3.951125  0
C  C87  1  0.48650404  0.59016259  0.60586202  1  0.004385  0  -0.085351  -0.153178  0  3.946143  0
C  C88  1  0.05198428  0.03343919  0.06766540  1  0.038785  0  -0.001252  0.035313  0  3.949047  0
C  C89  1  0.95047904  0.96349576  0.93385018  1  0.005933  0  -0.002071  0.034781  0  3.948761  0
C  C90  1  0.52872313  0.46368082  0.43299846  1  0.006187  0  -0.000127  0.040484  0  3.946015  0
C  C91  1  0.46221318  0.53690978  0.56771081  1  -0.03953  0  -0.000501  0.041651  0  3.946053  0
C  C92  1  0.16747010  0.98929253  0.07509964  1  -0.004081  0  -0.006407  0.078747  0  4.019501  0
C  C93  1  0.83513878  0.00774894  0.92648819  1  -0.047529  0  -0.006867  0.077921  0  4.022538  0
C  C94  1  0.60543031  0.50947581  0.42243838  1  -0.045091  0  -0.009166  0.075115  0  4.023718  0
C  C95  1  0.39513107  0.49054690  0.57876644  1  0.015434  0  -0.009245  0.073233  0  4.025655  0
C  C96  1  0.97913759  0.02455777  0.02008034  1  -0.004052  0  -0.003417  0.033689  0  3.958156  0
C  C97  1  0.02014601  0.97188465  0.98157914  1  -0.015242  0  -0.004286  0.030972  0  3.959844  0
C  C98  1  0.48009991  0.47298876  0.48192648  1  -0.035553  0  -0.001909  0.033081  0  3.956007  0
C  C99  1  0.50366312  0.52783627  0.51851375  1  0.065095  0  -0.003305  0.034967  0  3.955099  0
C  C100  1  0.12746259  0.92802189  0.99112243  1  -0.107661  0  -0.092681  -0.129885  0  4.035259  0
C  C101  1  0.86941189  0.06816545  0.01075113  1  -0.067802  0  -0.093668  -0.128741  0  4.032957  0
C  C102  1  0.57071184  0.57299011  0.50592937  1  -0.097545  0  -0.096028  -0.133533  0  4.035309  0
C  C103  1  0.41322726  0.42785778  0.49460904  1  -0.049484  0  -0.09385  -0.131432  0  4.032074  0
C  C104  1  0.19834385  0.93631205  0.03592081  1  0.022027  0  -0.092381  -0.136095  0  4.030012  0
C  C105  1  0.79962658  0.06015319  0.96596293  1  -0.018916  0  -0.092442  -0.135963  0  4.032198  0
C  C106  1  0.62095608  0.56423785  0.45999279  1  -0.020716  0  -0.095021  -0.138578  0  4.040622  0
C  C107  1  0.37218573  0.43626372  0.54096616  1  -0.042059  0  -0.092422  -0.134535  0  4.035758  0
C  C108  1  0.95835406  0.51997001  0.90489168  1  1.345416  0  0.24396  0.438302  0  4.099898  0
C  C109  1  0.05210123  0.48203723  0.09742767  1  1.338619  0  0.243253  0.436731  0  4.099168  0
C  C110  1  0.28055619  0.96377562  0.57808218  1  1.342709  0  0.245896  0.435967  0  4.082047  0
C  C111  1  0.64252011  0.02860165  0.41502745  1  1.329882  0  0.24468  0.441712  0  4.095452  0
C  C112  1  0.00432382  0.61054203  0.97710514  1  1.312684  0  0.242754  0.436703  0  4.100033  0
C  C113  1  0.05025984  0.39105057  0.02425347  1  1.310367  0  0.242919  0.438072  0  4.096738  0
C  C114  1  0.61079829  0.91294018  0.54478862  1  1.325232  0  0.247093  0.439252  0  4.073683  0
C  C115  1  0.32897331  0.08614901  0.45286661  1  1.332186  0  0.246522  0.444235  0  4.088811  0
C  C116  1  0.01394843  0.57680674  0.00736445  1  -0.033929  0  -0.005074  -0.060496  0  3.988876  0
C  C117  1  0.02703378  0.42487348  0.99425170  1  -0.054415  0  -0.005026  -0.062075  0  3.991386  0
C  C118  1  0.61339937  0.94260395  0.51140065  1  -0.013383  0  -0.003706  -0.060678  0  3.990976  0
C  C119  1  0.31774353  0.05408831  0.48447610  1  -0.018014  0  -0.002947  -0.057842  0  3.975927  0
C  C120  1  0.00769314  0.51672179  0.98609633  1  -0.087313  0  0.003275  0.028943  0  4.005763  0
C  C121  1  0.02587244  0.48501493  0.01565948  1  0.029301  0  0.002758  0.028151  0  4.007738  0
C  C122  1  0.45972295  0.98321661  0.51328995  1  -0.003806  0  0.003276  0.0312  0  4.010217  0
C  C123  1  0.46888032  0.01234992  0.48172589  1  0.028883  0  0.002493  0.028453  0  4.003773  0
C  C124  1  0.98393768  0.48758710  0.93606585  1  -0.004084  0  -0.003613  -0.05895  0  3.984313  0
C  C125  1  0.04252252  0.51418380  0.06584933  1  -0.002014  0  -0.004255  -0.058948  0  3.985163  0
C  C126  1  0.29735243  0.99525922  0.54614550  1  -0.03774  0  -0.003609  -0.060219  0  3.986888  0
C  C127  1  0.62950367  0.99896065  0.44824752  1  -0.050437  0  -0.004886  -0.063276  0  3.99228  0
C  C128  1  0.03322252  0.60447231  0.05665728  1  0.101087  0  -0.061163  -0.068777  0  3.929199  0
C  C129  1  0.00666358  0.39719192  0.94497248  1  0.029479  0  -0.061956  -0.069165  0  3.928668  0
C  C130  1  0.76976591  0.93037098  0.47827016  1  -0.023026  0  -0.065293  -0.071389  0  3.942744  0
C  C131  1  0.16112862  0.06572663  0.51750343  1  -0.034559  0  -0.064393  -0.072011  0  3.940909  0
C  C132  1  0.04529149  0.57324471  0.08590076  1  -0.09138  0  -0.061321  -0.069743  0  3.929689  0
C  C133  1  0.98290703  0.42850468  0.91596941  1  0.013938  0  -0.060839  -0.067281  0  3.926843  0
C  C134  1  0.77690116  0.95819711  0.44651852  1  -0.014103  0  -0.064968  -0.071942  0  3.943858  0
C  C135  1  0.15005443  0.03615149  0.54797519  1  0.01467  0  -0.066419  -0.074357  0  3.94253  0
C  C136  1  0.88679508  0.35769504  0.10270089  1  0.026378  0  -0.097758  -0.270593  0  3.950026  0
C  C137  1  0.80151237  0.64807519  0.90102795  1  -0.003456  0  -0.09592  -0.269708  0  3.943728  0
C  C138  1  0.65803855  0.14620728  0.40465313  1  0.025464  0  -0.094569  -0.26444  0  3.942393  0
C  C139  1  0.46328830  0.83413623  0.58649389  1  -0.101194  0  -0.090414  -0.250042  0  3.952355  0
C  C140  1  0.88143012  0.32175904  0.12801471  1  0.425677  0  0.109918  0.24355  0  4.007729  0
C  C141  1  0.79558252  0.68426898  0.87572579  1  0.4461  0  0.110905  0.244655  0  4.002039  0
C  C142  1  0.69694600  0.17743897  0.37648616  1  0.387702  0  0.102952  0.233103  0  4.017428  0
C  C143  1  0.47355485  0.80267456  0.61535637  1  0.417601  0  0.095263  0.22033  0  4.004907  0
C  C144  1  0.05348580  0.32117446  0.15696123  1  -0.020009  0  -0.023403  -0.146934  0  3.908858  0
C  C145  1  0.96086146  0.68002988  0.84452402  1  -0.010857  0  -0.024084  -0.151624  0  3.909436  0
C  C146  1  0.58380481  0.16393390  0.33348545  1  0.005451  0  -0.010071  -0.125024  0  3.905808  0
C  C147  1  0.43225808  0.83098326  0.66452777  1  -0.001638  0  -0.004065  -0.103656  0  3.913544  0
C  C148  1  0.22414366  0.35342752  0.15706037  1  -0.022408  0  -0.079018  -0.060448  0  3.999442  0
C  C149  1  0.12702251  0.64321230  0.84249042  1  -0.030443  0  -0.079439  -0.059511  0  4.00298  0
C  C150  1  0.44013724  0.12074404  0.32037345  1  -0.021058  0  -0.077521  -0.072817  0  4.011917  0
C  C151  1  0.39212160  0.88962752  0.68367543  1  -0.003297  0  -0.079647  -0.078113  0  4.000224  0
C  C152  1  0.22900967  0.38764101  0.13091341  1  -0.018814  0  -0.104229  -0.198328  0  4.011263  0
C  C153  1  0.13326914  0.60915582  0.86865085  1  0.03619  0  -0.103788  -0.19561  0  4.01501  0
C  C154  1  0.40586648  0.08941600  0.34816602  1  0.020642  0  -0.094799  -0.182912  0  4.002647  0
C  C155  1  0.39655737  0.92123298  0.65523048  1  -0.045967  0  -0.090329  -0.162949  0  3.992964  0
C  C156  1  0.05658974  0.38948714  0.10397629  1  0.275795  0  0.087263  0.220931  0  4.047611  0
C  C157  1  0.96664931  0.61192680  0.89771452  1  0.268074  0  0.087092  0.219815  0  4.050129  0
C  C158  1  0.51589417  0.10327899  0.39060587  1  0.246594  0  0.084436  0.209033  0  4.059522  0
C  C159  1  0.42977160  0.89287078  0.60623658  1  0.377377  0  0.087115  0.208212  0  4.009538  0
C  C160  1  0.72832094  0.22731111  0.10881905  1  0.281669  0  -0.140251  -0.227159  0  3.952688  0
C  C161  1  0.65897378  0.78317662  0.89811283  1  0.284686  0  -0.140631  -0.22063  0  3.952566  0
C  C162  1  0.03301794  0.21641343  0.37086004  1  0.196581  0  -0.152307  -0.22121  0  3.940202  0
C  C163  1  0.74511278  0.73142213  0.59701240  1  0.269198  0  -0.148789  -0.221041  0  3.947105  0
N  N164  1  0.97331551  0.57962790  0.92765837  1  -1.19167  0  -0.23019  -0.225241  0  3.575653  0
N  N165  1  0.05412786  0.42213942  0.07430242  1  -1.178883  0  -0.230029  -0.225372  0  3.570055  0
N  N166  1  0.43938963  0.92395672  0.57543217  1  -1.16998  0  -0.22123  -0.212295  0  3.535593  0
N  N167  1  0.49229012  0.07114736  0.42030799  1  -1.172953  0  -0.227615  -0.222498  0  3.574388  0
N  N168  1  0.70947933  0.28883905  0.12237552  1  -1.137549  0  -0.446607  -0.298734  0  3.514419  0
N  N169  1  0.62988591  0.72197098  0.88378466  1  -1.124536  0  -0.44496  -0.299738  0  3.50438  0
N  N170  1  0.83192622  0.22306489  0.39379038  1  -1.088524  0  -0.465397  -0.340756  0  3.453043  0
N  N171  1  0.52421346  0.74342647  0.59507431  1  -1.089569  0  -0.473  -0.359793  0  3.421489  0
O  O172  1  0.63376134  0.67318192  0.70778144  1  -1.255685  0  -0.237514  -0.591541  0  2.295491  0
O  O173  1  0.38699156  0.32454162  0.29413573  1  -1.262182  0  -0.2386  -0.597944  0  2.309987  0
O  O174  1  0.09803821  0.82092913  0.80458908  1  -1.26344  0  -0.233785  -0.586099  0  2.330156  0
O  O175  1  0.92050598  0.17884031  0.19640558  1  -1.264106  0  -0.234024  -0.589473  0  2.344658  0
O  O176  1  0.26661335  0.80062567  0.71913427  1  -1.24786  0  -0.225986  -0.567852  0  2.287958  0
O  O177  1  0.75717993  0.20090823  0.28301142  1  -1.255761  0  -0.224392  -0.570518  0  2.332985  0
O  O178  1  0.79554333  0.72549993  0.79852984  1  -1.265201  0  -0.236061  -0.603609  0  2.412329  0
O  O179  1  0.22739682  0.27528957  0.20171442  1  -1.259665  0  -0.242325  -0.605921  0  2.332981  0
O  O180  1  0.29096194  0.68371823  0.70278485  1  -1.261621  0  -0.233243  -0.600622  0  2.347002  0
O  O181  1  0.73143487  0.31703200  0.29801093  1  -1.262691  0  -0.23324  -0.597597  0  2.340072  0
O  O182  1  0.76776067  0.82822685  0.78486529  1  -1.252909  0  -0.22916  -0.571278  0  2.328438  0
O  O183  1  0.25242193  0.17083653  0.21431626  1  -1.254868  0  -0.229224  -0.571959  0  2.331782  0
O  O184  1  0.13697893  0.71132008  0.79220703  1  -1.259314  0  -0.243234  -0.602944  0  2.356217  0
O  O185  1  0.88534441  0.28880919  0.20946969  1  -1.250088  0  -0.239654  -0.596976  0  2.385716  0
O  O186  1  0.59578982  0.77466987  0.70102040  1  -1.25833  0  -0.223137  -0.583788  0  2.380761  0
O  O187  1  0.42255824  0.22065989  0.29795380  1  -1.250461  0  -0.228031  -0.584752  0  2.343823  0
O  O188  1  0.45558755  0.76326147  0.78180178  1  -1.429073  0  -0.45006  -0.987508  0  2.19826  0
O  O189  1  0.56611055  0.23647526  0.21926161  1  -1.414876  0  -0.449874  -0.988151  0  2.203214  0
O  O190  1  0.95414953  0.73706580  0.72072865  1  -1.430146  0  -0.448357  -0.98739  0  2.199175  0
O  O191  1  0.06842092  0.26210732  0.27952788  1  -1.422294  0  -0.447236  -0.989798  0  2.222711  0
O  O192  1  0.92645108  0.49704184  0.86170661  1  -1.100566  0  -0.272371  -0.425424  0  2.058593  0
O  O193  1  0.05616763  0.50537460  0.14121870  1  -1.105335  0  -0.271668  -0.424308  0  2.061705  0
O  O194  1  0.13600403  0.97169021  0.60531812  1  -1.096147  0  -0.264874  -0.420622  0  2.095208  0
O  O195  1  0.77668789  0.01770710  0.38475952  1  -1.083149  0  -0.27369  -0.428672  0  2.064976  0
O  O196  1  0.02309798  0.66240888  0.99354395  1  -1.066347  0  -0.278147  -0.433555  0  2.067177  0
O  O197  1  0.06405450  0.33887806  0.00712560  1  -1.076283  0  -0.277324  -0.43261  0  2.067184  0
O  O198  1  0.74935532  0.88008039  0.54550619  1  -1.090025  0  -0.262522  -0.417548  0  2.102706  0
O  O199  1  0.20599183  0.12415063  0.45492605  1  -1.098926  0  -0.27533  -0.436061  0  2.072659  0
