# generated using pymatgen
data_Zn3H8C50I8(NO8)2
_symmetry_space_group_name_H-M   'P 1'
_cell_length_a   23.61931781
_cell_length_b   23.61927816
_cell_length_c   32.62521606
_cell_angle_alpha   111.22551461
_cell_angle_beta   111.22526337
_cell_angle_gamma   90.00561747
_symmetry_Int_Tables_number   1
_chemical_formula_structural   Zn3H8C50I8(NO8)2
_chemical_formula_sum   'Zn6 H16 C100 I16 N4 O32'
_cell_volume   15633.85340407
_cell_formula_units_Z   2
loop_
 _symmetry_equiv_pos_site_id
 _symmetry_equiv_pos_as_xyz
  1  'x, y, z'
loop_
 _atom_site_type_symbol
 _atom_site_label
 _atom_site_symmetry_multiplicity
 _atom_site_fract_x
 _atom_site_fract_y
 _atom_site_fract_z
 _atom_site_occupancy
 _atom_site_pbe_bader_charge
 _atom_site_pbe_bader_spin_density
 _atom_site_pbe_cm5_charge
 _atom_site_pbe_ddec_charge
 _atom_site_pbe_ddec_spin_density
 _atom_site_pbe_ddec_sum_bond_order
 _atom_site_pbe_magmom
Zn  Zn0  1  0.02329747  0.02331192  0.04658641  1  1.299526  0  0.750624  0.987108  0  2.045526  0
Zn  Zn1  1  0.49998848  0.94493843  0.99999603  1  1.305501  0  0.748076  1.002966  0  2.011397  0
Zn  Zn2  1  0.05506298  0.50001143  0.00000378  1  1.305467  0  0.74809  1.002977  0  2.011458  0
Zn  Zn3  1  0.50000154  0.05506524  0.00000124  1  1.305337  0  0.74807  1.002715  0  2.011533  0
Zn  Zn4  1  0.97668843  0.97670140  0.95341364  1  1.319867  0  0.750575  0.987025  0  2.04557  0
Zn  Zn5  1  0.94493551  0.49999796  0.00000015  1  1.305338  0  0.748052  1.002686  0  2.011491  0
H  H6  1  0.87583799  0.17308993  0.53424069  1  0.076255  0  0.108766  0.108076  0  1.001267  0
H  H7  1  0.36116078  0.87585911  0.53424796  1  0.071675  0  0.108753  0.108394  0  1.000903  0
H  H8  1  0.65838638  0.36114590  0.53422453  1  0.062759  0  0.108709  0.108013  0  1.001299  0
H  H9  1  0.17306099  0.65836245  0.53422059  1  0.08381  0  0.108804  0.107751  0  1.001904  0
H  H10  1  0.12413797  0.63884106  0.46575156  1  0.071195  0  0.108753  0.108388  0  1.000863  0
H  H11  1  0.63885570  0.34161493  0.46577614  1  0.062321  0  0.1087  0.10801  0  1.0013  0
H  H12  1  0.34164157  0.82693338  0.46577869  1  0.083764  0  0.108753  0.107641  0  1.002017  0
H  H13  1  0.82691073  0.12416232  0.46575849  1  0.076573  0  0.108764  0.108072  0  1.001261  0
H  H14  1  0.92129267  0.22109688  0.62248843  1  0.129788  0  0.118773  0.1266  0  0.971657  0
H  H15  1  0.40146181  0.92127603  0.62250013  1  0.10706  0  0.118531  0.126423  0  0.971607  0
H  H16  1  0.70120420  0.40143547  0.62247082  1  0.127411  0  0.118715  0.126238  0  0.971999  0
H  H17  1  0.22106040  0.70118806  0.62248084  1  0.113982  0  0.118685  0.126141  0  0.972171  0
H  H18  1  0.07872131  0.59853931  0.37749940  1  0.107017  0  0.118543  0.126452  0  0.971576  0
H  H19  1  0.59856714  0.29879723  0.37752997  1  0.127312  0  0.118727  0.126222  0  0.971976  0
H  H20  1  0.29881775  0.77893111  0.37751875  1  0.114  0  0.118684  0.12623  0  0.972083  0
H  H21  1  0.77890406  0.07870741  0.37751131  1  0.12966  0  0.118782  0.126616  0  0.971682  0
C  C22  1  0.10931045  0.99999543  0.99995584  1  1.687828  0  0.228139  0.657951  0  4.250871  0
C  C23  1  0.34381436  0.85407694  0.55249782  1  0.044635  0  -0.079399  -0.121141  0  3.96517  0
C  C24  1  0.36953434  0.94000027  0.82867224  1  -0.214372  0  -0.047554  0.01789  0  3.860829  0
C  C25  1  0.11131676  0.54083847  0.17130747  1  -0.238384  0  -0.047365  0.01828  0  3.860345  0
C  C26  1  0.54081573  0.06001809  0.17130169  1  -0.210048  0  -0.047198  0.018045  0  3.861041  0
C  C27  1  0.06000341  0.63046518  0.17132765  1  -0.214402  0  -0.047553  0.017896  0  3.8608  0
C  C28  1  0.63044683  0.11136954  0.17133276  1  -0.171878  0  -0.047543  0.016606  0  3.862158  0
C  C29  1  0.88863303  0.36955322  0.82866697  1  -0.171942  0  -0.047588  0.016549  0  3.862251  0
C  C30  1  0.45915944  0.88868442  0.82869215  1  -0.238165  0  -0.047391  0.018308  0  3.860564  0
C  C31  1  0.93998417  0.45918508  0.82869936  1  -0.210225  0  -0.047158  0.018048  0  3.86099  0
C  C32  1  0.69841020  0.34379722  0.55248629  1  0.025574  0  -0.07916  -0.120375  0  3.965276  0
C  C33  1  0.92678686  0.42688192  0.85369556  1  0.004424  0  -0.016663  -0.052039  0  3.90741  0
C  C34  1  0.42683911  0.92683708  0.85369410  1  0.022649  0  -0.016321  -0.052131  0  3.906924  0
C  C35  1  0.07316648  0.57316057  0.14630634  1  0.022887  0  -0.016337  -0.052035  0  3.906755  0
C  C36  1  0.57311846  0.07321618  0.14630513  1  0.004175  0  -0.016683  -0.052047  0  3.907324  0
C  C37  1  0.20867126  0.69840039  0.55247780  1  -0.046367  0  -0.078863  -0.118524  0  3.964555  0
C  C38  1  0.87691648  0.37693989  0.75382563  1  0.47244  0  0.083333  0.153518  0  4.003009  0
C  C39  1  0.37693882  0.87691303  0.75382362  1  0.505287  0  0.084048  0.154394  0  4.002033  0
C  C40  1  0.12308862  0.62305995  0.24617618  1  0.505478  0  0.084037  0.154458  0  4.001941  0
C  C41  1  0.62306230  0.12308460  0.24617466  1  0.474114  0  0.083398  0.153606  0  4.002792  0
C  C42  1  0.99997700  0.82995942  0.00003613  1  0.14978  0  -0.001565  -0.125121  0  3.845006  0
C  C43  1  0.14592116  0.65618665  0.44750191  1  0.044923  0  -0.079375  -0.12109  0  3.965066  0
C  C44  1  0.17004028  0.00002279  0.99996363  1  0.149009  0  -0.001545  -0.125102  0  3.844914  0
C  C45  1  0.00002735  0.17006362  0.99998613  1  0.152275  0  -0.001383  -0.124987  0  3.844835  0
C  C46  1  0.82994017  0.99996924  0.00001343  1  0.151637  0  -0.001535  -0.125209  0  3.844635  0
C  C47  1  0.99998716  0.77811002  0.00000900  1  -0.281809  0  0.000679  0.038609  0  4.221568  0
C  C48  1  0.22188992  0.00001345  0.99999119  1  -0.28124  0  0.000608  0.038486  0  4.221553  0
C  C49  1  0.00001235  0.22190147  0.99999780  1  -0.284957  0  0.000639  0.038599  0  4.221937  0
C  C50  1  0.65620471  0.30159162  0.44751438  1  0.02546  0  -0.0792  -0.120478  0  3.965259  0
C  C51  1  0.77809492  0.99998580  0.00000179  1  -0.284103  0  0.000618  0.038585  0  4.221114  0
C  C52  1  0.99999351  0.72115515  0.99999890  1  -0.160794  0  -0.002088  0.033623  0  4.212517  0
C  C53  1  0.27884357  0.00000726  0.00000188  1  -0.160665  0  -0.002034  0.033746  0  4.212314  0
C  C54  1  0.00000904  0.27885069  0.99999804  1  -0.160907  0  -0.002196  0.033665  0  4.211978  0
C  C55  1  0.72114493  0.99998996  0.00000169  1  -0.161174  0  -0.002056  0.03389  0  4.212456  0
C  C56  1  0.30160269  0.79132360  0.44752163  1  -0.046332  0  -0.078834  -0.118379  0  3.96457  0
C  C57  1  0.99999542  0.66932968  0.99999619  1  0.105862  0  -0.00491  -0.121346  0  3.856266  0
C  C58  1  0.33067146  0.00000285  0.00000485  1  0.105673  0  -0.004933  -0.12148  0  3.856059  0
C  C59  1  0.00001750  0.33067706  0.99999642  1  0.105302  0  -0.004803  -0.121605  0  3.855753  0
C  C60  1  0.66932623  0.99998152  0.00000381  1  0.105372  0  -0.004868  -0.121692  0  3.856222  0
C  C61  1  0.79131313  0.14593881  0.44750640  1  -0.138033  0  -0.079202  -0.11939  0  3.964943  0
C  C62  1  0.95382094  0.45389354  0.90775640  1  1.624153  0  0.207669  0.597212  0  4.206673  0
C  C63  1  0.45385327  0.95381910  0.90775567  1  1.616048  0  0.207725  0.597127  0  4.207394  0
C  C64  1  0.04618405  0.54614564  0.09224438  1  1.616109  0  0.207721  0.597142  0  4.207514  0
C  C65  1  0.54610505  0.04618281  0.09224386  1  1.62471  0  0.207683  0.597244  0  4.20672  0
C  C66  1  0.99999385  0.60860611  0.00000728  1  1.669532  0  0.220751  0.644948  0  4.271808  0
C  C67  1  0.85406143  0.20868805  0.55249376  1  -0.13796  0  -0.079251  -0.1195  0  3.96493  0
C  C68  1  0.39139471  0.00000499  0.99999537  1  1.670186  0  0.220891  0.645213  0  4.271643  0
C  C69  1  0.00000503  0.39140702  0.00000074  1  1.672369  0  0.220556  0.645876  0  4.271343  0
C  C70  1  0.60859356  0.99999179  0.99999968  1  1.672508  0  0.220559  0.645881  0  4.271277  0
C  C71  1  0.80166816  0.22705337  0.52605485  1  0.01349  0  0.00701  0.042465  0  3.974067  0
C  C72  1  0.29899485  0.80168558  0.52605791  1  0.057865  0  0.006381  0.042586  0  3.973242  0
C  C73  1  0.72436844  0.29898253  0.52605427  1  0.060254  0  0.006931  0.042814  0  3.973813  0
C  C74  1  0.22705074  0.72436746  0.52604867  1  -0.068624  0  0.006769  0.041907  0  3.97228  0
C  C75  1  0.19831285  0.70100486  0.47394126  1  0.057795  0  0.006304  0.042522  0  3.973313  0
C  C76  1  0.70101909  0.27563263  0.47394614  1  -0.017908  0  0.006941  0.042854  0  3.97371  0
C  C77  1  0.27563340  0.77294680  0.47395113  1  -0.068613  0  0.006798  0.041973  0  3.972345  0
C  C78  1  0.77294749  0.19833235  0.47394505  1  0.043134  0  0.006992  0.042354  0  3.974105  0
C  C79  1  0.77548549  0.27548724  0.55099710  1  0.066479  0  0.004572  0.000117  0  3.914115  0
C  C80  1  0.27550019  0.77549242  0.55099249  1  0.141231  0  0.005466  0.001626  0  3.912977  0
C  C81  1  0.22450796  0.72449878  0.44900684  1  0.14194  0  0.005516  0.001639  0  3.913136  0
C  C82  1  0.72451384  0.22451513  0.44900309  1  0.066586  0  0.004614  0.000241  0  3.914094  0
C  C83  1  0.99999868  0.10933135  0.99997368  1  1.675697  0  0.228397  0.658045  0  4.250313  0
C  C84  1  0.88017610  0.23536468  0.60228860  1  0.059858  0  -0.065705  -0.062569  0  3.958399  0
C  C85  1  0.36696968  0.88016574  0.60229387  1  -0.133884  0  -0.065428  -0.061438  0  3.958591  0
C  C86  1  0.72211153  0.36694549  0.60228147  1  -0.116589  0  -0.065161  -0.059832  0  3.958319  0
C  C87  1  0.23534674  0.72209054  0.60227649  1  -0.02025  0  -0.065649  -0.061624  0  3.958398  0
C  C88  1  0.11983255  0.63303086  0.39770550  1  -0.133721  0  -0.065445  -0.0615  0  3.958487  0
C  C89  1  0.89066917  0.99999896  0.00002632  1  1.675549  0  0.228407  0.657963  0  4.250677  0
C  C90  1  0.63305704  0.27789055  0.39771950  1  -0.116447  0  -0.065107  -0.059686  0  3.958178  0
C  C91  1  0.27791378  0.76464663  0.39772289  1  -0.020418  0  -0.065676  -0.06186  0  3.958586  0
C  C92  1  0.76463747  0.11982431  0.39771173  1  0.059946  0  -0.065727  -0.062614  0  3.958481  0
C  C93  1  0.00000211  0.89068883  0.00004317  1  1.688058  0  0.228119  0.657807  0  4.251074  0
C  C94  1  0.85386895  0.28065757  0.62725292  1  0.002716  0  -0.010986  -0.066957  0  3.993168  0
C  C95  1  0.34665413  0.85383936  0.62725395  1  -0.045567  0  -0.010586  -0.067944  0  3.995216  0
C  C96  1  0.77340027  0.34663333  0.62725102  1  0.017268  0  -0.010933  -0.069602  0  3.9956  0
C  C97  1  0.28065936  0.77336836  0.62724278  1  0.022674  0  -0.011292  -0.069219  0  3.99558  0
C  C98  1  0.14616058  0.65334513  0.37274567  1  -0.045603  0  -0.010588  -0.067942  0  3.995156  0
C  C99  1  0.65336926  0.22660070  0.37274936  1  0.017317  0  -0.010936  -0.069619  0  3.995607  0
C  C100  1  0.22663469  0.71933561  0.37275693  1  0.022988  0  -0.011321  -0.06926  0  3.995724  0
C  C101  1  0.71934472  0.14613224  0.37274722  1  0.003125  0  -0.010995  -0.067036  0  3.993147  0
C  C102  1  0.80103149  0.30103792  0.60206904  1  -0.105086  0  0.005385  0.040376  0  3.985671  0
C  C103  1  0.30105737  0.80101526  0.60206229  1  -0.078391  0  0.005407  0.040652  0  3.986841  0
C  C104  1  0.19898602  0.69894029  0.39793694  1  -0.078502  0  0.005448  0.040694  0  3.986923  0
C  C105  1  0.69896455  0.19897037  0.39793107  1  -0.105581  0  0.005334  0.040262  0  3.985878  0
C  C106  1  0.88210095  0.30732550  0.67987098  1  1.331909  0  0.230311  0.431149  0  4.133071  0
C  C107  1  0.37261433  0.88206309  0.67987060  1  1.394  0  0.230882  0.43147  0  4.131339  0
C  C108  1  0.79781537  0.37261243  0.67986896  1  1.333853  0  0.231273  0.433076  0  4.129458  0
C  C109  1  0.30731869  0.79777673  0.67986535  1  1.279054  0  0.23056  0.431232  0  4.130313  0
C  C110  1  0.11793572  0.62738421  0.32012877  1  1.394038  0  0.23087  0.431516  0  4.131343  0
C  C111  1  0.62738886  0.20218673  0.32012985  1  1.333343  0  0.231203  0.432989  0  4.129761  0
C  C112  1  0.20222541  0.69267691  0.32013379  1  1.278826  0  0.230559  0.431385  0  4.130376  0
C  C113  1  0.69267835  0.11789966  0.32012829  1  1.331937  0  0.230375  0.431306  0  4.132962  0
C  C114  1  0.86216988  0.34531527  0.77856821  1  -0.075669  0  -0.044575  -0.023003  0  3.851754  0
C  C115  1  0.43330835  0.86219562  0.77859709  1  -0.075375  0  -0.045606  -0.025993  0  3.855032  0
C  C116  1  0.91640270  0.43332042  0.77860348  1  -0.137939  0  -0.044969  -0.024497  0  3.852771  0
C  C117  1  0.34531890  0.91640009  0.77857232  1  -0.125386  0  -0.045235  -0.024788  0  3.853316  0
C  C118  1  0.13780529  0.56668931  0.22140218  1  -0.075436  0  -0.045595  -0.026059  0  3.855006  0
C  C119  1  0.56668220  0.08359826  0.22139753  1  -0.139444  0  -0.044964  -0.024501  0  3.852745  0
C  C120  1  0.08360284  0.65467969  0.22142779  1  -0.124663  0  -0.04529  -0.02491  0  3.853355  0
C  C121  1  0.65468660  0.13783156  0.22143169  1  -0.07572  0  -0.044676  -0.023205  0  3.851936  0
I  I122  1  0.79978902  0.26337263  0.73897859  1  0.160269  0  0.086631  0.006422  0  1.478876  0
I  I123  1  0.47566571  0.79977135  0.73904883  1  0.164503  0  0.086706  0.00694  0  1.479946  0
I  I124  1  0.93926880  0.47567392  0.73904693  1  0.160578  0  0.08649  0.006452  0  1.479353  0
I  I125  1  0.26341691  0.93924550  0.73899188  1  0.163625  0  0.086811  0.006859  0  1.479685  0
I  I126  1  0.20022907  0.52433153  0.26095016  1  0.164434  0  0.086664  0.006911  0  1.479935  0
I  I127  1  0.52433329  0.06072865  0.26095513  1  0.160436  0  0.086494  0.006457  0  1.479344  0
I  I128  1  0.06075695  0.73658192  0.26100873  1  0.162891  0  0.08683  0.006895  0  1.479732  0
I  I129  1  0.73662840  0.20021268  0.26102176  1  0.160225  0  0.086653  0.006465  0  1.478942  0
I  I130  1  0.87474502  0.32009776  0.86721201  1  0.172577  0  0.094014  0.022642  0  1.520089  0
I  I131  1  0.54712735  0.87476803  0.86727607  1  0.170847  0  0.094107  0.022492  0  1.520555  0
I  I132  1  0.99252215  0.54713645  0.86727564  1  0.170472  0  0.094  0.022384  0  1.521079  0
I  I133  1  0.32009302  0.99244069  0.86722030  1  0.173285  0  0.09409  0.022326  0  1.520006  0
I  I134  1  0.12523092  0.45286895  0.13272273  1  0.170896  0  0.094147  0.022563  0  1.520523  0
I  I135  1  0.45286558  0.00747886  0.13272492  1  0.170567  0  0.094021  0.022386  0  1.521082  0
I  I136  1  0.00756369  0.67990735  0.13278054  1  0.17319  0  0.094059  0.022282  0  1.519971  0
I  I137  1  0.67990174  0.12525821  0.13278784  1  0.172538  0  0.094021  0.022644  0  1.520023  0
N  N138  1  0.85138539  0.35139688  0.70272627  1  -1.239632  0  -0.251072  -0.247973  0  3.691817  0
N  N139  1  0.35140564  0.85134708  0.70272355  1  -1.224948  0  -0.251247  -0.247066  0  3.690503  0
N  N140  1  0.14865423  0.64859202  0.29727610  1  -1.224799  0  -0.251215  -0.247162  0  3.690432  0
N  N141  1  0.64860697  0.14861618  0.29727474  1  -1.239043  0  -0.251085  -0.24789  0  3.691638  0
O  O142  1  0.10570622  0.02182825  0.04081153  1  -1.121443  0  -0.30386  -0.533739  0  2.223582  0
O  O143  1  0.01897005  0.10571959  0.04082530  1  -1.11396  0  -0.304016  -0.533915  0  2.223916  0
O  O144  1  0.93512957  0.01899278  0.04088208  1  -1.123993  0  -0.304052  -0.533867  0  2.223001  0
O  O145  1  0.02185299  0.93515620  0.04089787  1  -1.128983  0  -0.303927  -0.533925  0  2.223142  0
O  O146  1  0.89428036  0.98102710  0.95917438  1  -1.11396  0  -0.303988  -0.533815  0  2.223943  0
O  O147  1  0.98100664  0.06486955  0.95911869  1  -1.124011  0  -0.304057  -0.533943  0  2.223017  0
O  O148  1  0.06484366  0.97814337  0.95910117  1  -1.128609  0  -0.30391  -0.533955  0  2.223091  0
O  O149  1  0.97816849  0.89429182  0.95918749  1  -1.121475  0  -0.303794  -0.533604  0  2.2237  0
O  O150  1  0.91685117  0.47396072  0.92812976  1  -1.144687  0  -0.307927  -0.538885  0  2.29157  0
O  O151  1  0.45413440  0.91682205  0.92809701  1  -1.138683  0  -0.308032  -0.538866  0  2.291065  0
O  O152  1  0.01115717  0.45416617  0.92811903  1  -1.147323  0  -0.308026  -0.539231  0  2.291445  0
O  O153  1  0.47394380  0.01116529  0.92814681  1  -1.145811  0  -0.307986  -0.539131  0  2.292526  0
O  O154  1  0.08318169  0.54586440  0.07190310  1  -1.138851  0  -0.308036  -0.538916  0  2.291125  0
O  O155  1  0.54583197  0.98884623  0.07188077  1  -1.147631  0  -0.308046  -0.539323  0  2.291556  0
O  O156  1  0.98883879  0.52605541  0.07185385  1  -1.145657  0  -0.307951  -0.539098  0  2.292674  0
O  O157  1  0.52603743  0.08315385  0.07187146  1  -1.144874  0  -0.307927  -0.538847  0  2.291566  0
O  O158  1  0.95512909  0.58780053  0.00619788  1  -1.118751  0  -0.303514  -0.534406  0  2.268934  0
O  O159  1  0.41839544  0.95514488  0.00617785  1  -1.125059  0  -0.30412  -0.535455  0  2.269857  0
O  O160  1  0.05104516  0.41841080  0.00616846  1  -1.118902  0  -0.303881  -0.535375  0  2.269599  0
O  O161  1  0.58779005  0.05104368  0.00616614  1  -1.125404  0  -0.303735  -0.535426  0  2.269457  0
O  O162  1  0.04485503  0.58160475  0.99382449  1  -1.124926  0  -0.304109  -0.535416  0  2.269949  0
O  O163  1  0.58158949  0.94895115  0.99383059  1  -1.119078  0  -0.303775  -0.535246  0  2.269658  0
O  O164  1  0.94895279  0.41220982  0.99383524  1  -1.125544  0  -0.303666  -0.535281  0  2.269399  0
O  O165  1  0.41219942  0.04487021  0.99380462  1  -1.119202  0  -0.303617  -0.534529  0  2.268927  0
O  O166  1  0.92917485  0.29311611  0.70351545  1  -1.099059  0  -0.28062  -0.432015  0  2.074911  0
O  O167  1  0.41046333  0.92915409  0.70351981  1  -1.110644  0  -0.281316  -0.432326  0  2.072844  0
O  O168  1  0.77440390  0.41047836  0.70351418  1  -1.099162  0  -0.281821  -0.43323  0  2.072842  0
O  O169  1  0.29309508  0.77435850  0.70350179  1  -1.103327  0  -0.280767  -0.431747  0  2.073041  0
O  O170  1  0.07084558  0.58953794  0.29648043  1  -1.110693  0  -0.281298  -0.432299  0  2.072994  0
O  O171  1  0.58952578  0.22559560  0.29648721  1  -1.09916  0  -0.28173  -0.433143  0  2.073294  0
O  O172  1  0.22564446  0.70690107  0.29649850  1  -1.103312  0  -0.280789  -0.431812  0  2.073232  0
O  O173  1  0.70688841  0.07082891  0.29648517  1  -1.099118  0  -0.280636  -0.43209  0  2.074897  0
