# generated using pymatgen
data_Zn3Ag6H50C42S6(N3O4)4
_symmetry_space_group_name_H-M   'P 1'
_cell_length_a   12.34165575
_cell_length_b   12.24933971
_cell_length_c   13.55900000
_cell_angle_alpha   85.68577729
_cell_angle_beta   63.59836897
_cell_angle_gamma   60.22031130
_symmetry_Int_Tables_number   1
_chemical_formula_structural   Zn3Ag6H50C42S6(N3O4)4
_chemical_formula_sum   'Zn3 Ag6 H50 C42 S6 N12 O16'
_cell_volume   1565.34641682
_cell_formula_units_Z   1
loop_
 _symmetry_equiv_pos_site_id
 _symmetry_equiv_pos_as_xyz
  1  'x, y, z'
loop_
 _atom_site_type_symbol
 _atom_site_label
 _atom_site_symmetry_multiplicity
 _atom_site_fract_x
 _atom_site_fract_y
 _atom_site_fract_z
 _atom_site_occupancy
 _atom_site_pbe_bader_charge
 _atom_site_pbe_bader_spin_density
 _atom_site_pbe_cm5_charge
 _atom_site_pbe_ddec_charge
 _atom_site_pbe_ddec_spin_density
 _atom_site_pbe_ddec_sum_bond_order
 _atom_site_pbe_magmom
Zn  Zn0  1  0.00000206  0.49999962  0.49999875  1  1.226076  0  0.673602  0.779906  0  2.234732  0
Zn  Zn1  1  0.70863174  0.16107392  0.52025303  1  1.288919  0  0.696819  0.952266  0  2.170755  0
Zn  Zn2  1  0.29137293  0.83892436  0.47975176  1  1.289023  0  0.696813  0.952224  0  2.170697  0
Ag  Ag3  1  0.48006934  0.84583103  0.10879138  1  0.387296  0  0.322206  0.200332  0  2.509143  0
Ag  Ag4  1  0.51992554  0.15417012  0.89121054  1  0.387329  0  0.322229  0.200386  0  2.509194  0
Ag  Ag5  1  0.42014190  0.92647619  0.91480956  1  0.381196  0  0.31805  0.182863  0  2.541277  0
Ag  Ag6  1  0.57985696  0.07352592  0.08518700  1  0.381224  0  0.318056  0.182846  0  2.541328  0
Ag  Ag7  1  0.73186490  0.83212876  0.92787098  1  0.372743  0  0.330197  0.190203  0  2.569171  0
Ag  Ag8  1  0.26813157  0.16787909  0.07212542  1  0.372669  0  0.330242  0.190265  0  2.569098  0
H  H9  1  0.02870988  0.61842320  0.90300500  1  0.092101  0  0.111945  0.084424  0  0.982198  0
H  H10  1  0.97129166  0.38158369  0.09698498  1  0.092403  0  0.111956  0.084459  0  0.982241  0
H  H11  1  0.14749018  0.51111846  0.02053211  1  0.077563  0  0.101764  0.110146  0  1.037098  0
H  H12  1  0.85251408  0.48888843  0.97945604  1  0.077525  0  0.101836  0.110228  0  1.037009  0
H  H13  1  0.00695678  0.58616303  0.22955966  1  0.156245  0  0.105407  0.120882  0  1.038287  0
H  H14  1  0.99304912  0.41384099  0.77042949  1  0.156257  0  0.10541  0.12091  0  1.038154  0
H  H15  1  0.86973422  0.84741191  0.62531186  1  0.075231  0  0.086849  0.074897  0  1.033375  0
H  H16  1  0.13026211  0.15258828  0.37469322  1  0.075306  0  0.086872  0.074901  0  1.033367  0
H  H17  1  0.00539171  0.76104742  0.48892892  1  0.074816  0  0.104552  0.088257  0  0.989101  0
H  H18  1  0.99460479  0.23895565  0.51107516  1  0.074766  0  0.104569  0.088286  0  0.989029  0
H  H19  1  0.09097549  0.70002781  0.63211551  1  0.020118  0  0.087698  0.054043  0  1.013433  0
H  H20  1  0.90902411  0.29997143  0.36788684  1  0.020141  0  0.08771  0.054079  0  1.013396  0
H  H21  1  0.96705062  0.65071880  0.70489513  1  0.03312  0  0.091161  0.067472  0  1.016891  0
H  H22  1  0.03294808  0.34928043  0.29510833  1  0.033181  0  0.091183  0.067525  0  1.016903  0
H  H23  1  0.66135297  0.41956415  0.45375383  1  0.051134  0  0.110098  0.085715  0  0.982868  0
H  H24  1  0.33865244  0.58043125  0.54625086  1  0.051157  0  0.110081  0.085683  0  0.982901  0
H  H25  1  0.53691223  0.46796159  0.59738132  1  0.049208  0  0.110078  0.091654  0  0.967907  0
H  H26  1  0.46309283  0.53203285  0.40262284  1  0.049418  0  0.110094  0.091666  0  0.967929  0
H  H27  1  0.22305855  0.84089208  0.88438232  1  0.091385  0  0.114925  0.085302  0  0.975976  0
H  H28  1  0.77693798  0.15910619  0.11562355  1  0.091314  0  0.1149  0.085272  0  0.975914  0
H  H29  1  0.00681191  0.83022232  0.00369280  1  0.085277  0  0.103501  0.113136  0  1.025296  0
H  H30  1  0.99319098  0.16977117  0.99631451  1  0.08502  0  0.103482  0.113133  0  1.02518  0
H  H31  1  0.87978542  0.91261976  0.21293288  1  0.130458  0  0.106171  0.114655  0  1.030736  0
H  H32  1  0.12021744  0.08737852  0.78707338  1  0.130453  0  0.1062  0.114711  0  1.0307  0
H  H33  1  0.52442226  0.57752419  0.17451858  1  0.059971  0  0.10968  0.083886  0  1.00157  0
H  H34  1  0.47557211  0.42247313  0.82548381  1  0.060011  0  0.109671  0.083844  0  1.00163  0
H  H35  1  0.62223991  0.35630297  0.08500908  1  0.081405  0  0.102948  0.107189  0  1.025345  0
H  H36  1  0.37775426  0.64369627  0.91499252  1  0.081488  0  0.102932  0.107137  0  1.02536  0
H  H37  1  0.73386033  0.30329310  0.87493615  1  0.09804  0  0.106596  0.108544  0  1.005934  0
H  H38  1  0.26613510  0.69670709  0.12506488  1  0.098087  0  0.106606  0.108552  0  1.005922  0
H  H39  1  0.81872961  0.74613292  0.50696253  1  0.429976  0  0.292618  0.281142  0  0.965047  0
H  H40  1  0.18127089  0.25386632  0.49304020  1  0.429937  0  0.292604  0.281147  0  0.965095  0
H  H41  1  0.77801843  0.71390913  0.63507745  1  0.414848  0  0.270444  0.264534  0  1.00418  0
H  H42  1  0.22198227  0.28608819  0.36492386  1  0.414489  0  0.270448  0.264509  0  1.00422  0
H  H43  1  0.17932133  0.46063169  0.58341341  1  0.458626  0  0.279903  0.278681  0  0.998719  0
H  H44  1  0.82067899  0.53936945  0.41658779  1  0.458604  0  0.279916  0.278705  0  0.998602  0
H  H45  1  0.20055124  0.53454158  0.47327826  1  0.451083  0  0.278929  0.267108  0  1.011744  0
H  H46  1  0.79944726  0.46545957  0.52672440  1  0.451028  0  0.278924  0.267113  0  1.011722  0
H  H47  1  0.56317516  0.30087534  0.43116466  1  0.426057  0  0.313512  0.302853  0  0.900215  0
H  H48  1  0.43683352  0.69911911  0.56883730  1  0.425993  0  0.313482  0.302821  0  0.900199  0
H  H49  1  0.44877775  0.33810701  0.56324798  1  0.480026  0  0.290891  0.301008  0  0.977836  0
H  H50  1  0.55122421  0.66189127  0.43675275  1  0.480033  0  0.290936  0.301061  0  0.977803  0
H  H51  1  0.57156347  0.04612809  0.61893947  1  0.603773  0  0.269556  0.361049  0  0.983372  0
H  H52  1  0.42843959  0.95386827  0.38105652  1  0.604234  0  0.269579  0.361044  0  0.983391  0
H  H53  1  0.68089882  0.96586422  0.48939105  1  0.673639  0  0.292847  0.406456  0  0.925282  0
H  H54  1  0.31910185  0.03413789  0.51060404  1  0.673584  0  0.292812  0.406373  0  0.925332  0
H  H55  1  0.73554606  0.29329839  0.64678723  1  0.647943  0  0.29359  0.40002  0  0.936056  0
H  H56  1  0.26445448  0.70669605  0.35322097  1  0.647891  0  0.293603  0.400055  0  0.936002  0
H  H57  1  0.84610808  0.14134017  0.62657317  1  0.669223  0  0.29102  0.402711  0  0.935616  0
H  H58  1  0.15389860  0.85865619  0.37342725  1  0.669127  0  0.291036  0.402694  0  0.935613  0
C  C59  1  0.97184222  0.64698730  0.99405826  1  0.410298  0  0.032105  0.074186  0  4.006413  0
C  C60  1  0.02815932  0.35301959  0.00593246  1  0.410284  0  0.032115  0.074081  0  4.006486  0
C  C61  1  0.03715937  0.58797180  0.05968106  1  0.005302  0  -0.098169  -0.143404  0  4.03318  0
C  C62  1  0.96284706  0.41203605  0.94030541  1  0.005034  0  -0.098219  -0.143422  0  4.033305  0
C  C63  1  0.95805998  0.62918010  0.17557782  1  -0.050444  0  -0.07817  -0.06819  0  3.933241  0
C  C64  1  0.04194502  0.37082392  0.82441465  1  -0.050652  0  -0.07812  -0.068117  0  3.933056  0
C  C65  1  0.81673969  0.72912334  0.22273687  1  -0.001981  0  -0.014641  -0.10185  0  3.91748  0
C  C66  1  0.18326369  0.27087877  0.77725344  1  -0.001779  0  -0.014749  -0.101968  0  3.91741  0
C  C67  1  0.75736780  0.78331767  0.15056970  1  0.376348  0  0.10368  0.213977  0  3.995867  0
C  C68  1  0.24263578  0.21668252  0.84942360  1  0.376943  0  0.103668  0.213884  0  3.995945  0
C  C69  1  0.73538586  0.77812689  0.34840411  1  1.645457  0  0.199982  0.597519  0  4.265237  0
C  C70  1  0.26461106  0.22186755  0.65159080  1  1.645722  0  0.199867  0.597345  0  4.264987  0
C  C71  1  0.93962430  0.75184746  0.57224038  1  0.261003  0  -0.08209  -0.008972  0  3.886424  0
C  C72  1  0.06037385  0.24815273  0.42776397  1  0.260957  0  -0.082142  -0.008936  0  3.886377  0
C  C73  1  0.03353805  0.65969469  0.62136722  1  0.30229  0  -0.081964  -0.007425  0  3.937674  0
C  C74  1  0.96646191  0.34030550  0.37863493  1  0.302282  0  -0.081993  -0.00756  0  3.937669  0
C  C75  1  0.55332770  0.44302270  0.51360337  1  0.303251  0  -0.070719  -0.008507  0  3.900646  0
C  C76  1  0.44667717  0.55697366  0.48639999  1  0.275699  0  -0.070717  -0.008496  0  3.900755  0
C  C77  1  0.16813517  0.87037446  0.97534434  1  0.4183  0  0.040787  0.089388  0  3.996696  0
C  C78  1  0.83186459  0.12962765  0.02465702  1  0.418299  0  0.040812  0.089487  0  3.996703  0
C  C79  1  0.04750206  0.86510325  0.04181337  1  0.04677  0  -0.097395  -0.143404  0  4.015822  0
C  C80  1  0.95249447  0.13489503  0.95819251  1  0.047029  0  -0.097339  -0.14331  0  4.015716  0
C  C81  1  0.97707514  0.91124474  0.15668358  1  -0.045714  0  -0.070139  -0.051559  0  3.935884  0
C  C82  1  0.02292443  0.08875928  0.84331994  1  -0.046133  0  -0.070184  -0.051734  0  3.935737  0
C  C83  1  0.03229899  0.95722442  0.20133657  1  0.001722  0  -0.016077  -0.108234  0  3.927288  0
C  C84  1  0.96769583  0.04278631  0.79866251  1  0.002243  0  -0.016048  -0.108143  0  3.927479  0
C  C85  1  0.15792680  0.95580823  0.12924043  1  0.386115  0  0.102473  0.204227  0  4.03385  0
C  C86  1  0.84206874  0.04420441  0.87075749  1  0.385789  0  0.102504  0.204247  0  4.033909  0
C  C87  1  0.95317857  0.01119737  0.32444368  1  1.601475  0  0.21728  0.618276  0  4.180639  0
C  C88  1  0.04682717  0.98880378  0.67556269  1  1.600436  0  0.217149  0.618073  0  4.180455  0
C  C89  1  0.57869649  0.54903094  0.08358245  1  0.476015  0  0.034834  0.082848  0  3.988193  0
C  C90  1  0.42129824  0.45096734  0.91642121  1  0.476266  0  0.034874  0.082919  0  3.988362  0
C  C91  1  0.63304665  0.42610888  0.03335557  1  -0.027535  0  -0.097627  -0.147905  0  4.030039  0
C  C92  1  0.36695078  0.57388940  0.96664478  1  -0.027762  0  -0.097656  -0.147858  0  4.029973  0
C  C93  1  0.69397859  0.39765872  0.91698864  1  0.005684  0  -0.069223  -0.044441  0  3.953168  0
C  C94  1  0.30601920  0.60234051  0.08301297  1  -0.011892  0  -0.069213  -0.044415  0  3.953068  0
C  C95  1  0.70308474  0.49076902  0.85352070  1  -0.053085  0  -0.012455  -0.107256  0  3.904877  0
C  C96  1  0.29691686  0.50922830  0.14648023  1  -0.035493  0  -0.012422  -0.107294  0  3.904946  0
C  C97  1  0.64779367  0.61321136  0.91074261  1  0.433128  0  0.107025  0.213508  0  3.998108  0
C  C98  1  0.35220357  0.38678883  0.08926063  1  0.432982  0  0.106974  0.21353  0  3.998028  0
C  C99  1  0.77216586  0.45980822  0.72672911  1  1.616858  0  0.21161  0.605807  0  4.202104  0
C  C100  1  0.22783807  0.54019293  0.27327210  1  1.616931  0  0.211568  0.605721  0  4.202237  0
S  S101  1  0.58018177  0.90816054  0.20360908  1  -0.284479  0  -0.221137  -0.332418  0  2.987299  0
S  S102  1  0.41982019  0.09183774  0.79638574  1  -0.284484  0  -0.221154  -0.33243  0  2.987292  0
S  S103  1  0.22851384  0.01199786  0.18467032  1  -0.226607  0  -0.224305  -0.29539  0  3.037306  0
S  S104  1  0.77148188  0.98801286  0.81532913  1  -0.226437  0  -0.224287  -0.295359  0  3.037363  0
S  S105  1  0.65771050  0.73415804  0.83639413  1  -0.252597  0  -0.224552  -0.313851  0  3.031025  0
S  S106  1  0.34228639  0.26584120  0.16360932  1  -0.25244  0  -0.224538  -0.313819  0  3.030965  0
N  N107  1  0.83527805  0.74134143  0.03807101  1  -1.228146  0  -0.354003  -0.241456  0  3.572676  0
N  N108  1  0.16472369  0.25866355  0.96192050  1  -1.228555  0  -0.353996  -0.241349  0  3.572585  0
N  N109  1  0.22267696  0.91396413  0.01727709  1  -1.226741  0  -0.351722  -0.246687  0  3.56231  0
N  N110  1  0.77731825  0.08604276  0.98272430  1  -1.226574  0  -0.351729  -0.246765  0  3.562187  0
N  N111  1  0.58490988  0.64065228  0.02421268  1  -1.215022  0  -0.352431  -0.247694  0  3.568362  0
N  N112  1  0.41508610  0.35934696  0.97578818  1  -1.215148  0  -0.352445  -0.247756  0  3.568409  0
N  N113  1  0.86034709  0.70024421  0.55869973  1  -1.128162  0  -0.627085  -0.546146  0  3.363851  0
N  N114  1  0.13965341  0.29975503  0.44130152  1  -1.127803  0  -0.627099  -0.54621  0  3.364051  0
N  N115  1  0.12726824  0.53242161  0.54868571  1  -1.196746  0  -0.635688  -0.575939  0  3.383345  0
N  N116  1  0.87273226  0.46757762  0.45131628  1  -1.196697  0  -0.635669  -0.575911  0  3.383144  0
N  N117  1  0.54672072  0.32617426  0.50912448  1  -1.147942  0  -0.614647  -0.580935  0  3.366095  0
N  N118  1  0.45328288  0.67382115  0.49087873  1  -1.147867  0  -0.614586  -0.580881  0  3.366132  0
O  O119  1  0.68061096  0.71792693  0.41052587  1  -1.207296  0  -0.343514  -0.600615  0  2.151425  0
O  O120  1  0.31938951  0.28207709  0.58946179  1  -1.207487  0  -0.343464  -0.600542  0  2.150893  0
O  O121  1  0.73669194  0.87256241  0.37979084  1  -1.188297  0  -0.323075  -0.565124  0  2.151354  0
O  O122  1  0.26330598  0.12744448  0.62020208  1  -1.188508  0  -0.322976  -0.564976  0  2.151668  0
O  O123  1  0.83217502  0.11571856  0.35578345  1  -1.173122  0  -0.335902  -0.584143  0  2.269745  0
O  O124  1  0.16782049  0.88429887  0.64422154  1  -1.173025  0  -0.335826  -0.583973  0  2.270151  0
O  O125  1  0.66272623  0.02350068  0.55242741  1  -1.255236  0  -0.565099  -0.741801  0  2.175751  0
O  O126  1  0.33727899  0.97649664  0.44756542  1  -1.255684  0  -0.565059  -0.74169  0  2.175752  0
O  O127  1  0.99870876  0.95603421  0.39120425  1  -1.178044  0  -0.29841  -0.534469  0  2.194536  0
O  O128  1  0.00128788  0.04397652  0.60878525  1  -1.177315  0  -0.298397  -0.534505  0  2.193834  0
O  O129  1  0.71279812  0.43290064  0.68366515  1  -1.208741  0  -0.337817  -0.601674  0  2.159395  0
O  O130  1  0.28720132  0.56709572  0.31633673  1  -1.208841  0  -0.337741  -0.601551  0  2.1596  0
O  O131  1  0.88445375  0.46283019  0.67390562  1  -1.180399  0  -0.308061  -0.538222  0  2.256314  0
O  O132  1  0.11554349  0.53717001  0.32609541  1  -1.180493  0  -0.308088  -0.538247  0  2.256175  0
O  O133  1  0.75172480  0.20659877  0.62930989  1  -1.274408  0  -0.574539  -0.783519  0  2.162541  0
O  O134  1  0.24827845  0.79339568  0.37069647  1  -1.274284  0  -0.574536  -0.783534  0  2.162508  0
