# generated using pymatgen
data_CuH7C10N5O6
_symmetry_space_group_name_H-M   'P 1'
_cell_length_a   7.78310303
_cell_length_b   8.57937358
_cell_length_c   10.82207835
_cell_angle_alpha   92.97125830
_cell_angle_beta   96.77792766
_cell_angle_gamma   100.73910066
_symmetry_Int_Tables_number   1
_chemical_formula_structural   CuH7C10N5O6
_chemical_formula_sum   'Cu2 H14 C20 N10 O12'
_cell_volume   702.99529533
_cell_formula_units_Z   2
loop_
 _symmetry_equiv_pos_site_id
 _symmetry_equiv_pos_as_xyz
  1  'x, y, z'
loop_
 _atom_site_type_symbol
 _atom_site_label
 _atom_site_symmetry_multiplicity
 _atom_site_fract_x
 _atom_site_fract_y
 _atom_site_fract_z
 _atom_site_occupancy
 _atom_site_hle17_ddec_charge
 _atom_site_hle17_ddec_spin_density
 _atom_site_hle17_ddec_sum_bond_order
 _atom_site_hle17_magmom
 _atom_site_hse06_10hf_ddec_charge
 _atom_site_hse06_10hf_ddec_spin_density
 _atom_site_hse06_10hf_ddec_sum_bond_order
 _atom_site_hse06_10hf_magmom
 _atom_site_hse06_ddec_charge
 _atom_site_hse06_ddec_spin_density
 _atom_site_hse06_ddec_sum_bond_order
 _atom_site_hse06_magmom
 _atom_site_pbe_cm5_charge
 _atom_site_pbe_ddec_charge
 _atom_site_pbe_ddec_spin_density
 _atom_site_pbe_ddec_sum_bond_order
 _atom_site_pbe_magmom
Cu  Cu0  1  0.90591250  0.87037548  0.03564557  1  0.846292  0.674841  1.900835  0.487  0.83555  0.80001  2.313577  0.635  0.936773  0.88944  2.231711  0.735  0.696722  0.769731  0.695867  2.372608  0.541
Cu  Cu1  1  0.09410177  0.12959371  0.96434467  1  0.846146  -0.674768  1.900037  -0.487  0.835437  -0.799969  2.312609  -0.635  0.936894  -0.889428  2.230554  -0.735  0.6965  0.76965  -0.695846  2.371566  -0.54
H  H2  1  0.10539949  0.90732311  0.42175567  1  0.118476  0.000235  0.931496  0.0  0.127017  0.000183  0.989798  0.0  0.130755  0.000116  0.987663  0.0  0.112269  0.12437  0.000227  0.99142  0.0
H  H3  1  0.89461369  0.09269253  0.57823974  1  0.118478  -0.000233  0.931351  0.0  0.126998  -0.000183  0.989663  0.0  0.130754  -0.000116  0.987535  0.0  0.112222  0.124351  -0.000227  0.991281  0.0
H  H4  1  0.39602932  0.34060187  0.30813361  1  0.114246  -0.000282  0.951899  0.0  0.118378  -0.000244  1.020365  0.0  0.12219  -0.000158  1.017646  0.0  0.109606  0.115666  -0.000299  1.022513  0.0
H  H5  1  0.60396630  0.65941043  0.69185897  1  0.114411  0.000284  0.951877  0.0  0.118541  0.000244  1.020311  0.0  0.122349  0.000158  1.017602  0.0  0.109626  0.115831  0.0003  1.022454  0.0
H  H6  1  0.57352368  0.39400305  0.52302982  1  0.109718  7.6e-05  0.958978  0.0  0.117438  6.6e-05  1.021458  0.0  0.12051  4.3e-05  1.020085  0.0  0.110172  0.115269  8.1e-05  1.022493  0.0
H  H7  1  0.42647849  0.60602599  0.47695968  1  0.109589  -7.7e-05  0.959204  0.0  0.117342  -6.6e-05  1.021655  0.0  0.120412  -4.3e-05  1.020282  0.0  0.110162  0.115178  -8.2e-05  1.02269  0.0
H  H8  1  0.27651934  0.96615184  0.63879709  1  0.120195  -3.6e-05  0.928834  0.0  0.12802  -3.6e-05  0.987628  0.0  0.131894  -1.6e-05  0.985271  0.0  0.114816  0.125149  -7.4e-05  0.989559  0.0
H  H9  1  0.72348993  0.03385790  0.36119670  1  0.120243  3.1e-05  0.92866  0.0  0.128091  3.7e-05  0.98748  0.0  0.131968  1.6e-05  0.985113  0.0  0.114829  0.125218  7.4e-05  0.989414  0.0
H  H10  1  0.46311955  0.81827263  0.86219295  1  0.134381  0.000889  0.91929  0.001  0.143749  0.00058  0.983069  0.001  0.146244  0.000383  0.981573  0.0  0.126031  0.141692  0.000672  0.984605  0.001
H  H11  1  0.53691639  0.18170684  0.13785083  1  0.13446  -0.000895  0.919216  -0.001  0.143824  -0.00058  0.98303  -0.001  0.146332  -0.000382  0.981531  0.0  0.126011  0.141769  -0.000671  0.984552  -0.001
H  H12  1  0.47229176  0.76167724  0.01746896  1  0.148064  -0.000111  0.920669  0.0  0.148409  1.9e-05  0.997243  0.0  0.151065  2.4e-05  0.995423  0.0  0.134398  0.14633  1.4e-05  0.998916  0.0
H  H13  1  0.52768116  0.23829927  0.98252959  1  0.148125  0.000102  0.920577  0.0  0.148527  -1.9e-05  0.997063  0.0  0.151196  -2.4e-05  0.995242  0.0  0.134446  0.146444  -1.3e-05  0.998737  0.0
H  H14  1  0.26345108  0.60085127  0.68491512  1  0.110622  3.4e-05  0.913196  0.0  0.127818  9e-06  0.962804  0.0  0.130278  9e-06  0.960713  0.0  0.149181  0.125961  9e-06  0.964466  0.0
H  H15  1  0.73656074  0.39913084  0.31508389  1  0.110587  -3.4e-05  0.913238  0.0  0.127759  -9e-06  0.96287  0.0  0.130217  -9e-06  0.960784  0.0  0.149151  0.125908  -9e-06  0.964527  0.0
C  C16  1  0.23803489  0.84692780  0.95594660  1  0.675233  -0.000477  3.832134  0.0  0.636799  -0.000238  4.144005  0.0  0.677532  -0.00018  4.137851  0.0  0.217598  0.608879  -0.000273  4.147922  0.0
C  C17  1  0.76195842  0.15304138  0.04405080  1  0.675475  0.000472  3.831766  0.0  0.637018  0.000241  4.143641  0.0  0.67777  0.000179  4.137471  0.0  0.217678  0.6091  0.000278  4.147562  0.0
C  C18  1  0.20790154  0.01349094  0.44545805  1  -0.059641  -0.000763  3.689829  -0.001  -0.08294  -0.000496  3.939914  -0.001  -0.084064  -0.000351  3.960181  -0.001  -0.074667  -0.082368  -0.000576  3.926077  -0.001
C  C19  1  0.79211522  0.98651948  0.55455223  1  -0.059364  0.000705  3.689278  0.001  -0.082632  0.000498  3.939308  0.001  -0.083774  0.000351  3.959592  0.001  -0.074615  -0.082061  0.000577  3.925461  0.001
C  C20  1  0.15236101  0.07926884  0.22195696  1  0.631035  0.000585  3.874778  0.001  0.592173  0.000346  4.173097  0.001  0.633769  0.00038  4.16658  0.001  0.212662  0.563836  0.000267  4.1768  0.001
C  C21  1  0.84761148  0.92068961  0.77804704  1  0.631693  -0.000575  3.874293  -0.001  0.592624  -0.000341  4.172857  -0.001  0.634229  -0.000374  4.166316  -0.001  0.212812  0.564286  -0.000259  4.176552  -0.001
C  C22  1  0.37363382  0.25804688  0.38039654  1  -0.068949  0.000621  3.715173  0.001  -0.092485  0.000409  3.967549  0.001  -0.093236  0.000311  3.987456  0.001  -0.081332  -0.092166  0.000458  3.954421  0.001
C  C23  1  0.62633639  0.74196604  0.61958153  1  -0.069278  -0.000672  3.715947  -0.001  -0.092779  -0.000406  3.968271  -0.001  -0.093532  -0.000313  3.988184  -0.001  -0.081327  -0.092459  -0.000458  3.955129  -0.001
C  C24  1  0.47016676  0.28893166  0.49846364  1  -0.117557  0.000674  3.759117  0.001  -0.141422  0.000396  4.01548  0.0  -0.144169  0.000259  4.037302  0.0  -0.085503  -0.13959  0.000445  4.000805  0.0
C  C25  1  0.52980715  0.71110373  0.50152156  1  -0.117361  -0.000627  3.759507  -0.001  -0.141307  -0.000397  4.015868  0.0  -0.14405  -0.000258  4.037697  0.0  -0.085561  -0.139481  -0.000445  4.001195  0.0
C  C26  1  0.30286823  0.04421172  0.56434113  1  -0.081702  -0.000661  3.70711  -0.001  -0.108643  -0.000444  3.969834  -0.001  -0.109803  -0.000295  3.98901  0.0  -0.071567  -0.107423  -0.000513  3.956582  -0.001
C  C27  1  0.69713071  0.95581683  0.43566744  1  -0.081872  0.00073  3.706769  0.001  -0.108917  0.000444  3.969552  0.001  -0.110078  0.000295  3.988742  0.0  -0.07156  -0.107696  0.000513  3.956299  0.001
C  C28  1  0.38505574  0.75837931  0.92982279  1  -0.165812  0.000385  3.578877  0.0  -0.23842  0.000283  3.819713  0.0  -0.242202  0.000198  3.824297  0.0  -0.040654  -0.234617  0.000287  3.816682  0.0
C  C29  1  0.61492695  0.24159567  0.07018497  1  -0.165879  -0.000359  3.578137  0.0  -0.238463  -0.000283  3.818763  0.0  -0.242305  -0.000198  3.823416  0.0  -0.040694  -0.234663  -0.000289  3.81573  0.0
C  C30  1  0.24497973  0.11861076  0.35279813  1  -0.023259  -0.000401  3.699869  0.0  -0.006087  -0.000321  3.931024  0.0  -0.012857  -0.000237  3.951155  0.0  -0.002868  -0.000775  -0.000338  3.917427  0.0
C  C31  1  0.75502218  0.88136193  0.64719939  1  -0.023633  0.000445  3.700301  0.0  -0.006324  0.000315  3.931384  0.0  -0.013103  0.000238  3.951527  0.0  -0.002906  -0.001005  0.000333  3.917764  0.0
C  C32  1  0.26056689  0.53201386  0.76612341  1  0.123031  -0.000488  3.677695  0.0  0.055271  -0.000412  3.939735  0.0  0.06458  -0.000309  3.950406  0.0  0.168489  0.049355  -0.0005  3.932475  0.0
C  C33  1  0.73946218  0.46800581  0.23389413  1  0.123172  0.000504  3.677427  0.0  0.055426  0.000412  3.939475  0.0  0.064733  0.00031  3.950158  0.0  0.168595  0.049504  0.000501  3.932218  0.0
C  C34  1  0.43456257  0.18041353  0.58802460  1  0.074327  -6e-05  3.731684  0.0  0.066187  3e-06  3.989552  0.0  0.064436  1e-05  4.013587  0.0  0.079825  0.067121  1.8e-05  3.973411  0.0
C  C35  1  0.56544196  0.81960842  0.41196105  1  0.074704  8e-06  3.731255  0.0  0.066635  -3e-06  3.9891  0.0  0.064879  -1.3e-05  4.013147  0.0  0.080007  0.067568  -1.7e-05  3.972955  0.0
N  N36  1  0.22856869  0.34676234  0.88907185  1  -0.068458  0.000666  3.08332  0.0  -0.053666  0.000532  3.422579  0.0  -0.064007  0.000607  3.432524  0.0  -0.091108  -0.047129  0.000402  3.417143  0.0
N  N37  1  0.77143995  0.65323411  0.11092762  1  -0.068513  -0.000632  3.08315  0.0  -0.053678  -0.000534  3.42238  0.0  -0.063975  -0.000601  3.432291  0.0  -0.091107  -0.047146  -0.000403  3.416976  0.0
N  N38  1  0.31781702  0.59388371  0.88438473  1  0.063231  -0.001146  3.576577  -0.002  0.180721  -0.00038  3.764155  -0.001  0.173949  -0.000216  3.782093  0.0  -0.109207  0.184725  -0.000479  3.752012  -0.001
N  N39  1  0.68219912  0.40610851  0.11563652  1  0.062981  0.001135  3.575751  0.002  0.1805  0.000381  3.763364  0.001  0.173735  0.000214  3.781311  0.0  -0.109308  0.184512  0.00048  3.751227  0.001
N  N40  1  0.29612104  0.47552092  0.96102432  1  -0.043692  0.000403  2.795304  0.0  -0.0673  0.00022  3.074332  0.0  -0.061278  0.000228  3.082434  0.0  -0.054451  -0.071135  0.000235  3.069135  0.0
N  N41  1  0.70389291  0.52446670  0.03899092  1  -0.043623  -0.000434  2.795176  0.0  -0.067298  -0.000219  3.074286  0.0  -0.061277  -0.000232  3.082367  0.0  -0.05443  -0.071123  -0.000235  3.069093  0.0
N  N42  1  0.54139174  0.21154420  0.71096960  1  0.49889  8.9e-05  3.892764  0.0  0.523488  2.3e-05  4.198274  0.0  0.543936  3.2e-05  4.20683  0.0  0.057404  0.509779  -4.1e-05  4.192475  0.0
N  N43  1  0.45861336  0.78848016  0.28901532  1  0.498767  -7.9e-05  3.893051  0.0  0.523302  -2.3e-05  4.198625  0.0  0.543736  -2.8e-05  4.207204  0.0  0.05736  0.509592  4.1e-05  4.192834  0.0
N  N44  1  0.20438144  0.37686222  0.76655941  1  -0.227384  -3.3e-05  2.896004  0.0  -0.211862  7.8e-05  3.187947  0.0  -0.217753  0.000141  3.199882  0.0  -0.216274  -0.207989  7e-06  3.180069  0.0
N  N45  1  0.79564332  0.62316014  0.23344861  1  -0.227356  1.8e-05  2.895821  0.0  -0.211855  -7.9e-05  3.187775  0.0  -0.217751  -0.00014  3.199697  0.0  -0.216309  -0.207973  -5e-06  3.179901  0.0
O  O46  1  0.20364514  0.17464018  0.14143706  1  -0.55333  -0.079037  2.091335  -0.104  -0.530111  -0.054512  2.367994  -0.079  -0.574183  -0.043037  2.360959  -0.066  -0.305068  -0.501131  -0.057071  2.37314  -0.079
O  O47  1  0.79635935  0.82535409  0.85860071  1  -0.553673  0.079001  2.091447  0.104  -0.530386  0.054487  2.368272  0.079  -0.574422  0.043023  2.361217  0.066  -0.305191  -0.50139  0.057047  2.373439  0.079
O  O48  1  0.10242586  0.76649768  0.99213121  1  -0.550331  0.07552  2.08343  0.099  -0.536758  0.049991  2.358448  0.072  -0.580475  0.039621  2.35121  0.061  -0.306081  -0.507488  0.052027  2.363608  0.072
O  O49  1  0.89756510  0.23349631  0.00787747  1  -0.550498  -0.075549  2.083351  -0.099  -0.53694  -0.050007  2.358323  -0.072  -0.580701  -0.039626  2.351075  -0.061  -0.306061  -0.507685  -0.052041  2.36348  -0.072
O  O50  1  0.27103843  0.99423376  0.93915062  1  -0.558002  -0.079134  2.104634  -0.104  -0.536433  -0.053185  2.39096  -0.077  -0.581815  -0.041916  2.38554  -0.064  -0.305936  -0.50658  -0.055427  2.395229  -0.077
O  O51  1  0.72897868  0.00573067  0.06083779  1  -0.558182  0.079159  2.104638  0.104  -0.536566  0.053202  2.390946  0.077  -0.58191  0.04193  2.385494  0.064  -0.306007  -0.506695  0.055451  2.39523  0.077
O  O52  1  0.03379065  0.95364904  0.20379812  1  -0.558293  0.070635  2.102885  0.093  -0.53777  0.048769  2.382481  0.07  -0.581026  0.038674  2.374289  0.059  -0.30537  -0.508553  0.051451  2.387955  0.071
O  O53  1  0.96615066  0.04633136  0.79615592  1  -0.558397  -0.07067  2.102262  -0.093  -0.53784  -0.048792  2.38188  -0.07  -0.581126  -0.03869  2.373692  -0.059  -0.305363  -0.508662  -0.051474  2.387384  -0.071
O  O54  1  0.53848437  0.09897656  0.77887174  1  -0.34777  -0.000225  1.792063  0.0  -0.323012  -0.000128  2.006395  0.0  -0.335743  -7.8e-05  2.004669  0.0  -0.113522  -0.314533  -0.000157  2.007952  0.0
O  O55  1  0.46151069  0.90106287  0.22113334  1  -0.347798  0.000245  1.792798  0.0  -0.322948  0.000127  2.007115  0.0  -0.33563  8.7e-05  2.00535  0.0  -0.113464  -0.314471  0.000158  2.008676  0.0
O  O56  1  0.62893761  0.34755891  0.73990232  1  -0.343477  9e-05  1.715206  0.0  -0.334096  3.6e-05  1.918496  0.0  -0.345431  5e-05  1.915171  0.0  -0.125491  -0.32639  -0.00012  1.920898  0.0
O  O57  1  0.37104551  0.65247061  0.26007609  1  -0.343487  -0.000123  1.714874  0.0  -0.3341  -3.5e-05  1.918146  0.0  -0.345441  -5.9e-05  1.914833  0.0  -0.125575  -0.326393  0.000122  1.920556  0.0
