# generated using pymatgen
data_Cu2H28C33O14
_symmetry_space_group_name_H-M   'P 1'
_cell_length_a   10.83923939
_cell_length_b   17.34254912
_cell_length_c   27.50351332
_cell_angle_alpha   90.00029195
_cell_angle_beta   90.00018856
_cell_angle_gamma   90.00080291
_symmetry_Int_Tables_number   1
_chemical_formula_structural   Cu2H28C33O14
_chemical_formula_sum   'Cu8 H112 C132 O56'
_cell_volume   5170.11157435
_cell_formula_units_Z   4
loop_
 _symmetry_equiv_pos_site_id
 _symmetry_equiv_pos_as_xyz
  1  'x, y, z'
loop_
 _atom_site_type_symbol
 _atom_site_label
 _atom_site_symmetry_multiplicity
 _atom_site_fract_x
 _atom_site_fract_y
 _atom_site_fract_z
 _atom_site_occupancy
 _atom_site_pbe_bader_charge
 _atom_site_pbe_bader_spin_density
 _atom_site_pbe_cm5_charge
 _atom_site_pbe_ddec_charge
 _atom_site_pbe_ddec_spin_density
 _atom_site_pbe_ddec_sum_bond_order
 _atom_site_pbe_magmom
Cu  Cu0  1  0.44592052  0.94009533  0.51399359  1  1.073692  -0.539704  0.673209  0.825864  -0.698162  2.307414  -0.537
Cu  Cu1  1  0.44593463  0.05989791  0.98600569  1  1.072757  -0.539644  0.673204  0.825748  -0.698073  2.307425  -0.537
Cu  Cu2  1  0.05408305  0.44009292  0.98600932  1  1.073618  0.539681  0.673185  0.825815  0.69814  2.307152  0.537
Cu  Cu3  1  0.05406398  0.55989693  0.51399054  1  1.072999  0.539689  0.673227  0.825805  0.698132  2.307444  0.537
Cu  Cu4  1  0.55405451  0.05989290  0.48600964  1  1.07295  0.539677  0.673177  0.825833  0.698108  2.307183  0.537
Cu  Cu5  1  0.55406255  0.94009723  0.01399245  1  1.073763  0.539651  0.673193  0.825767  0.698099  2.307209  0.537
Cu  Cu6  1  0.94593812  0.55989818  0.01399718  1  1.073063  -0.539665  0.67314  0.825791  -0.698109  2.307183  -0.537
Cu  Cu7  1  0.94592582  0.44009302  0.48600141  1  1.073763  -0.539678  0.673188  0.82584  -0.698145  2.307137  -0.537
H  H8  1  0.25988751  0.18813035  0.43429153  1  0.092404  0.000294  0.104721  0.109244  0.000287  1.027282  0.0
H  H9  1  0.06990146  0.24724354  0.40025549  1  0.086727  -0.000196  0.107565  0.121174  -0.000104  1.018723  0.0
H  H10  1  0.87280328  0.03485215  0.42696207  1  0.105136  0.000208  0.108321  0.132773  0.000114  0.995271  0.0
H  H11  1  0.06574276  0.97731753  0.46184006  1  0.086683  -0.00037  0.104045  0.108108  -0.000314  1.005408  0.0
H  H12  1  0.94673288  0.23511160  0.33760331  1  0.071221  -4e-06  0.106488  0.076332  -2e-06  0.995413  0.0
H  H13  1  0.87647692  0.28872587  0.38594881  1  0.09097  1e-05  0.111368  0.095876  5e-06  0.976097  0.0
H  H14  1  0.81059868  0.16715766  0.27600444  1  0.083223  -5e-06  0.108013  0.078447  -5e-06  0.994342  0.0
H  H15  1  0.70415830  0.12824384  0.31971509  1  0.087418  1.3e-05  0.108397  0.084085  7e-06  0.9809  0.0
H  H16  1  0.47772815  0.24755414  0.20246466  1  0.087968  0.000207  0.108464  0.121982  0.000111  0.98777  0.0
H  H17  1  0.44011287  0.18882238  0.12058227  1  0.092509  -0.000339  0.10357  0.105182  -0.000268  0.997188  0.0
H  H18  1  0.70034417  0.00952358  0.15296892  1  0.057416  0.00037  0.103579  0.105511  0.000305  1.009958  0.0
H  H19  1  0.74047806  0.06765798  0.23423575  1  0.055848  -0.000172  0.101201  0.110508  -9.2e-05  1.024929  0.0
H  H20  1  0.37311309  0.81113923  0.48578676  1  0.589794  5.7e-05  0.313933  0.399888  6.7e-05  0.899465  0.0
H  H21  1  0.26746112  0.82185650  0.52362151  1  0.593724  3e-05  0.315709  0.396582  2.8e-05  0.901939  0.0
H  H22  1  0.25987922  0.81186185  0.06569381  1  0.092745  0.000294  0.104734  0.109244  0.000287  1.027412  0.0
H  H23  1  0.06989581  0.75275625  0.09973651  1  0.086752  -0.000196  0.107539  0.121192  -0.000104  1.018756  0.0
H  H24  1  0.87281054  0.96516206  0.07304442  1  0.10504  0.000208  0.108321  0.132804  0.000114  0.995161  0.0
H  H25  1  0.06575226  0.02269145  0.03816320  1  0.086733  -0.00037  0.104001  0.108007  -0.000314  1.00531  0.0
H  H26  1  0.94673448  0.76490729  0.16239528  1  0.070923  -4e-06  0.106427  0.076328  -2e-06  0.995418  0.0
H  H27  1  0.87647136  0.71128549  0.11405259  1  0.0909  1e-05  0.111286  0.095836  5e-06  0.976097  0.0
H  H28  1  0.81059773  0.83284909  0.22400015  1  0.083096  -5e-06  0.107949  0.078342  -5e-06  0.994404  0.0
H  H29  1  0.70416802  0.87176373  0.18029337  1  0.08732  1.3e-05  0.108416  0.084122  7e-06  0.98095  0.0
H  H30  1  0.47771768  0.75244801  0.29753369  1  0.087837  0.000207  0.108511  0.122133  0.000111  0.987889  0.0
H  H31  1  0.44010074  0.81117715  0.37941639  1  0.092348  -0.000339  0.10357  0.105137  -0.000268  0.997216  0.0
H  H32  1  0.70033124  0.99047819  0.34703116  1  0.057492  0.00037  0.103618  0.105562  0.000305  1.009945  0.0
H  H33  1  0.74047050  0.93234356  0.26576330  1  0.055925  -0.000172  0.101236  0.110564  -9.2e-05  1.024928  0.0
H  H34  1  0.37313171  0.18884645  0.01421873  1  0.643396  5e-05  0.314025  0.400021  6.7e-05  0.899178  0.0
H  H35  1  0.26747876  0.17814846  0.97638299  1  0.593914  3e-05  0.315736  0.396594  2.8e-05  0.901995  0.0
H  H36  1  0.24011720  0.68813543  0.06570378  1  0.093005  -0.000294  0.104717  0.109197  -0.000287  1.027322  0.0
H  H37  1  0.43009076  0.74724766  0.09974292  1  0.086613  0.000196  0.107614  0.121285  0.000104  1.018763  0.0
H  H38  1  0.62719431  0.53485459  0.07303848  1  0.105028  -0.000208  0.108279  0.132737  -0.000114  0.995162  0.0
H  H39  1  0.43424639  0.47732574  0.03815945  1  0.086677  0.00037  0.104027  0.108133  0.000314  1.00531  0.0
H  H40  1  0.55326927  0.73511528  0.16239570  1  0.071418  4e-06  0.106508  0.076404  2e-06  0.995361  0.0
H  H41  1  0.62353291  0.78873207  0.11405255  1  0.090841  -1e-05  0.111307  0.09579  -5e-06  0.976169  0.0
H  H42  1  0.68940100  0.66716186  0.22399690  1  0.083169  5e-06  0.107965  0.078359  5e-06  0.994474  0.0
H  H43  1  0.79583312  0.62824687  0.18028467  1  0.087398  -1.3e-05  0.108433  0.084161  -7e-06  0.980875  0.0
H  H44  1  0.02226593  0.74755172  0.29753484  1  0.088004  -0.000207  0.108476  0.122027  -0.000111  0.987846  0.0
H  H45  1  0.05988540  0.68881460  0.37941631  1  0.092575  0.000339  0.103589  0.105247  0.000268  0.997184  0.0
H  H46  1  0.79965284  0.50951645  0.34702718  1  0.057266  -0.000371  0.103668  0.10562  -0.000305  1.009712  0.0
H  H47  1  0.75951751  0.56765562  0.26575909  1  0.05582  0.000172  0.101147  0.110454  9.2e-05  1.024963  0.0
H  H48  1  0.12690088  0.31113941  0.01420931  1  0.589613  -5.7e-05  0.314063  0.400091  -6.7e-05  0.899421  0.0
H  H49  1  0.23257666  0.32186420  0.97638284  1  0.593511  -3e-05  0.31565  0.396489  -2.8e-05  0.902122  0.0
H  H50  1  0.24010616  0.31187620  0.43427936  1  0.093405  -0.000295  0.104722  0.10915  -0.000287  1.027426  0.0
H  H51  1  0.43009100  0.25276447  0.40024737  1  0.086644  0.000196  0.107547  0.121219  0.000104  1.018826  0.0
H  H52  1  0.62718024  0.46516269  0.42696042  1  0.105111  -0.000208  0.108291  0.132742  -0.000114  0.995317  0.0
H  H53  1  0.43422839  0.52268930  0.46183375  1  0.086525  0.000371  0.10404  0.10804  0.000314  1.005444  0.0
H  H54  1  0.55327203  0.26490252  0.33760456  1  0.070997  4e-06  0.106439  0.076326  2e-06  0.995434  0.0
H  H55  1  0.62352840  0.21128691  0.38594816  1  0.090904  -1e-05  0.111349  0.095895  -5e-06  0.976314  0.0
H  H56  1  0.68940756  0.33284213  0.27599808  1  0.083221  5e-06  0.108012  0.078412  5e-06  0.994375  0.0
H  H57  1  0.79583078  0.37176207  0.31970972  1  0.08736  -1.3e-05  0.108426  0.084098  -7e-06  0.980947  0.0
H  H58  1  0.02228388  0.25243324  0.20247310  1  0.087704  -0.000207  0.108452  0.122065  -0.000111  0.987939  0.0
H  H59  1  0.05991415  0.31116434  0.12059241  1  0.092243  0.000339  0.103571  0.105107  0.000268  0.997323  0.0
H  H60  1  0.79967027  0.49045792  0.15296540  1  0.057882  -0.000371  0.103622  0.105569  -0.000305  1.01  0.0
H  H61  1  0.75954259  0.43233859  0.23423744  1  0.055943  0.000172  0.101212  0.110553  9.2e-05  1.02507  0.0
H  H62  1  0.12688225  0.68885165  0.48578604  1  0.643421  -5e-05  0.314028  0.399971  -6.7e-05  0.899217  0.0
H  H63  1  0.23253361  0.67813007  0.52362016  1  0.593611  -3e-05  0.315779  0.39665  -2.8e-05  0.901843  0.0
H  H64  1  0.74011243  0.81186767  0.56571206  1  0.093087  -0.000294  0.104695  0.109179  -0.000287  1.027353  0.0
H  H65  1  0.93009479  0.75275737  0.59973937  1  0.086654  0.000196  0.107575  0.121208  0.000104  1.018783  0.0
H  H66  1  0.12719297  0.96514760  0.57303752  1  0.105192  -0.000208  0.10831  0.132794  -0.000114  0.995273  0.0
H  H67  1  0.93424150  0.02268222  0.53816861  1  0.086613  0.000371  0.104007  0.108022  0.000314  1.00544  0.0
H  H68  1  0.05326522  0.76488700  0.66239337  1  0.071495  4e-06  0.106476  0.076295  2e-06  0.995454  0.0
H  H69  1  0.12352948  0.71126927  0.61405186  1  0.090847  -1e-05  0.111341  0.095804  -5e-06  0.976135  0.0
H  H70  1  0.18938466  0.83284094  0.72399551  1  0.082999  5e-06  0.107949  0.078296  5e-06  0.994373  0.0
H  H71  1  0.29581674  0.87175995  0.68028704  1  0.087369  -1.3e-05  0.108424  0.084139  -7e-06  0.980873  0.0
H  H72  1  0.52227826  0.75245772  0.79753129  1  0.088113  -0.000207  0.108488  0.122039  -0.000111  0.987792  0.0
H  H73  1  0.55988799  0.81118545  0.87941550  1  0.092559  0.000339  0.103601  0.105215  0.000268  0.997129  0.0
H  H74  1  0.29963271  0.99047156  0.84703284  1  0.057252  -0.000371  0.103667  0.105644  -0.000305  1.009705  0.0
H  H75  1  0.25950896  0.93234062  0.76576347  1  0.056133  0.000172  0.101164  0.110456  9.2e-05  1.024881  0.0
H  H76  1  0.62686932  0.18884438  0.51421501  1  0.643512  -5e-05  0.313983  0.399912  -6.7e-05  0.899282  0.0
H  H77  1  0.73252406  0.17813230  0.47638135  1  0.593692  -3e-05  0.31576  0.396642  -2.8e-05  0.901995  0.0
H  H78  1  0.74010688  0.18813675  0.93429051  1  0.092931  -0.000294  0.104656  0.109085  -0.000286  1.027344  0.0
H  H79  1  0.93008200  0.24725331  0.90025617  1  0.086496  0.000196  0.107595  0.121218  0.000104  1.018809  0.0
H  H80  1  0.12718295  0.03486018  0.92696498  1  0.10513  -0.000208  0.108322  0.132853  -0.000114  0.9952  0.0
H  H81  1  0.93423753  0.97733079  0.96184111  1  0.086843  0.00037  0.104045  0.10819  0.000314  1.005379  0.0
H  H82  1  0.05326546  0.23511899  0.83760431  1  0.071437  4e-06  0.106463  0.076312  2e-06  0.995397  0.0
H  H83  1  0.12353412  0.28873387  0.88594736  1  0.090816  -1e-05  0.111313  0.095771  -5e-06  0.976145  0.0
H  H84  1  0.18939298  0.16716104  0.77600271  1  0.083057  5e-06  0.107944  0.078336  5e-06  0.994437  0.0
H  H85  1  0.29582178  0.12824237  0.81971676  1  0.087323  -1.3e-05  0.108399  0.084095  -7e-06  0.980843  0.0
H  H86  1  0.52228226  0.24753848  0.70246663  1  0.088166  -0.000207  0.108519  0.122129  -0.000111  0.987885  0.0
H  H87  1  0.55989736  0.18880416  0.62058247  1  0.092623  0.000339  0.103538  0.105161  0.000268  0.997115  0.0
H  H88  1  0.29964195  0.00951752  0.65297097  1  0.057186  -0.000371  0.103638  0.105617  -0.000305  1.009741  0.0
H  H89  1  0.25951006  0.06765850  0.73423484  1  0.055917  0.000171  0.101172  0.110481  9.2e-05  1.024978  0.0
H  H90  1  0.62688761  0.81114465  0.98579213  1  0.589634  -5.7e-05  0.313941  0.399853  -6.7e-05  0.899663  0.0
H  H91  1  0.73256177  0.82187840  0.02361769  1  0.593786  -3e-05  0.315641  0.396533  -2.8e-05  0.902064  0.0
H  H92  1  0.75988458  0.31185855  0.93430090  1  0.092176  0.000294  0.104716  0.109211  0.000286  1.027366  0.0
H  H93  1  0.56989442  0.25275210  0.90026358  1  0.086642  -0.000196  0.10756  0.121232  -0.000104  1.018658  0.0
H  H94  1  0.37281486  0.46515381  0.92696002  1  0.105167  0.000208  0.108306  0.132793  0.000114  0.995318  0.0
H  H95  1  0.56576001  0.52268208  0.96183905  1  0.086753  -0.000371  0.104021  0.108124  -0.000314  1.005428  0.0
H  H96  1  0.44673437  0.26489716  0.83760498  1  0.070979  -4e-06  0.106473  0.076397  -2e-06  0.995444  0.0
H  H97  1  0.37646704  0.21128210  0.88594776  1  0.090819  1e-05  0.11134  0.095861  5e-06  0.976154  0.0
H  H98  1  0.31059525  0.33284482  0.77600014  1  0.083251  -5e-06  0.107944  0.078302  -5e-06  0.994514  0.0
H  H99  1  0.20417328  0.37176557  0.81971091  1  0.087369  1.3e-05  0.108417  0.084104  7e-06  0.980854  0.0
H  H100  1  0.97771649  0.25246071  0.70246402  1  0.08818  0.000207  0.108493  0.122058  0.000111  0.987863  0.0
H  H101  1  0.94011177  0.31118919  0.62057964  1  0.092591  -0.000339  0.103548  0.105177  -0.000268  0.99704  0.0
H  H102  1  0.20034894  0.49048330  0.65297168  1  0.057242  0.00037  0.103653  0.105615  0.000305  1.00972  0.0
H  H103  1  0.24047690  0.43234587  0.73423796  1  0.055876  -0.000172  0.101159  0.110449  -9.2e-05  1.025028  0.0
H  H104  1  0.87314427  0.68884189  0.98578373  1  0.6434  5e-05  0.313964  0.399887  6.7e-05  0.899305  0.0
H  H105  1  0.76748602  0.67813786  0.02361602  1  0.593849  3e-05  0.315754  0.396585  2.8e-05  0.901951  0.0
H  H106  1  0.75989009  0.68813393  0.56570932  1  0.092317  0.000294  0.104691  0.109189  0.000287  1.027286  0.0
H  H107  1  0.56990617  0.74724566  0.59974022  1  0.086626  -0.000196  0.107567  0.121223  -0.000104  1.018709  0.0
H  H108  1  0.37281140  0.53485378  0.57303844  1  0.105159  0.000208  0.108302  0.13281  0.000114  0.99529  0.0
H  H109  1  0.56575772  0.47731737  0.53816583  1  0.086571  -0.000371  0.104076  0.108124  -0.000314  1.005275  0.0
H  H110  1  0.44673160  0.73511280  0.66239394  1  0.0713  -4e-06  0.106484  0.076325  -2e-06  0.995463  0.0
H  H111  1  0.37646416  0.78872841  0.61405288  1  0.090935  1e-05  0.111365  0.095826  5e-06  0.976128  0.0
H  H112  1  0.31061360  0.66715647  0.72399641  1  0.082952  -5e-06  0.107927  0.078283  -5e-06  0.994335  0.0
H  H113  1  0.20417193  0.62823711  0.68028805  1  0.08738  1.3e-05  0.108381  0.084056  7e-06  0.9809  0.0
H  H114  1  0.97771975  0.74753192  0.79753958  1  0.088403  0.000207  0.108455  0.121893  0.000111  0.987717  0.0
H  H115  1  0.94013007  0.68880024  0.87942427  1  0.093096  -0.000339  0.103541  0.105224  -0.000268  0.996923  0.0
H  H116  1  0.20038134  0.50951704  0.84703201  1  0.056905  0.000371  0.103665  0.10569  0.000304  1.009639  0.0
H  H117  1  0.24049887  0.56765367  0.76576360  1  0.056467  -0.000172  0.101181  0.110464  -9.2e-05  1.024874  0.0
H  H118  1  0.87312231  0.31114695  0.51420992  1  0.589996  5.7e-05  0.31398  0.399945  6.7e-05  0.899374  0.0
H  H119  1  0.76745619  0.32186507  0.47638088  1  0.593659  3e-05  0.315721  0.396578  2.8e-05  0.901954  0.0
C  C120  1  0.29196394  0.04692474  0.46864766  1  1.517096  0.000622  0.209935  0.580918  0.000623  4.165368  0.001
C  C121  1  0.17520050  0.07928042  0.44919958  1  0.03505  -0.000221  -0.032444  -0.063379  -0.000194  4.002578  0.0
C  C122  1  0.17476307  0.15512099  0.43189537  1  -0.032579  -0.000881  -0.084224  -0.062739  -0.000522  3.990666  -0.001
C  C123  1  0.06867289  0.18759434  0.41242656  1  -0.078289  -0.00062  -0.111609  -0.227106  -0.000448  4.019835  -0.001
C  C124  1  0.96092409  0.14295768  0.40972232  1  0.43836  6.7e-05  0.08468  0.261487  4.2e-05  4.065943  0.0
C  C125  1  0.95868330  0.06754265  0.42828274  1  -0.028068  0.000624  -0.106385  -0.213121  0.000473  3.98811  0.0
C  C126  1  0.06569693  0.03600603  0.44773817  1  -0.029201  0.001105  -0.082725  -0.065919  0.000653  3.992903  0.001
C  C127  1  0.86524760  0.23908769  0.36135041  1  0.38755  -2e-06  -0.063569  -0.033717  -2e-06  3.852699  0.0
C  C128  1  0.72746208  0.17916485  0.29764710  1  0.364787  -0.0  -0.058948  -0.025221  -2e-06  3.839887  0.0
C  C129  1  0.61160934  0.16174158  0.22298889  1  0.444577  -7.7e-05  0.089935  0.276526  -5.2e-05  4.059118  0.0
C  C130  1  0.52592000  0.19543336  0.19106097  1  -0.107758  0.000643  -0.104742  -0.207333  0.000454  4.004611  0.001
C  C131  1  0.50538756  0.16276835  0.14582850  1  0.079001  0.00088  -0.082363  -0.065688  0.000555  4.006103  0.001
C  C132  1  0.56814113  0.09548491  0.13179241  1  -0.071023  0.000545  -0.0304  -0.05907  0.000394  3.995059  0.0
C  C133  1  0.65231008  0.06186001  0.16410210  1  0.033492  -0.000897  -0.081953  -0.062462  -0.000524  3.991515  -0.001
C  C134  1  0.67499304  0.09459135  0.20950328  1  -0.012266  -0.000533  -0.11293  -0.23044  -0.000404  4.022422  0.0
C  C135  1  0.54443499  0.06018415  0.08344906  1  1.53062  -0.000344  0.213528  0.586056  -0.000193  4.162005  -0.001
C  C136  1  0.29197519  0.95306889  0.03135153  1  1.51762  0.000621  0.209942  0.580969  0.000624  4.165253  0.001
C  C137  1  0.17520103  0.92071451  0.05079619  1  0.034784  -0.000218  -0.032305  -0.063263  -0.000191  4.002874  0.0
C  C138  1  0.17475925  0.84487567  0.06809604  1  -0.033198  -0.000881  -0.084341  -0.06299  -0.000523  3.991355  -0.001
C  C139  1  0.06866387  0.81240371  0.08756544  1  -0.078276  -0.00062  -0.11168  -0.227118  -0.000448  4.019837  -0.001
C  C140  1  0.96092719  0.85705095  0.09027410  1  0.439023  6.7e-05  0.084829  0.261638  4.2e-05  4.065718  0.0
C  C141  1  0.95869165  0.93246769  0.07171477  1  -0.028811  0.000625  -0.10632  -0.21315  0.000474  3.988219  0.0
C  C142  1  0.06570860  0.96399546  0.05226110  1  -0.02852  0.001104  -0.08276  -0.065833  0.000652  3.993012  0.001
C  C143  1  0.86524430  0.76092703  0.13864916  1  0.388463  -3e-06  -0.063503  -0.033774  -3e-06  3.852545  0.0
C  C144  1  0.72746529  0.82084119  0.20235339  1  0.364888  -0.0  -0.058925  -0.025083  -2e-06  3.84013  0.0
C  C145  1  0.61160620  0.83826000  0.27701108  1  0.44507  -7.8e-05  0.089973  0.276673  -5.2e-05  4.059113  0.0
C  C146  1  0.52591266  0.80456402  0.30893635  1  -0.108424  0.000643  -0.104854  -0.207666  0.000454  4.004927  0.001
C  C147  1  0.50538319  0.83722713  0.35416806  1  0.079432  0.00088  -0.082276  -0.06548  0.000554  4.006142  0.001
C  C148  1  0.56812734  0.90451226  0.36820714  1  -0.070722  0.000542  -0.030412  -0.059085  0.000392  3.995198  0.0
C  C149  1  0.65230970  0.93813500  0.33589938  1  0.033165  -0.000896  -0.081944  -0.06244  -0.000524  3.991273  -0.001
C  C150  1  0.67499338  0.90540962  0.29049642  1  -0.01266  -0.000533  -0.112915  -0.230479  -0.000404  4.02233  0.0
C  C151  1  0.54442702  0.93980590  0.41655046  1  1.530919  -0.000345  0.213441  0.586015  -0.000193  4.16214  -0.001
C  C152  1  0.20803479  0.54693043  0.03134974  1  1.516603  -0.000626  0.209774  0.580614  -0.000624  4.165336  -0.001
C  C153  1  0.32479804  0.57928784  0.05079829  1  0.035275  0.00022  -0.032313  -0.063218  0.000192  4.002654  0.0
C  C154  1  0.32524274  0.65512452  0.06810238  1  -0.032707  0.000881  -0.084314  -0.062791  0.000523  3.99116  0.001
C  C155  1  0.43132074  0.68760125  0.08757238  1  -0.078159  0.00062  -0.111661  -0.227228  0.000448  4.020036  0.001
C  C156  1  0.53907135  0.64296065  0.09027530  1  0.438427  -6.7e-05  0.084755  0.261556  -4.2e-05  4.06587  0.0
C  C157  1  0.54131135  0.56754953  0.07171683  1  -0.027577  -0.000625  -0.106239  -0.213015  -0.000474  3.988214  0.0
C  C158  1  0.43429140  0.53601210  0.05226210  1  -0.029094  -0.001104  -0.082856  -0.066116  -0.000652  3.992961  -0.001
C  C159  1  0.63475740  0.73909303  0.13864970  1  0.387585  2e-06  -0.063487  -0.033741  2e-06  3.852663  0.0
C  C160  1  0.77253326  0.67916844  0.20235247  1  0.364667  1e-06  -0.058942  -0.025175  2e-06  3.84  0.0
C  C161  1  0.88838099  0.66174331  0.27700952  1  0.445375  7.7e-05  0.089969  0.276643  5.2e-05  4.059034  0.0
C  C162  1  0.97407756  0.69543320  0.30893537  1  -0.108498  -0.000643  -0.104895  -0.207542  -0.000454  4.004652  -0.001
C  C163  1  0.99460372  0.66277103  0.35417028  1  0.078913  -0.000879  -0.082275  -0.06562  -0.000554  4.005783  -0.001
C  C164  1  0.93185322  0.59548198  0.36820434  1  -0.070885  -0.000544  -0.030365  -0.059059  -0.000393  3.995159  0.0
C  C165  1  0.84766691  0.56186129  0.33589417  1  0.034008  0.000897  -0.082097  -0.062535  0.000524  3.991276  0.001
C  C166  1  0.82500037  0.59458803  0.29049129  1  -0.013174  0.000533  -0.11276  -0.230352  0.000404  4.022488  0.0
C  C167  1  0.95555118  0.56018758  0.41654467  1  1.53082  0.000346  0.213452  0.585834  0.000194  4.162017  0.001
C  C168  1  0.20801987  0.45306998  0.46864208  1  1.516796  -0.000629  0.209829  0.580539  -0.000624  4.165252  -0.001
C  C169  1  0.32477854  0.42072222  0.44919150  1  0.035004  0.000219  -0.032312  -0.063167  0.00019  4.002247  0.0
C  C170  1  0.32522966  0.34488670  0.43188450  1  -0.032386  0.000881  -0.084201  -0.0626  0.000522  3.991002  0.001
C  C171  1  0.43131230  0.31241435  0.41241646  1  -0.077978  0.000619  -0.111589  -0.227199  0.000448  4.019976  0.001
C  C172  1  0.53906298  0.35705357  0.40971949  1  0.438356  -6.7e-05  0.084688  0.261498  -4.2e-05  4.065727  0.0
C  C173  1  0.54130023  0.43247221  0.42827906  1  -0.02893  -0.000625  -0.106165  -0.213024  -0.000473  3.988032  0.0
C  C174  1  0.43427933  0.46400640  0.44773001  1  -0.028648  -0.001104  -0.082893  -0.065937  -0.000652  3.992657  -0.001
C  C175  1  0.63475935  0.26092489  0.36135285  1  0.388401  2e-06  -0.063593  -0.033956  2e-06  3.852831  0.0
C  C176  1  0.77253789  0.32083915  0.29765062  1  0.364705  0.0  -0.059057  -0.025227  1e-06  3.840267  0.0
C  C177  1  0.88840291  0.33825086  0.22299299  1  0.444941  7.8e-05  0.090012  0.277047  5.2e-05  4.058901  0.0
C  C178  1  0.97410306  0.30455420  0.19106980  1  -0.108474  -0.000643  -0.1048  -0.207776  -0.000454  4.004851  -0.001
C  C179  1  0.99462959  0.33721598  0.14583346  1  0.079443  -0.00088  -0.082332  -0.065325  -0.000554  4.006026  -0.001
C  C180  1  0.93188051  0.40450160  0.13179678  1  -0.07075  -0.000545  -0.030424  -0.0591  -0.000394  3.995468  0.0
C  C181  1  0.84769984  0.43811523  0.16410210  1  0.032245  0.000896  -0.081889  -0.062289  0.000524  3.991751  0.001
C  C182  1  0.82502833  0.40540271  0.20950606  1  -0.011798  0.000532  -0.112942  -0.230801  0.000403  4.022758  0.0
C  C183  1  0.95558901  0.43979678  0.08345430  1  1.530475  0.00034  0.213338  0.585644  0.000192  4.162315  0.001
C  C184  1  0.70801939  0.95307328  0.53135629  1  1.516632  -0.000631  0.209793  0.580555  -0.000626  4.165581  -0.001
C  C185  1  0.82477914  0.92071587  0.55080364  1  0.035212  0.000218  -0.032413  -0.063289  0.00019  4.002306  0.0
C  C186  1  0.82522949  0.84487934  0.56810931  1  -0.032231  0.000881  -0.084186  -0.062764  0.000523  3.991006  0.001
C  C187  1  0.93131967  0.81240311  0.58757339  1  -0.078158  0.000619  -0.111666  -0.227114  0.000448  4.019808  0.001
C  C188  1  0.03906755  0.85704438  0.59027726  1  0.438067  -6.7e-05  0.084702  0.261512  -4.2e-05  4.065827  0.0
C  C189  1  0.04130742  0.93246056  0.57171903  1  -0.028403  -0.000624  -0.106362  -0.213307  -0.000474  3.988267  0.0
C  C190  1  0.93428733  0.96399661  0.55226796  1  -0.028956  -0.001105  -0.082696  -0.065718  -0.000653  3.992454  -0.001
C  C191  1  0.13475326  0.76091149  0.63864736  1  0.387233  3e-06  -0.063519  -0.03355  3e-06  3.852438  0.0
C  C192  1  0.27252403  0.82083721  0.70235140  1  0.364842  0.0  -0.058978  -0.025206  2e-06  3.839959  0.0
C  C193  1  0.38837953  0.83826048  0.77701106  1  0.444306  7.7e-05  0.08996  0.27647  5.2e-05  4.05929  0.0
C  C194  1  0.47407810  0.80456927  0.80893789  1  -0.107801  -0.000643  -0.104823  -0.207513  -0.000454  4.004401  -0.001
C  C195  1  0.49460501  0.83723429  0.85417108  1  0.078746  -0.00088  -0.082307  -0.065507  -0.000554  4.006165  -0.001
C  C196  1  0.43184405  0.90450908  0.86820972  1  -0.070647  -0.000545  -0.030442  -0.05918  -0.000394  3.995321  0.0
C  C197  1  0.34766865  0.93813455  0.83589821  1  0.033103  0.000898  -0.08209  -0.062587  0.000524  3.991279  0.001
C  C198  1  0.32499029  0.90540667  0.79049886  1  -0.01234  0.000532  -0.112819  -0.230317  0.000403  4.022597  0.0
C  C199  1  0.45555757  0.93980868  0.91655089  1  1.530597  0.000346  0.213412  0.585858  0.000193  4.162195  0.001
C  C200  1  0.70801922  0.04692452  0.96864769  1  1.516789  -0.000624  0.209904  0.580849  -0.000626  4.165378  -0.001
C  C201  1  0.82478323  0.07929158  0.94920339  1  0.035027  0.00022  -0.032429  -0.063408  0.000192  4.002482  0.0
C  C202  1  0.82522686  0.15512466  0.93189445  1  -0.032237  0.000881  -0.084138  -0.062542  0.000523  3.991093  0.001
C  C203  1  0.93130747  0.18760354  0.91242761  1  -0.078286  0.00062  -0.111667  -0.227197  0.000448  4.020203  0.001
C  C204  1  0.03905800  0.14296610  0.90972403  1  0.43817  -6.7e-05  0.08472  0.2616  -4.2e-05  4.066119  0.0
C  C205  1  0.04129999  0.06755167  0.92828263  1  -0.027592  -0.000625  -0.106274  -0.213198  -0.000474  3.988168  0.0
C  C206  1  0.93428212  0.03601064  0.94773994  1  -0.029109  -0.001105  -0.082876  -0.066138  -0.000653  3.992786  -0.001
C  C207  1  0.13475656  0.23909175  0.86135152  1  0.387679  3e-06  -0.063431  -0.033578  3e-06  3.85243  0.0
C  C208  1  0.27253004  0.17916376  0.79764547  1  0.364835  0.0  -0.058883  -0.02518  1e-06  3.839964  0.0
C  C209  1  0.38839190  0.16173226  0.72298887  1  0.444619  7.8e-05  0.090007  0.27662  5.2e-05  4.059242  0.0
C  C210  1  0.47408636  0.19542709  0.69106251  1  -0.107862  -0.000642  -0.104865  -0.207626  -0.000454  4.004801  -0.001
C  C211  1  0.49461030  0.16275936  0.64583116  1  0.078826  -0.000879  -0.08228  -0.06554  -0.000554  4.005943  -0.001
C  C212  1  0.43185415  0.09547596  0.63179426  1  -0.070601  -0.000546  -0.030363  -0.059058  -0.000394  3.995425  0.0
C  C213  1  0.34767364  0.06185610  0.66410493  1  0.033465  0.000897  -0.082037  -0.062583  0.000524  3.991465  0.001
C  C214  1  0.32499088  0.09458609  0.70950354  1  -0.01295  0.000533  -0.112836  -0.230342  0.000404  4.022636  0.0
C  C215  1  0.45554893  0.06018117  0.58345603  1  1.530916  0.000346  0.213804  0.586358  0.000193  4.161563  0.001
C  C216  1  0.79197807  0.45306933  0.96865240  1  1.517378  0.000623  0.20997  0.580931  0.000625  4.16525  0.001
C  C217  1  0.67521389  0.42071422  0.94920203  1  0.034892  -0.000218  -0.032426  -0.063328  -0.000191  4.002411  0.0
C  C218  1  0.67476182  0.34487524  0.93190121  1  -0.032544  -0.000881  -0.084291  -0.062891  -0.000523  3.991212  -0.001
C  C219  1  0.56867459  0.31240427  0.91243448  1  -0.077674  -0.00062  -0.111599  -0.227091  -0.000448  4.019909  -0.001
C  C220  1  0.46093690  0.35704718  0.90972465  1  0.438148  6.7e-05  0.084756  0.261583  4.2e-05  4.065712  0.0
C  C221  1  0.45868952  0.43246118  0.92828712  1  -0.028784  0.000625  -0.106361  -0.213216  0.000474  3.988175  0.0
C  C222  1  0.56571684  0.46399746  0.94773930  1  -0.028452  0.001104  -0.082717  -0.065939  0.000653  3.992592  0.001
C  C223  1  0.36524807  0.26092402  0.86135025  1  0.388449  -3e-06  -0.063546  -0.033958  -2e-06  3.852661  0.0
C  C224  1  0.22747037  0.32084054  0.79764458  1  0.36485  -0.0  -0.058857  -0.025045  -2e-06  3.83996  0.0
C  C225  1  0.11161250  0.33826509  0.72298789  1  0.444696  -7.7e-05  0.089951  0.276488  -5.2e-05  4.059372  0.0
C  C226  1  0.02591777  0.30457174  0.69106058  1  -0.107857  0.000643  -0.104818  -0.207511  0.000454  4.004799  0.001
C  C227  1  0.00539622  0.33723852  0.64583004  1  0.078775  0.000879  -0.082314  -0.065615  0.000554  4.006137  0.001
C  C228  1  0.06815041  0.40451489  0.63179052  1  -0.070983  0.000543  -0.030327  -0.058885  0.000393  3.995226  0.0
C  C229  1  0.15232104  0.43814135  0.66410178  1  0.0339  -0.000897  -0.082135  -0.062742  -0.000524  3.991415  -0.001
C  C230  1  0.17500326  0.40541519  0.70950358  1  -0.012772  -0.000533  -0.112792  -0.230229  -0.000404  4.022561  0.0
C  C231  1  0.04444784  0.43981678  0.58344983  1  1.530946  -0.000347  0.213562  0.586043  -0.000195  4.161867  -0.001
C  C232  1  0.79197269  0.54692689  0.53135169  1  1.517052  0.000623  0.20987  0.580802  0.000625  4.165178  0.001
C  C233  1  0.67521310  0.57928388  0.55080082  1  0.034678  -0.00022  -0.0324  -0.063314  -0.000193  4.002473  0.0
C  C234  1  0.67476751  0.65512112  0.56810745  1  -0.032088  -0.000881  -0.0842  -0.062727  -0.000523  3.990882  -0.001
C  C235  1  0.56868211  0.68759636  0.58757222  1  -0.078023  -0.000619  -0.111643  -0.227237  -0.000448  4.019885  -0.001
C  C236  1  0.46093328  0.64295830  0.59027683  1  0.437934  6.7e-05  0.084757  0.261636  4.2e-05  4.065894  0.0
C  C237  1  0.45869233  0.56754139  0.57171799  1  -0.028339  0.000624  -0.106333  -0.213261  0.000473  3.988255  0.0
C  C238  1  0.56571324  0.53600431  0.55226631  1  -0.028564  0.001104  -0.082748  -0.065856  0.000653  3.992533  0.001
C  C239  1  0.36524151  0.73908697  0.63864892  1  0.387738  -2e-06  -0.063524  -0.033644  -2e-06  3.852546  0.0
C  C240  1  0.22747128  0.67915888  0.70235551  1  0.365133  -0.0  -0.058866  -0.025015  -2e-06  3.839817  0.0
C  C241  1  0.11162471  0.66172814  0.77701568  1  0.443686  -7.7e-05  0.089864  0.276289  -5.2e-05  4.059303  0.0
C  C242  1  0.02593286  0.69541902  0.80894179  1  -0.107158  0.000643  -0.104767  -0.207266  0.000454  4.004343  0.001
C  C243  1  0.00541187  0.66275379  0.85417449  1  0.077992  0.00088  -0.082302  -0.06561  0.000554  4.005658  0.001
C  C244  1  0.06816464  0.59547854  0.86820863  1  -0.070732  0.000544  -0.030448  -0.059039  0.000393  3.995221  0.0
C  C245  1  0.15233977  0.56185569  0.83589966  1  0.033621  -0.000898  -0.082086  -0.062731  -0.000524  3.991632  -0.001
C  C246  1  0.17501590  0.59458205  0.79050080  1  -0.012975  -0.000533  -0.112829  -0.230293  -0.000404  4.0226  0.0
C  C247  1  0.04445337  0.56017587  0.91654892  1  1.531063  -0.000348  0.213786  0.586327  -0.000195  4.161402  -0.001
C  C248  1  0.74999781  0.25000184  0.33019543  1  0.069986  -0.0  -0.019595  0.050336  -0.0  3.822811  0.0
C  C249  1  0.75000468  0.75000554  0.16980618  1  0.070968  -0.0  -0.019621  0.050113  -0.0  3.823139  0.0
C  C250  1  0.24999383  0.74999676  0.66980598  1  0.070631  0.0  -0.019637  0.050018  0.0  3.823125  0.0
C  C251  1  0.24999988  0.25000343  0.83019341  1  0.070743  0.0  -0.019782  0.050135  0.0  3.822742  0.0
O  O252  1  0.28788211  0.98031354  0.48863897  1  -1.113415  -0.093712  -0.323009  -0.536763  -0.06102  2.350923  -0.084
O  O253  1  0.38841859  0.08887918  0.46372297  1  -1.108464  0.083558  -0.32209  -0.530346  0.054351  2.352619  0.075
O  O254  1  0.85402566  0.16920011  0.38903839  1  -1.077151  5.6e-05  -0.18007  -0.200747  3.4e-05  2.537806  0.0
O  O255  1  0.62609067  0.19875080  0.26629943  1  -1.082195  -4e-06  -0.178102  -0.203052  -1e-06  2.580624  0.0
O  O256  1  0.58750117  0.99250919  0.07626350  1  -1.104726  0.089992  -0.31778  -0.522778  0.058447  2.331895  0.081
O  O257  1  0.48255182  0.10004987  0.05271083  1  -1.126098  -0.08201  -0.323608  -0.552196  -0.053605  2.35501  -0.074
O  O258  1  0.35629290  0.81405928  0.52063611  1  -1.149257  0.001473  -0.56991  -0.739577  0.000848  1.994222  0.0
O  O259  1  0.28789224  0.01967890  0.01135986  1  -1.113554  -0.093696  -0.322976  -0.536751  -0.06101  2.350928  -0.084
O  O260  1  0.38842430  0.91111529  0.03627781  1  -1.10879  0.083548  -0.322089  -0.530305  0.054344  2.352599  0.075
O  O261  1  0.85402187  0.83081106  0.11095826  1  -1.077503  5.6e-05  -0.180087  -0.200701  3.4e-05  2.537507  0.0
O  O262  1  0.62609646  0.80125494  0.23369875  1  -1.082178  -4e-06  -0.178122  -0.203108  -1e-06  2.580808  0.0
O  O263  1  0.58750249  0.00748238  0.42373753  1  -1.104968  0.090007  -0.317703  -0.522763  0.058455  2.331784  0.081
O  O264  1  0.48253767  0.89995117  0.44729443  1  -1.126109  -0.082011  -0.323685  -0.552371  -0.053606  2.355224  -0.074
O  O265  1  0.35631166  0.18593087  0.97936886  1  -1.202698  0.00148  -0.570016  -0.739713  0.000847  1.994097  0.0
O  O266  1  0.21212833  0.48032020  0.01135655  1  -1.113258  0.093715  -0.322883  -0.536573  0.061023  2.350845  0.084
O  O267  1  0.11157095  0.58887427  0.03627893  1  -1.108411  -0.083541  -0.322053  -0.530231  -0.054341  2.352597  -0.075
O  O268  1  0.64596853  0.66920935  0.11095714  1  -1.078072  -5.6e-05  -0.180109  -0.200619  -3.4e-05  2.537743  0.0
O  O269  1  0.87390973  0.69874859  0.23369801  1  -1.081986  4e-06  -0.178133  -0.203121  1e-06  2.580551  0.0
O  O270  1  0.91248654  0.49250937  0.42373379  1  -1.104831  -0.090004  -0.317769  -0.522682  -0.058452  2.331823  -0.081
O  O271  1  0.01744996  0.60004631  0.44728856  1  -1.126141  0.082037  -0.323656  -0.552259  0.053624  2.354881  0.074
O  O272  1  0.14373640  0.31407374  0.97936384  1  -1.148816  -0.001474  -0.569963  -0.739642  -0.000848  1.994626  0.0
O  O273  1  0.21209941  0.51968312  0.48863564  1  -1.113389  0.093714  -0.323043  -0.536693  0.061022  2.350812  0.084
O  O274  1  0.11156334  0.41111608  0.46371822  1  -1.108218  -0.083557  -0.322045  -0.530189  -0.054354  2.352697  -0.075
O  O275  1  0.64596769  0.33080982  0.38904397  1  -1.077449  -5.6e-05  -0.180103  -0.200609  -3.4e-05  2.537611  0.0
O  O276  1  0.87391180  0.30125468  0.26630812  1  -1.081899  4e-06  -0.178103  -0.203228  1e-06  2.580731  0.0
O  O277  1  0.91249540  0.50747059  0.07626548  1  -1.104608  -0.090011  -0.317561  -0.522522  -0.058456  2.331957  -0.081
O  O278  1  0.01748939  0.39993976  0.05271101  1  -1.125862  0.082014  -0.323647  -0.552179  0.053605  2.354959  0.074
O  O279  1  0.14370549  0.68593533  0.52063468  1  -1.202423  -0.00148  -0.570067  -0.739689  -0.000847  1.993968  0.0
O  O280  1  0.71211045  0.01968679  0.51136716  1  -1.113359  0.093716  -0.322882  -0.536571  0.061023  2.350732  0.084
O  O281  1  0.61156291  0.91112403  0.53627480  1  -1.108136  -0.083543  -0.322075  -0.530158  -0.054343  2.352776  -0.075
O  O282  1  0.14597060  0.83079446  0.61095210  1  -1.077333  -5.6e-05  -0.180105  -0.200691  -3.4e-05  2.537598  0.0
O  O283  1  0.37389913  0.80125876  0.73369870  1  -1.081765  4e-06  -0.178091  -0.20294  1e-06  2.580867  0.0
O  O284  1  0.41249508  0.00748653  0.92373681  1  -1.104749  -0.090016  -0.317659  -0.522629  -0.05846  2.331852  -0.081
O  O285  1  0.51744535  0.89994469  0.94729094  1  -1.126019  0.082015  -0.323639  -0.552163  0.05361  2.355167  0.074
O  O286  1  0.64369505  0.18593355  0.47936493  1  -1.202558  -0.00148  -0.570014  -0.739645  -0.000847  1.994085  0.0
O  O287  1  0.71211508  0.98031393  0.98863464  1  -1.113339  0.093695  -0.322949  -0.536719  0.06101  2.350933  0.084
O  O288  1  0.61157103  0.08887582  0.96372505  1  -1.108638  -0.083535  -0.32207  -0.530211  -0.054335  2.352867  -0.075
O  O289  1  0.14595685  0.16920945  0.88904606  1  -1.077898  -5.6e-05  -0.180151  -0.200726  -3.4e-05  2.537835  0.0
O  O290  1  0.37390533  0.19874020  0.76630121  1  -1.081932  4e-06  -0.178073  -0.202989  1e-06  2.580819  0.0
O  O291  1  0.41249376  0.99250007  0.57626170  1  -1.105196  -0.090011  -0.317908  -0.522883  -0.058457  2.331786  -0.081
O  O292  1  0.51743275  0.10004916  0.55271061  1  -1.125992  0.082034  -0.323833  -0.552544  0.053623  2.354573  0.074
O  O293  1  0.64372518  0.81407177  0.02063763  1  -1.149128  -0.001473  -0.569831  -0.73945  -0.000848  1.994653  0.0
O  O294  1  0.78789006  0.51968474  0.98863904  1  -1.113595  -0.093705  -0.323  -0.536761  -0.061015  2.35083  -0.084
O  O295  1  0.88842991  0.41112145  0.96372829  1  -1.108793  0.083529  -0.322059  -0.530271  0.054331  2.352728  0.075
O  O296  1  0.35403141  0.33080770  0.88904245  1  -1.077259  5.6e-05  -0.180096  -0.200606  3.4e-05  2.537494  0.0
O  O297  1  0.12609851  0.30125981  0.76629976  1  -1.082157  -4e-06  -0.178092  -0.202992  -1e-06  2.580877  0.0
O  O298  1  0.08750603  0.50749384  0.57626252  1  -1.105074  0.090002  -0.317797  -0.522741  0.058453  2.331908  0.081
O  O299  1  0.98256566  0.39995114  0.55270412  1  -1.126196  -0.082021  -0.323685  -0.552381  -0.053612  2.354868  -0.074
O  O300  1  0.85631429  0.68593466  0.02063320  1  -1.202651  0.001479  -0.569976  -0.739556  0.000847  1.994113  0.0
O  O301  1  0.78787931  0.48031375  0.51136068  1  -1.113342  -0.093707  -0.322941  -0.536729  -0.061016  2.350608  -0.084
O  O302  1  0.88842922  0.58887675  0.53627264  1  -1.108622  0.083535  -0.322122  -0.530284  0.054336  2.352593  0.075
O  O303  1  0.35403225  0.66920319  0.61095416  1  -1.077326  5.6e-05  -0.180151  -0.2007  3.4e-05  2.537696  0.0
O  O304  1  0.12610290  0.69873816  0.73370347  1  -1.081892  -4e-06  -0.177912  -0.202742  -1e-06  2.580757  0.0
O  O305  1  0.08750362  0.49249457  0.92373702  1  -1.105158  0.090015  -0.317959  -0.522897  0.058462  2.331515  0.081
O  O306  1  0.98257790  0.60004327  0.94729294  1  -1.126194  -0.082021  -0.323712  -0.552488  -0.053613  2.354866  -0.074
O  O307  1  0.85628799  0.31405981  0.47936163  1  -1.149413  0.001474  -0.569967  -0.739612  0.000848  1.994301  0.0
