# generated using pymatgen
data_CoH50C40(NO2)2
_symmetry_space_group_name_H-M   'P 1'
_cell_length_a   8.39630224
_cell_length_b   11.10953129
_cell_length_c   11.57999583
_cell_angle_alpha   104.51937251
_cell_angle_beta   97.97974964
_cell_angle_gamma   96.13481102
_symmetry_Int_Tables_number   1
_chemical_formula_structural   CoH50C40(NO2)2
_chemical_formula_sum   'Co1 H50 C40 N2 O4'
_cell_volume   1024.17814160
_cell_formula_units_Z   1
loop_
 _symmetry_equiv_pos_site_id
 _symmetry_equiv_pos_as_xyz
  1  'x, y, z'
loop_
 _atom_site_type_symbol
 _atom_site_label
 _atom_site_symmetry_multiplicity
 _atom_site_fract_x
 _atom_site_fract_y
 _atom_site_fract_z
 _atom_site_occupancy
 _atom_site_hle17_ddec_charge
 _atom_site_hle17_ddec_spin_density
 _atom_site_hle17_ddec_sum_bond_order
 _atom_site_hle17_magmom
 _atom_site_hse06_10hf_ddec_charge
 _atom_site_hse06_10hf_ddec_spin_density
 _atom_site_hse06_10hf_ddec_sum_bond_order
 _atom_site_hse06_10hf_magmom
 _atom_site_hse06_ddec_charge
 _atom_site_hse06_ddec_spin_density
 _atom_site_hse06_ddec_sum_bond_order
 _atom_site_hse06_magmom
 _atom_site_pbe_cm5_charge
 _atom_site_pbe_ddec_charge
 _atom_site_pbe_ddec_spin_density
 _atom_site_pbe_ddec_sum_bond_order
 _atom_site_pbe_magmom
Co  Co0  1  0.99999754  0.49999896  0.99999987  1  0.774563  0.212867  2.932036  0.102  0.838879  0.181688  3.321419  0.083  0.904422  0.087884  3.281848  0.033  0.803655  0.803943  0.224318  3.348393  0.11
H  H1  1  0.65929167  0.42823416  0.98396918  1  0.10368  0.000315  0.927942  0.0  0.110561  0.000437  0.989415  0.0  0.11407  0.000268  0.985053  0.0  0.132088  0.107577  0.000557  0.99316  0.0
H  H2  1  0.34071081  0.57176693  0.01603934  1  0.103701  0.000317  0.927862  0.0  0.110585  0.000436  0.989338  0.0  0.114095  0.000268  0.984975  0.0  0.132097  0.107601  0.000557  0.993085  0.0
H  H3  1  0.47692214  0.23754522  0.98565006  1  0.111863  -7.2e-05  0.951161  0.0  0.125707  -6e-05  1.004314  0.0  0.128517  -5.6e-05  1.003977  0.0  0.114359  0.123354  -5.7e-05  1.005298  0.0
H  H4  1  0.52307729  0.76245871  0.01436227  1  0.111835  -6.9e-05  0.951279  0.0  0.125706  -6e-05  1.004383  0.0  0.128516  -5.6e-05  1.004047  0.0  0.114337  0.123352  -5.7e-05  1.005364  0.0
H  H5  1  0.90789644  0.06434782  0.04697342  1  0.101653  -5.7e-05  0.948118  0.0  0.114224  -3.5e-05  1.003687  0.0  0.116839  -3.5e-05  1.003883  0.0  0.108241  0.112082  -4.8e-05  1.004356  0.0
H  H6  1  0.09209877  0.93564674  0.95302241  1  0.101596  -6.2e-05  0.948175  0.0  0.114183  -3.4e-05  1.003726  0.0  0.116799  -3.5e-05  1.00392  0.0  0.108208  0.112041  -4.7e-05  1.004395  0.0
H  H7  1  0.07222198  0.26735620  0.04581520  1  0.099595  0.000306  0.925241  0.0  0.106582  0.000444  0.985929  0.0  0.110304  0.000253  0.981112  0.0  0.129217  0.103412  0.0006  0.990117  0.0
H  H8  1  0.92777784  0.73263737  0.95418173  1  0.099568  0.000314  0.925351  0.0  0.106576  0.000444  0.986016  0.0  0.1103  0.000253  0.981202  0.0  0.129226  0.103404  0.000601  0.990201  0.0
H  H9  1  0.65354679  0.93904853  0.02336214  1  0.089439  -1.3e-05  0.959468  0.0  0.103062  -1.8e-05  1.018296  0.0  0.105737  -1e-05  1.016922  0.0  0.105445  0.100755  -8e-06  1.020106  0.0
H  H10  1  0.34645776  0.06095065  0.97664009  1  0.089398  -2e-05  0.959516  0.0  0.103036  -1.8e-05  1.018328  0.0  0.105711  -9e-06  1.016953  0.0  0.105442  0.100743  -8e-06  1.020123  0.0
H  H11  1  0.01097232  0.21798048  0.48442168  1  0.079852  -0.001923  0.996808  -0.002  0.093029  -0.000274  1.060639  0.0  0.095438  -0.000423  1.059047  -0.001  0.093092  0.091581  -0.000186  1.061423  0.0
H  H12  1  0.98902803  0.78202157  0.51557734  1  0.079904  -0.001927  0.996814  -0.002  0.093072  -0.000274  1.060646  0.0  0.095486  -0.000423  1.059045  -0.001  0.093104  0.09162  -0.000187  1.061434  0.0
H  H13  1  0.68152533  0.45634163  0.64389514  1  0.110302  -0.000526  0.968771  0.0  0.122885  -0.000863  1.028854  0.0  0.126378  -0.000985  1.027301  0.0  0.100478  0.120678  -0.000778  1.029734  0.0
H  H14  1  0.31846706  0.54365672  0.35610043  1  0.110268  -0.000524  0.968657  0.0  0.122844  -0.000864  1.028764  0.0  0.126343  -0.000986  1.027204  0.0  0.100447  0.120638  -0.000783  1.029652  0.0
H  H15  1  0.16205968  0.07575954  0.52428630  1  0.095226  1.1e-05  0.95132  0.0  0.116269  1.8e-05  1.012794  0.0  0.117441  -1.6e-05  1.013012  0.0  0.084325  0.115422  6.7e-05  1.012616  0.0
H  H16  1  0.83794106  0.92424439  0.47571149  1  0.095231  8e-06  0.951358  0.0  0.116297  1.8e-05  1.012802  0.0  0.117473  -1.6e-05  1.013017  0.0  0.084315  0.11545  6.8e-05  1.012624  0.0
H  H17  1  0.37376051  0.11521436  0.58112233  1  0.09742  -8e-06  0.949141  0.0  0.121142  -2.9e-05  1.005731  0.0  0.122612  -2.3e-05  1.005724  0.0  0.087053  0.120143  -2.7e-05  1.005709  0.0
H  H18  1  0.62623779  0.88478958  0.41888125  1  0.097435  -6e-06  0.94911  0.0  0.121138  -2.9e-05  1.005718  0.0  0.122611  -2.3e-05  1.005709  0.0  0.087057  0.120142  -2.9e-05  1.0057  0.0
H  H19  1  0.27387763  0.21186669  0.50276096  1  0.094617  1.5e-05  0.955309  0.0  0.116026  3.5e-05  1.016198  0.0  0.117378  1.8e-05  1.016053  0.0  0.084436  0.114897  3.2e-05  1.016532  0.0
H  H20  1  0.72612790  0.78813720  0.49724077  1  0.094654  1.3e-05  0.955317  0.0  0.116044  3.5e-05  1.016228  0.0  0.117393  1.8e-05  1.016089  0.0  0.084444  0.11492  3e-05  1.016558  0.0
H  H21  1  0.20018460  0.20078401  0.86331819  1  0.096202  2.5e-05  0.985564  0.0  0.111155  9.7e-05  1.058265  0.0  0.113949  1e-06  1.05655  0.0  0.07996  0.109383  0.000161  1.059141  0.0
H  H22  1  0.79981954  0.79921894  0.13668144  1  0.096136  3.1e-05  0.985599  0.0  0.111109  9.7e-05  1.058296  0.0  0.113905  1e-06  1.056578  0.0  0.079958  0.109344  0.000159  1.059168  0.0
H  H23  1  0.32529865  0.10154386  0.78164355  1  0.089823  -9.3e-05  0.97001  0.0  0.111794  -7e-05  1.033245  0.0  0.112039  -8.8e-05  1.035115  0.0  0.081628  0.111891  -3.4e-05  1.031648  0.0
H  H24  1  0.67470349  0.89846100  0.21835374  1  0.089797  -9.6e-05  0.970026  0.0  0.111804  -7e-05  1.033231  0.0  0.112052  -8.8e-05  1.035098  0.0  0.081637  0.111905  -3.5e-05  1.031634  0.0
H  H25  1  0.11028627  0.07258921  0.73646331  1  0.09307  -5e-05  0.949632  0.0  0.114602  -4.7e-05  1.010416  0.0  0.115605  -6.5e-05  1.010794  0.0  0.081617  0.113813  -3.9e-05  1.010271  0.0
H  H26  1  0.88971728  0.92741093  0.26353732  1  0.093093  -5e-05  0.949656  0.0  0.114629  -4.7e-05  1.010444  0.0  0.115633  -6.5e-05  1.01082  0.0  0.081643  0.113845  -4.2e-05  1.010301  0.0
H  H27  1  0.38535923  0.40307169  0.68536752  1  0.097067  -6.4e-05  0.96766  0.0  0.11851  -7.9e-05  1.031982  0.0  0.119158  -0.0001  1.032923  0.0  0.084247  0.1177  -5.9e-05  1.031836  0.0
H  H28  1  0.61464452  0.59692938  0.31463163  1  0.097052  -5.9e-05  0.967669  0.0  0.118506  -7.9e-05  1.031979  0.0  0.119156  -0.0001  1.032919  0.0  0.084261  0.117704  -6.3e-05  1.031829  0.0
H  H29  1  0.49158469  0.29741132  0.74717447  1  0.09397  -0.000156  0.958905  0.0  0.114236  -8.9e-05  1.022309  0.0  0.115061  -0.00015  1.023456  0.0  0.081127  0.113784  -4.3e-05  1.021317  0.0
H  H30  1  0.50841109  0.70258605  0.25282382  1  0.094005  -0.00014  0.958809  0.0  0.114278  -8.9e-05  1.022206  0.0  0.115107  -0.00015  1.023349  0.0  0.081159  0.113821  -4.9e-05  1.02123  0.0
H  H31  1  0.36761448  0.39266605  0.83349815  1  0.105388  -1e-06  0.968633  0.0  0.122443  8e-05  1.034577  0.0  0.125175  -1.5e-05  1.033169  0.0  0.083243  0.120605  0.000151  1.035407  0.0
H  H32  1  0.63238846  0.60733691  0.16650223  1  0.105414  -3e-06  0.968705  0.0  0.122465  8e-05  1.034643  0.0  0.125197  -1.5e-05  1.033234  0.0  0.083257  0.120636  0.000148  1.035468  0.0
H  H33  1  0.89789538  0.45648203  0.37921038  1  0.105012  0.000727  0.971701  0.0  0.123351  0.001024  1.037379  0.0  0.123533  0.001128  1.040249  0.0  0.084396  0.122891  0.00096  1.035767  0.0
H  H34  1  0.10210340  0.54351814  0.62078544  1  0.105063  0.000724  0.971731  0.0  0.123406  0.001024  1.037383  0.0  0.123593  0.001127  1.040249  0.0  0.084415  0.122938  0.000962  1.035777  0.0
H  H35  1  0.78338765  0.34296998  0.24948183  1  0.090074  0.000737  0.975386  0.001  0.107503  0.001008  1.043435  0.001  0.108175  0.001113  1.045834  0.001  0.076982  0.107395  0.000974  1.041517  0.001
H  H36  1  0.21661333  0.65702924  0.75051485  1  0.090136  0.000746  0.975271  0.001  0.107538  0.001009  1.043353  0.001  0.108213  0.001113  1.045749  0.001  0.076977  0.107428  0.000976  1.041433  0.001
H  H37  1  0.95601231  0.30523674  0.33334602  1  0.093086  -0.000161  0.955337  0.0  0.112619  -7.3e-05  1.017894  0.0  0.114084  -0.000129  1.017579  0.0  0.080368  0.111618  -2.2e-05  1.018132  0.0
H  H38  1  0.04399046  0.69476529  0.66664979  1  0.093153  -0.000159  0.95535  0.0  0.112686  -7.3e-05  1.017892  0.0  0.114154  -0.000129  1.017575  0.0  0.080394  0.111679  -2.1e-05  1.018134  0.0
H  H39  1  0.78120741  0.11293284  0.36445670  1  0.091873  -5.8e-05  0.97878  0.0  0.112476  6.7e-05  1.042862  0.0  0.113405  6.1e-05  1.043617  0.0  0.082609  0.111665  8.7e-05  1.042634  0.0
H  H40  1  0.21879597  0.88706636  0.63554109  1  0.091818  -5e-05  0.978814  0.0  0.112414  6.7e-05  1.042931  0.0  0.113345  6.1e-05  1.043685  0.0  0.08257  0.111602  8.6e-05  1.042704  0.0
H  H41  1  0.61247568  0.14797199  0.27444739  1  0.087636  0.00038  0.965819  0.0  0.106894  0.00055  1.030771  0.001  0.107997  0.000587  1.031724  0.001  0.076488  0.106619  0.000561  1.029606  0.0
H  H42  1  0.38752109  0.85202443  0.72555250  1  0.087596  0.000373  0.965824  0.0  0.106849  0.00055  1.030783  0.001  0.107952  0.000587  1.031737  0.001  0.076507  0.10657  0.000561  1.029619  0.0
H  H43  1  0.59799619  0.13233059  0.42232291  1  0.098346  -5.2e-05  0.947447  0.0  0.119289  1.8e-05  1.007677  0.0  0.120762  -9e-06  1.00763  0.0  0.084304  0.118162  4.3e-05  1.007767  0.0
H  H44  1  0.40200995  0.86767046  0.57767907  1  0.098313  -6.1e-05  0.947406  0.0  0.119251  1.8e-05  1.007649  0.0  0.120726  -9e-06  1.007598  0.0  0.084292  0.118125  4.1e-05  1.007739  0.0
H  H45  1  0.50478748  0.34752453  0.47237910  1  0.090779  -5e-05  0.9684  0.0  0.111927  -6.8e-05  1.032829  0.0  0.112978  -8.3e-05  1.033205  0.0  0.084037  0.111047  -6.1e-05  1.03281  0.0
H  H46  1  0.49521709  0.65247465  0.52761968  1  0.090686  -4.6e-05  0.968446  0.0  0.11186  -6.9e-05  1.032848  0.0  0.112909  -8.3e-05  1.033225  0.0  0.084008  0.110976  -6.3e-05  1.032835  0.0
H  H47  1  0.52658692  0.35969148  0.32499729  1  0.096142  -0.000127  0.942936  0.0  0.118339  -8.6e-05  1.001206  0.0  0.120422  -9.4e-05  1.000231  0.0  0.084435  0.117046  -8e-05  1.001738  0.0
H  H48  1  0.47341306  0.64030869  0.67499951  1  0.096086  -0.000125  0.942984  0.0  0.118312  -8.7e-05  1.001225  0.0  0.120394  -9.4e-05  1.000253  0.0  0.084409  0.117016  -7.7e-05  1.001757  0.0
H  H49  1  0.62728490  0.48025368  0.45433736  1  0.094939  -6.5e-05  0.968169  0.0  0.116375  -7.5e-05  1.030928  0.0  0.117521  -0.000102  1.031194  0.0  0.086351  0.115323  -5.4e-05  1.031208  0.0
H  H50  1  0.37272088  0.51974550  0.54566154  1  0.094965  -6.7e-05  0.968064  0.0  0.116328  -7.5e-05  1.03092  0.0  0.117472  -0.000102  1.031179  0.0  0.08634  0.115276  -5.3e-05  1.031197  0.0
C  C51  1  0.70713107  0.34489276  0.99803614  1  0.135315  -0.001342  3.667884  -0.001  0.102892  -0.000986  3.92692  -0.001  0.114809  -0.001239  3.938717  -0.001  0.060893  0.094741  -7.4e-05  3.920907  -0.001
C  C52  1  0.29286744  0.65510647  0.00197064  1  0.135332  -0.001319  3.667774  -0.001  0.102878  -0.000985  3.926832  -0.001  0.114794  -0.001237  3.938628  -0.001  0.060924  0.094726  -7.5e-05  3.92082  -0.001
C  C53  1  0.60773207  0.23751581  0.99850483  1  -0.158307  2.2e-05  3.68354  0.0  -0.172855  -0.000273  3.923475  0.0  -0.181865  -3.8e-05  3.943046  0.0  -0.075153  -0.16787  0.000547  3.912015  0.0
C  C54  1  0.39226801  0.76248529  0.00150430  1  -0.158357  -3.2e-05  3.683448  0.0  -0.172875  -0.000273  3.923365  0.0  -0.181884  -4e-05  3.942941  0.0  -0.075126  -0.167887  0.000546  3.9119  0.0
C  C55  1  0.67676558  0.13099669  0.01315235  1  0.136267  -0.000831  3.814369  -0.001  0.150056  -0.001122  4.045834  -0.001  0.157194  -0.001253  4.067174  -0.001  0.009631  0.145198  0.000877  4.032205  0.001
C  C56  1  0.32323214  0.86900443  0.98685136  1  0.136183  -0.00078  3.814118  0.0  0.149917  -0.001121  4.045655  -0.001  0.157044  -0.001252  4.067009  -0.001  0.009531  0.145061  0.000876  4.032035  0.001
C  C57  1  0.84761990  0.14259363  0.03167409  1  -0.166165  0.000121  3.703827  0.0  -0.179298  -0.000132  3.943027  0.0  -0.189234  2.7e-05  3.963817  0.0  -0.078554  -0.173468  0.000444  3.930469  0.0
C  C58  1  0.15237966  0.85740465  0.96832567  1  -0.166023  9.9e-05  3.703774  0.0  -0.179143  -0.000133  3.942981  0.0  -0.189075  2.5e-05  3.963775  0.0  -0.078473  -0.173315  0.000442  3.930426  0.0
C  C59  1  0.93999505  0.25353655  0.03131469  1  0.137229  -0.001406  3.675871  -0.001  0.10632  -0.00114  3.931711  -0.001  0.118324  -0.001454  3.944367  -0.001  0.059656  0.097974  0.000449  3.925036  0.0
C  C60  1  0.06000432  0.74646080  0.96868570  1  0.137162  -0.001393  3.675903  -0.001  0.106208  -0.001139  3.931778  -0.001  0.118207  -0.001452  3.944437  -0.001  0.059619  0.097864  0.000448  3.925101  0.0
C  C61  1  0.58212603  0.01246441  0.00954484  1  -0.097075  6.3e-05  3.723123  0.0  -0.116846  -0.000314  3.972522  0.0  -0.118107  -0.000482  3.989265  0.0  -0.076631  -0.117527  0.002287  3.963734  0.001
C  C62  1  0.41787490  0.98753480  0.99045960  1  -0.096948  8e-06  3.723018  0.0  -0.11672  -0.000315  3.972431  0.0  -0.117979  -0.000483  3.989177  0.0  -0.076613  -0.117415  0.002287  3.963636  0.001
C  C63  1  0.88411250  0.42932786  0.76443043  1  0.228943  0.066049  3.87498  0.039  0.22118  0.056353  4.151577  0.03  0.238434  0.068981  4.161934  0.035  0.062686  0.210303  0.049263  4.142682  0.027
C  C64  1  0.11588189  0.57066859  0.23556663  1  0.228896  0.066072  3.875062  0.039  0.221109  0.056383  4.151638  0.03  0.238365  0.069023  4.161979  0.035  0.062674  0.210216  0.049263  4.142771  0.027
C  C65  1  0.02715012  0.37160260  0.77854572  1  0.171061  0.07944  3.800986  0.048  0.157384  0.067254  4.071529  0.036  0.172337  0.083889  4.083241  0.044  0.064051  0.148121  0.057901  4.061734  0.032
C  C66  1  0.97284345  0.62839573  0.22145170  1  0.170884  0.07948  3.801138  0.048  0.157351  0.067287  4.071545  0.036  0.172305  0.08395  4.083241  0.044  0.063991  0.148082  0.057904  4.061778  0.032
C  C67  1  0.07537674  0.29374848  0.67600839  1  -0.057527  -0.013391  3.684644  -0.012  -0.039628  0.001777  3.915574  -0.001  -0.044064  -0.004892  3.938871  -0.006  -0.023687  -0.036513  0.005206  3.899028  0.001
C  C68  1  0.92461842  0.70625172  0.32398964  1  -0.057333  -0.013448  3.684546  -0.012  -0.03951  0.001777  3.915448  -0.001  -0.043949  -0.004907  3.938738  -0.006  -0.023648  -0.036423  0.005201  3.898944  0.001
C  C69  1  0.97624356  0.27683749  0.56444878  1  -0.170978  0.054581  3.762558  0.036  -0.205708  0.047126  4.018652  0.028  -0.206883  0.055446  4.038318  0.031  -0.108666  -0.203994  0.042427  4.003822  0.025
C  C70  1  0.02375402  0.72316270  0.43554777  1  -0.171127  0.054635  3.762398  0.036  -0.205807  0.047152  4.018499  0.028  -0.206976  0.055496  4.038145  0.031  -0.108666  -0.2041  0.042426  4.003697  0.025
C  C71  1  0.83415103  0.33293895  0.54859041  1  0.055894  0.048408  3.706475  0.033  0.071713  0.041405  3.941253  0.026  0.075433  0.049095  3.963235  0.029  -0.015613  0.069815  0.036714  3.925413  0.023
C  C72  1  0.16584956  0.66705839  0.45140578  1  0.055944  0.048402  3.706331  0.033  0.071738  0.041424  3.941149  0.026  0.075462  0.049121  3.963121  0.029  -0.015614  0.069834  0.036704  3.925322  0.023
C  C73  1  0.78878346  0.40971236  0.64984833  1  -0.238209  -0.01862  3.750591  -0.014  -0.265563  -0.004067  4.000057  -0.004  -0.273978  -0.012206  4.018023  -0.009  -0.118012  -0.259928  0.000801  3.987029  -0.001
C  C74  1  0.21121213  0.59028407  0.35014885  1  -0.238141  -0.01863  3.750456  -0.014  -0.265482  -0.004068  3.999954  -0.004  -0.273897  -0.012208  4.017903  -0.009  -0.118008  -0.259859  0.0008  3.986952  -0.001
C  C75  1  0.23029009  0.23378193  0.68889314  1  0.225353  -0.000507  3.578117  0.001  0.263704  -0.000663  3.792882  0.0  0.265176  -0.000782  3.812567  0.0  -0.010864  0.262344  -0.000586  3.780121  0.0
C  C76  1  0.76971126  0.76621916  0.31110576  1  0.225304  -0.0005  3.578168  0.001  0.263738  -0.000664  3.792809  0.0  0.265215  -0.000782  3.812479  0.0  -0.010894  0.262385  -0.000589  3.780045  0.0
C  C77  1  0.26042918  0.15474688  0.56680854  1  -0.338165  -0.000375  3.686298  0.0  -0.41692  -0.000155  3.91996  0.0  -0.420007  -0.000248  3.930792  0.0  -0.242408  -0.414488  -0.000178  3.91245  0.0
C  C78  1  0.73957294  0.84525798  0.43319135  1  -0.338235  -0.000372  3.686337  0.0  -0.417003  -0.000154  3.91998  0.0  -0.420092  -0.000247  3.930813  0.0  -0.242402  -0.414569  -0.00018  3.91247  0.0
C  C79  1  0.21574433  0.14695549  0.77320479  1  -0.345784  -0.000167  3.675366  0.0  -0.426955  0.000346  3.915263  0.0  -0.430213  -3e-05  3.925673  0.0  -0.248496  -0.424319  0.00054  3.907406  0.0
C  C80  1  0.78425842  0.85304654  0.22679448  1  -0.34573  -0.000174  3.675454  0.0  -0.426981  0.000347  3.915334  0.0  -0.43024  -3.2e-05  3.925738  0.0  -0.248537  -0.42435  0.000534  3.907488  0.0
C  C81  1  0.37783191  0.33800418  0.74248237  1  -0.338734  -0.000254  3.644362  0.0  -0.41762  0.000212  3.878743  0.0  -0.420772  -0.000152  3.888878  0.0  -0.248031  -0.415077  0.000402  3.871554  0.0
C  C82  1  0.62216704  0.66199694  0.25751628  1  -0.338774  -0.000279  3.644335  0.0  -0.417684  0.000211  3.878672  0.0  -0.420841  -0.000152  3.888801  0.0  -0.248055  -0.415134  0.000393  3.871499  0.0
C  C83  1  0.73894064  0.30907444  0.42052213  1  0.200361  -0.001669  3.602144  -0.002  0.240564  0.000682  3.814832  0.0  0.240434  0.000601  3.834487  0.0  -0.014368  0.240603  0.000711  3.80129  0.0
C  C84  1  0.26106275  0.69092476  0.57947394  1  0.20038  -0.001662  3.602113  -0.002  0.240622  0.000682  3.814738  0.0  0.240488  0.000602  3.834395  0.0  -0.01433  0.240663  0.000712  3.801186  0.0
C  C85  1  0.85108327  0.35605894  0.34116274  1  -0.336293  0.003242  3.652743  0.002  -0.41287  0.003929  3.887704  0.002  -0.416293  0.004512  3.899739  0.003  -0.247899  -0.410263  0.003578  3.879141  0.002
C  C86  1  0.14891671  0.64394123  0.65883407  1  -0.336527  0.003228  3.652744  0.002  -0.413093  0.00393  3.887699  0.002  -0.416523  0.004514  3.89973  0.003  -0.247957  -0.410482  0.003581  3.879137  0.002
C  C87  1  0.67945131  0.16721712  0.36741085  1  -0.337471  0.003051  3.67729  0.002  -0.414487  0.00324  3.910279  0.002  -0.417661  0.003697  3.921604  0.003  -0.246138  -0.411948  0.002963  3.901997  0.002
C  C88  1  0.32054947  0.83278116  0.63258731  1  -0.337329  0.003061  3.67718  0.002  -0.414332  0.003241  3.91015  0.002  -0.417505  0.003699  3.921476  0.003  -0.246131  -0.411795  0.00296  3.901869  0.002
C  C89  1  0.59093110  0.37824517  0.41854319  1  -0.337336  -0.000399  3.691354  0.0  -0.418563  -0.00053  3.928453  0.0  -0.421139  -0.000621  3.93839  0.0  -0.244314  -0.416463  -0.000466  3.921454  0.0
C  C90  1  0.40907127  0.62175498  0.58145472  1  -0.337188  -0.000408  3.691273  0.0  -0.418416  -0.00053  3.928406  0.0  -0.420976  -0.000622  3.938329  0.0  -0.244249  -0.416315  -0.000465  3.921409  0.0
N  N91  1  0.87023343  0.35212589  0.01265831  1  -0.220197  -1.8e-05  3.367875  0.0  -0.179415  0.002586  3.637905  0.002  -0.200525  0.001963  3.656057  0.002  -0.329239  -0.169301  0.005732  3.628263  0.005
N  N92  1  0.12976712  0.64787144  0.98734478  1  -0.220091  -4.4e-05  3.36774  0.0  -0.179284  0.002585  3.637767  0.002  -0.200392  0.001961  3.655922  0.002  -0.329228  -0.169168  0.005731  3.628123  0.005
O  O93  1  0.10896123  0.39739514  0.89154727  1  -0.468038  0.092219  2.123422  0.092  -0.452931  0.098711  2.394186  0.097  -0.488657  0.109207  2.397634  0.103  -0.295161  -0.428405  0.08984  2.390375  0.089
O  O94  1  0.89103233  0.60260320  0.10845188  1  -0.467961  0.092241  2.123531  0.092  -0.452853  0.098743  2.394252  0.097  -0.488584  0.109267  2.397692  0.104  -0.295121  -0.428366  0.089831  2.390457  0.089
O  O95  1  0.84848174  0.50277877  0.86489587  1  -0.474511  0.086306  2.061836  0.087  -0.464699  0.092921  2.325977  0.091  -0.499662  0.100854  2.326069  0.096  -0.306038  -0.440396  0.085806  2.324216  0.085
O  O96  1  0.15151182  0.49721957  0.13510328  1  -0.474477  0.08632  2.061934  0.087  -0.464625  0.092953  2.326075  0.091  -0.499585  0.10091  2.326158  0.096  -0.306025  -0.440354  0.085798  2.324335  0.085
