# generated using pymatgen
data_CuH8C4(NO3)2
_symmetry_space_group_name_H-M   'P 1'
_cell_length_a   7.87750835
_cell_length_b   7.82940617
_cell_length_c   7.97375753
_cell_angle_alpha   89.99882488
_cell_angle_beta   114.57701403
_cell_angle_gamma   89.99974960
_symmetry_Int_Tables_number   1
_chemical_formula_structural   CuH8C4(NO3)2
_chemical_formula_sum   'Cu2 H16 C8 N4 O12'
_cell_volume   447.23637877
_cell_formula_units_Z   2
loop_
 _symmetry_equiv_pos_site_id
 _symmetry_equiv_pos_as_xyz
  1  'x, y, z'
loop_
 _atom_site_type_symbol
 _atom_site_label
 _atom_site_symmetry_multiplicity
 _atom_site_fract_x
 _atom_site_fract_y
 _atom_site_fract_z
 _atom_site_occupancy
 _atom_site_hle17_ddec_charge
 _atom_site_hle17_ddec_spin_density
 _atom_site_hle17_ddec_sum_bond_order
 _atom_site_hle17_magmom
 _atom_site_hse06_10hf_ddec_charge
 _atom_site_hse06_10hf_ddec_spin_density
 _atom_site_hse06_10hf_ddec_sum_bond_order
 _atom_site_hse06_10hf_magmom
 _atom_site_hse06_ddec_charge
 _atom_site_hse06_ddec_spin_density
 _atom_site_hse06_ddec_sum_bond_order
 _atom_site_hse06_magmom
 _atom_site_pbe_cm5_charge
 _atom_site_pbe_ddec_charge
 _atom_site_pbe_ddec_spin_density
 _atom_site_pbe_ddec_sum_bond_order
 _atom_site_pbe_magmom
Cu  Cu0  1  0.50000189  0.00000083  0.50000200  1  0.980795  -0.68379  1.710441  -0.509  0.98468  -0.809086  2.089342  -0.66  1.06578  -0.891017  2.041038  -0.754  0.707913  0.919653  -0.696548  2.138638  -0.557
Cu  Cu1  1  0.50000086  0.49999792  0.00000117  1  0.980817  0.683812  1.710692  0.509  0.983566  0.809087  2.090647  0.66  1.065807  0.891019  2.041298  0.754  0.707937  0.919628  0.696558  2.139007  0.557
H  H2  1  0.84039813  0.03216789  0.36232167  1  0.33563  1.8e-05  0.918608  0.0  0.315828  2.4e-05  0.984442  0.0  0.324504  1.5e-05  0.9775  0.0  0.295803  0.309581  2.8e-05  0.989484  0.0
H  H3  1  0.15961519  0.53216397  0.13767641  1  0.335584  -1.7e-05  0.918528  0.0  0.31577  -2.4e-05  0.984401  0.0  0.324473  -1.5e-05  0.977424  0.0  0.295733  0.309552  -2.8e-05  0.989398  0.0
H  H4  1  0.15960174  0.96783427  0.63768054  1  0.335658  1.5e-05  0.918595  0.0  0.315863  2.4e-05  0.984422  0.0  0.32454  1.5e-05  0.977479  0.0  0.295817  0.309616  2.8e-05  0.989469  0.0
H  H5  1  0.84038468  0.46783819  0.86232706  1  0.335547  -1.7e-05  0.918555  0.0  0.315736  -2.4e-05  0.984425  0.0  0.324439  -1.5e-05  0.977447  0.0  0.295707  0.309515  -2.8e-05  0.989425  0.0
H  H6  1  0.76387301  0.13476165  0.14234498  1  0.340248  0.00034  0.91471  0.0  0.320703  0.000278  0.978905  0.0  0.331046  0.000164  0.96989  0.0  0.297777  0.313258  0.00035  0.985498  0.0
H  H7  1  0.23614951  0.63477990  0.35767110  1  0.340193  -0.000338  0.914789  0.0  0.320686  -0.000278  0.978939  0.0  0.331003  -0.000164  0.969957  0.0  0.297737  0.313223  -0.000351  0.985566  0.0
H  H8  1  0.23613105  0.86523923  0.85766021  1  0.340257  0.000339  0.914816  0.0  0.320724  0.000278  0.978983  0.0  0.331064  0.000164  0.96997  0.0  0.297803  0.313283  0.00035  0.985571  0.0
H  H9  1  0.76383082  0.36522098  0.64232057  1  0.340304  -0.000337  0.914622  0.0  0.320777  -0.000278  0.978816  0.0  0.331102  -0.000164  0.969824  0.0  0.297715  0.313307  -0.000351  0.98544  0.0
H  H10  1  0.06717508  0.18459064  0.17956885  1  0.026137  1.6e-05  0.902561  0.0  0.040293  2.1e-05  0.960928  0.0  0.041668  1.3e-05  0.95705  0.0  0.119498  0.038998  3.3e-05  0.964032  0.0
H  H11  1  0.93280322  0.68459704  0.32044180  1  0.026191  -1.5e-05  0.902252  0.0  0.040243  -2.1e-05  0.960774  0.0  0.04161  -1.4e-05  0.956895  0.0  0.119455  0.038974  -3.3e-05  0.96383  0.0
H  H12  1  0.93282898  0.81541024  0.82043885  1  0.026198  1.5e-05  0.902484  0.0  0.040295  2.2e-05  0.960917  0.0  0.041671  1.3e-05  0.957039  0.0  0.119473  0.038998  3.3e-05  0.964021  0.0
H  H13  1  0.06717712  0.31539618  0.67953732  1  0.026201  -1.4e-05  0.90212  0.0  0.040244  -2.1e-05  0.960663  0.0  0.04161  -1.3e-05  0.956784  0.0  0.119444  0.038961  -3.3e-05  0.963734  0.0
H  H14  1  0.40422634  0.22677875  0.17944859  1  0.034344  0.000741  0.952469  0.001  0.034844  0.000443  1.029924  0.0  0.034245  0.000293  1.025481  0.0  0.119444  0.034936  0.000504  1.032981  0.0
H  H15  1  0.59578885  0.72678314  0.32056260  1  0.034387  -0.000741  0.952337  -0.001  0.034911  -0.000442  1.029797  0.0  0.034324  -0.000292  1.025336  0.0  0.119418  0.035008  -0.000503  1.03284  0.0
H  H16  1  0.59577772  0.77321702  0.82054908  1  0.03435  0.000741  0.952468  0.001  0.034854  0.000443  1.029917  0.0  0.034254  0.000293  1.025477  0.0  0.119442  0.034948  0.000504  1.032966  0.0
H  H17  1  0.40421660  0.27321646  0.67944192  1  0.034429  -0.00074  0.952365  -0.001  0.034938  -0.000442  1.029827  0.0  0.034352  -0.000293  1.025365  0.0  0.119446  0.035034  -0.000503  1.032874  0.0
C  C18  1  0.04629495  0.12116833  0.29357186  1  0.546475  0.000139  3.850462  0.0  0.484138  0.000208  4.142729  0.0  0.512972  0.000142  4.139357  0.0  0.175929  0.4644  0.000255  4.143935  0.0
C  C19  1  0.95369015  0.62116682  0.20642156  1  0.546549  -0.00014  3.849606  0.0  0.484138  -0.000209  4.141963  0.0  0.513073  -0.000141  4.138597  0.0  0.175963  0.464478  -0.000255  4.143177  0.0
C  C20  1  0.95370911  0.87883511  0.70643333  1  0.54641  0.00014  3.850552  0.0  0.484108  0.000207  4.142804  0.0  0.512942  0.000141  4.13943  0.0  0.175914  0.464371  0.000255  4.144009  0.0
C  C21  1  0.04630414  0.37883278  0.79357083  1  0.546459  -0.00014  3.849704  0.0  0.484073  -0.000209  4.142019  0.0  0.513011  -0.000141  4.138652  0.0  0.17595  0.464419  -0.000255  4.143231  0.0
C  C22  1  0.51196065  0.29724771  0.29381771  1  0.580754  -0.001438  3.817615  -0.002  0.518156  -0.000425  4.129696  -0.001  0.558565  -0.000362  4.120877  -0.001  0.149414  0.489968  -0.000414  4.13434  -0.001
C  C23  1  0.48802529  0.79723036  0.20618125  1  0.580697  0.001438  3.817763  0.002  0.518039  0.000426  4.129927  0.001  0.558445  0.000362  4.121112  0.001  0.149353  0.489856  0.000412  4.134564  0.001
C  C24  1  0.48803922  0.70275317  0.70617949  1  0.580756  -0.001438  3.817762  -0.002  0.518153  -0.000425  4.129859  -0.001  0.558559  -0.000361  4.121043  -0.001  0.149419  0.48997  -0.000413  4.134502  -0.001
C  C25  1  0.51198156  0.20277052  0.79382259  1  0.580578  0.001436  3.817854  0.002  0.517912  0.000426  4.130051  0.001  0.558318  0.000361  4.121236  0.001  0.149289  0.489727  0.000412  4.134686  0.001
N  N26  1  0.86956764  0.08926520  0.26046074  1  -0.63657  0.000581  3.1351  0.001  -0.592086  0.000434  3.363192  0.001  -0.614635  0.000265  3.35632  0.0  -0.565241  -0.57671  0.000572  3.368229  0.001
N  N27  1  0.13044318  0.58926562  0.23955145  1  -0.63655  -0.000588  3.134578  -0.001  -0.592099  -0.000435  3.362696  -0.001  -0.614612  -0.000265  3.35576  0.0  -0.565151  -0.576699  -0.000573  3.36766  -0.001
N  N28  1  0.13043502  0.91073568  0.73954262  1  -0.636593  0.000585  3.135239  0.001  -0.592114  0.000434  3.363303  0.001  -0.614659  0.000265  3.356433  0.0  -0.565269  -0.57674  0.000572  3.368339  0.001
N  N29  1  0.86954413  0.41073526  0.76044309  1  -0.636682  -0.000588  3.134376  -0.001  -0.592226  -0.000434  3.362495  -0.001  -0.614748  -0.000265  3.355551  0.0  -0.565188  -0.576809  -0.000573  3.367459  -0.001
O  O30  1  0.57247887  0.23534986  0.45607362  1  -0.565555  -0.057459  2.144992  -0.079  -0.528634  -0.040465  2.419015  -0.06  -0.570058  -0.032111  2.411255  -0.05  -0.309388  -0.497705  -0.041744  2.423515  -0.06
O  O31  1  0.42749148  0.73533466  0.04393022  1  -0.56554  0.057458  2.145249  0.079  -0.528125  0.040468  2.419076  0.06  -0.570045  0.032113  2.411559  0.05  -0.309361  -0.497679  0.041746  2.423801  0.06
O  O32  1  0.42751542  0.76465102  0.54392630  1  -0.565501  -0.057456  2.145115  -0.079  -0.528578  -0.040464  2.419128  -0.06  -0.569997  -0.032111  2.411371  -0.05  -0.309369  -0.497656  -0.041743  2.42363  -0.06
O  O33  1  0.57251537  0.26466366  0.95607361  1  -0.565438  0.057464  2.145296  0.079  -0.528035  0.040469  2.419145  0.06  -0.569958  0.032114  2.41163  0.05  -0.3093  -0.497587  0.041748  2.423873  0.06
O  O34  1  0.18322590  0.08386119  0.44112716  1  -0.608679  0.002084  2.068068  0.001  -0.568217  0.001496  2.325607  0.001  -0.591967  0.001338  2.314921  0.001  -0.318683  -0.549743  0.001726  2.331895  0.001
O  O35  1  0.81676688  0.58383356  0.05887771  1  -0.608686  -0.002083  2.068041  -0.001  -0.567854  -0.001494  2.325401  -0.001  -0.59194  -0.001336  2.314861  -0.001  -0.318623  -0.54971  -0.001724  2.331845  -0.001
O  O36  1  0.81677536  0.91614353  0.55887939  1  -0.608651  0.002084  2.068111  0.001  -0.568182  0.001496  2.325631  0.001  -0.591934  0.001338  2.314947  0.001  -0.318621  -0.549711  0.001725  2.331921  0.001
O  O37  1  0.18323021  0.41615838  0.94111082  1  -0.608599  -0.002085  2.068211  -0.001  -0.567777  -0.001494  2.325566  -0.001  -0.591863  -0.001337  2.315027  -0.001  -0.31857  -0.549632  -0.001724  2.332004  -0.001
O  O38  1  0.57382716  0.43681542  0.26064235  1  -0.54321  0.068301  2.100171  0.093  -0.517186  0.044918  2.381223  0.067  -0.559229  0.035143  2.3731  0.055  -0.318508  -0.486806  0.046726  2.386346  0.067
O  O39  1  0.42617290  0.93681409  0.23934327  1  -0.543216  -0.068312  2.099963  -0.093  -0.517678  -0.044924  2.381278  -0.067  -0.55924  -0.035148  2.372949  -0.055  -0.318481  -0.486826  -0.046735  2.386188  -0.067
O  O40  1  0.42617271  0.56318546  0.73935987  1  -0.543282  0.068308  2.100155  0.093  -0.51727  0.04492  2.381225  0.067  -0.559316  0.035145  2.373107  0.055  -0.318559  -0.486889  0.046729  2.386349  0.067
O  O41  1  0.57383255  0.06318424  0.76066375  1  -0.543197  -0.068319  2.099946  -0.093  -0.51761  -0.044926  2.381204  -0.067  -0.559181  -0.035149  2.3729  -0.055  -0.318479  -0.486757  -0.046737  2.386107  -0.067
