# generated using pymatgen
data_ZnH30C32(SN10)2
_symmetry_space_group_name_H-M   'P 1'
_cell_length_a   8.45417487
_cell_length_b   9.40924627
_cell_length_c   11.62369530
_cell_angle_alpha   81.24629954
_cell_angle_beta   84.99736059
_cell_angle_gamma   89.54311851
_symmetry_Int_Tables_number   1
_chemical_formula_structural   ZnH30C32(SN10)2
_chemical_formula_sum   'Zn1 H30 C32 S2 N20'
_cell_volume   910.37008029
_cell_formula_units_Z   1
loop_
 _symmetry_equiv_pos_site_id
 _symmetry_equiv_pos_as_xyz
  1  'x, y, z'
loop_
 _atom_site_type_symbol
 _atom_site_label
 _atom_site_symmetry_multiplicity
 _atom_site_fract_x
 _atom_site_fract_y
 _atom_site_fract_z
 _atom_site_occupancy
 _atom_site_hle17_bader_spin_density
 _atom_site_hle17_ddec_charge
 _atom_site_hle17_ddec_spin_density
 _atom_site_hle17_ddec_sum_bond_order
 _atom_site_hle17_magmom
 _atom_site_hse06_10hf_bader_spin_density
 _atom_site_hse06_10hf_ddec_charge
 _atom_site_hse06_10hf_ddec_spin_density
 _atom_site_hse06_10hf_ddec_sum_bond_order
 _atom_site_hse06_10hf_magmom
 _atom_site_hse06_bader_spin_density
 _atom_site_hse06_ddec_charge
 _atom_site_hse06_ddec_spin_density
 _atom_site_hse06_ddec_sum_bond_order
 _atom_site_hse06_magmom
 _atom_site_pbe_bader_spin_density
 _atom_site_pbe_cm5_charge
 _atom_site_pbe_ddec_charge
 _atom_site_pbe_ddec_spin_density
 _atom_site_pbe_ddec_sum_bond_order
 _atom_site_pbe_magmom
Zn  Zn0  1  0.99999887  0.99999884  0.00000054  1  0  0.94169  0  2.031736  0  0  0.764158  0  2.478268  0  0  0.803691  0  2.438955  0  0  0.714029  0.736973  0  2.505009  0
H  H1  1  0.09297056  0.96284068  0.28698497  1  0  0.101719  0  0.96476  0  0  0.107529  0  1.03707  0  0  0.110134  0  1.034052  0  0  0.131428  0.10558  0  1.039156  0
H  H2  1  0.90703154  0.03715958  0.71301360  1  0  0.101713  0  0.964787  0  0  0.107494  0  1.037126  0  0  0.110119  0  1.034087  0  0  0.131415  0.105543  0  1.039215  0
H  H3  1  0.37865404  0.87157814  0.99220527  1  0  0.101215  0  0.937705  0  0  0.108793  0  1.002022  0  0  0.110786  0  0.999892  0  0  0.133859  0.107237  0  1.003669  0
H  H4  1  0.62134804  0.12841891  0.00779545  1  0  0.10123  0  0.937709  0  0  0.10881  0  1.002017  0  0  0.110802  0  0.99989  0  0  0.133883  0.107254  0  1.003663  0
H  H5  1  0.31527981  0.90617523  0.43444338  1  0  0.099325  0  0.955082  0  0  0.112656  0  1.023952  0  0  0.113811  0  1.022975  0  0  0.110117  0.111569  0  1.024942  0
H  H6  1  0.68472349  0.09382719  0.56555655  1  0  0.099276  0  0.95511  0  0  0.112595  0  1.02399  0  0  0.113751  0  1.023011  0  0  0.110106  0.111508  0  1.024981  0
H  H7  1  0.49569030  0.83736405  0.37971020  1  0  0.100877  0  0.925042  0  0  0.111966  0  0.996539  0  0  0.113297  0  0.995588  0  0  0.114618  0.111014  0  0.996982  0
H  H8  1  0.50431179  0.16263514  0.62028937  1  0  0.100908  0  0.925026  0  0  0.111982  0  0.996512  0  0  0.113305  0  0.995571  0  0  0.114627  0.111029  0  0.996957  0
H  H9  1  0.40997456  0.71777221  0.60092234  1  0  0.098249  0  0.996592  0  0  0.10398  0  1.068689  0  0  0.106466  0  1.068396  0  0  0.097536  0.101704  0  1.070221  0
H  H10  1  0.59002871  0.28222809  0.39907959  1  0  0.098213  0  0.996681  0  0  0.103935  0  1.068789  0  0  0.106421  0  1.068495  0  0  0.097509  0.101658  0  1.070318  0
H  H11  1  0.19120855  0.30164558  0.61765851  1  0  0.087251  0  0.997032  0  0  0.090856  0  1.075503  0  0  0.093269  0  1.075459  0  0  0.087738  0.088455  0  1.076448  0
H  H12  1  0.80878763  0.69835684  0.38234100  1  0  0.087245  0  0.996979  0  0  0.090887  0  1.075422  0  0  0.0933  0  1.075378  0  0  0.087756  0.088487  0  1.07637  0
H  H13  1  0.20841417  0.60424313  0.29971589  1  0  0.093988  0  0.965349  0  0  0.100196  0  1.037244  0  0  0.10293  0  1.036627  0  0  0.096937  0.098245  0  1.037842  0
H  H14  1  0.79158794  0.39575929  0.70028411  1  0  0.09399  0  0.965313  0  0  0.100203  0  1.037204  0  0  0.102938  0  1.036586  0  0  0.096931  0.098251  0  1.037806  0
H  H15  1  0.07378186  0.23832412  0.45757444  1  0  0.09002  0  0.934033  0  0  0.100129  0  1.005364  0  0  0.101641  0  1.003067  0  0  0.106929  0.098874  0  1.006547  0
H  H16  1  0.92622025  0.76167722  0.54242485  1  0  0.090048  0  0.934077  0  0  0.100172  0  1.005387  0  0  0.101685  0  1.003087  0  0  0.106971  0.098917  0  1.006569  0
H  H17  1  0.01041318  0.37809646  0.35059239  1  0  0.092321  0  0.936527  0  0  0.10377  0  1.006157  0  0  0.104478  0  1.005765  0  0  0.114797  0.103019  0  1.006272  0
H  H18  1  0.98958892  0.62190381  0.64940704  1  0  0.092325  0  0.936523  0  0  0.103778  0  1.006151  0  0  0.104487  0  1.005756  0  0  0.114808  0.103028  0  1.006264  0
H  H19  1  0.45308234  0.40912379  0.75537137  1  0  0.094627  0  0.935865  0  0  0.105146  0  1.006825  0  0  0.106374  0  1.006193  0  0  0.117252  0.104325  0  1.007162  0
H  H20  1  0.54691736  0.59087216  0.24462791  1  0  0.09458  0  0.935908  0  0  0.105079  0  1.006893  0  0  0.106307  0  1.006261  0  0  0.117228  0.104257  0  1.007236  0
H  H21  1  0.36311330  0.57234636  0.78501881  1  0  0.099521  0  0.909995  0  0  0.115924  0  0.967259  0  0  0.116837  0  0.96658  0  0  0.120156  0.115276  0  0.967719  0
H  H22  1  0.63688759  0.42765071  0.21498283  1  0  0.099502  0  0.910047  0  0  0.115906  0  0.967308  0  0  0.116819  0  0.966629  0  0  0.120173  0.115251  0  0.967777  0
H  H23  1  0.88979216  0.34597308  0.97383615  1  0  0.096613  0  0.9262  0  0  0.104453  0  0.989507  0  0  0.106795  0  0.98676  0  0  0.134625  0.102793  0  0.991378  0
H  H24  1  0.11020754  0.65402399  0.02616642  1  0  0.096593  0  0.926194  0  0  0.104433  0  0.9895  0  0  0.106774  0  0.986754  0  0  0.134625  0.102775  0  0.991369  0
H  H25  1  0.32518777  0.17944981  0.85172922  1  0  0.104676  0  0.981641  0  0  0.105597  0  1.058816  0  0  0.109064  0  1.054594  0  0  0.136151  0.1031  0  1.061691  0
H  H26  1  0.67481074  0.82054723  0.14827085  1  0  0.104688  0  0.981644  0  0  0.105606  0  1.058816  0  0  0.109078  0  1.054598  0  0  0.136141  0.103108  0  1.061696  0
H  H27  1  0.53731348  0.13475170  0.21945716  1  0  0.079223  0  0.958918  0  0  0.08679  0  1.026489  0  0  0.08788  0  1.025616  0  0  0.119682  0.085823  0  1.02724  0
H  H28  1  0.46268979  0.86524859  0.78054392  1  0  0.079187  0  0.958912  0  0  0.086761  0  1.02649  0  0  0.087849  0  1.025617  0  0  0.119675  0.085794  0  1.027242  0
H  H29  1  0.13260962  0.38222141  0.14442672  1  0  0.096795  0  0.969202  0  0  0.100968  0  1.043565  0  0  0.103951  0  1.039181  0  0  0.129665  0.09848  0  1.046596  0
H  H30  1  0.86739249  0.61777993  0.85557256  1  0  0.096831  0  0.969172  0  0  0.101002  0  1.043531  0  0  0.103984  0  1.039151  0  0  0.129669  0.098515  0  1.046562  0
C  C31  1  0.18821821  0.92809219  0.22873323  1  0  0.181726  0  3.612683  0  0  0.102626  0  3.877144  0  0  0.116658  0  3.888849  0  0  0.165218  0.093849  0  3.868883  0
C  C32  1  0.81178270  0.07190697  0.77126384  1  0  0.181713  0  3.612573  0  0  0.102657  0  3.87701  0  0  0.116671  0  3.888703  0  0  0.165206  0.093877  0  3.868754  0
C  C33  1  0.33567133  0.88027004  0.08151657  1  0  0.197196  0  3.706211  0  0  0.143804  0  3.99529  0  0  0.154972  0  4.008072  0  0  0.146827  0.136731  0  3.986233  0
C  C34  1  0.66433076  0.11972808  0.91848314  1  0  0.197192  0  3.706274  0  0  0.143805  0  3.995349  0  0  0.154972  0  4.008132  0  0  0.146785  0.13673  0  3.986294  0
C  C35  1  0.36591580  0.82471019  0.38359965  1  0  -0.067541  0  3.655149  0  0  -0.145689  0  3.89691  0  0  -0.142157  0  3.906824  0  0  -0.043185  -0.147532  0  3.890218  0
C  C36  1  0.63408748  0.17529008  0.61640057  1  0  -0.06752  0  3.655106  0  0  -0.145617  0  3.896843  0  0  -0.14208  0  3.906757  0  0  -0.043166  -0.147462  0  3.890152  0
C  C37  1  0.31476487  0.67633700  0.44355481  1  0  0.090829  0  3.757493  0  0  0.116186  0  3.99656  0  0  0.116038  0  4.021006  0  0  -0.010353  0.115759  0  3.980061  0
C  C38  1  0.68523605  0.32366544  0.55644613  1  0  0.090879  0  3.757412  0  0  0.116214  0  3.996481  0  0  0.116068  0  4.020922  0  0  -0.01033  0.115787  0  3.979981  0
C  C39  1  0.34740544  0.64032668  0.56041094  1  0  -0.162056  0  3.709141  0  0  -0.191514  0  3.951007  0  0  -0.195882  0  3.974129  0  0  -0.092544  -0.188178  0  3.93552  0
C  C40  1  0.65259665  0.35967360  0.43958935  1  0  -0.162029  0  3.709219  0  0  -0.191467  0  3.951099  0  0  -0.195834  0  3.97422  0  0  -0.092517  -0.18813  0  3.93561  0
C  C41  1  0.30224462  0.50732133  0.62420008  1  0  0.084249  0  3.756498  0  0  0.107099  0  3.998431  0  0  0.107034  0  4.022395  0  0  -0.011778  0.107571  0  3.981606  0
C  C42  1  0.69775391  0.49267895  0.37580043  1  0  0.084204  0  3.756545  0  0  0.107023  0  3.99853  0  0  0.106959  0  4.022495  0  0  -0.011788  0.107494  0  3.981712  0
C  C43  1  0.22497098  0.40768652  0.56996506  1  0  -0.165208  0  3.707447  0  0  -0.196347  0  3.955953  0  0  -0.200211  0  3.977842  0  0  -0.096915  -0.192915  0  3.940687  0
C  C44  1  0.77502637  0.59231375  0.43003466  1  0  -0.165214  0  3.707419  0  0  -0.196395  0  3.955934  0  0  -0.200258  0  3.977822  0  0  -0.096946  -0.19297  0  3.940672  0
C  C45  1  0.19264984  0.44182648  0.45330956  1  0  0.094116  0  3.750899  0  0  0.118146  0  3.991333  0  0  0.118367  0  4.013847  0  0  -0.010799  0.117661  0  3.975005  0
C  C46  1  0.80734989  0.55817595  0.54669059  1  0  0.094082  0  3.750985  0  0  0.118146  0  3.99139  0  0  0.118367  0  4.013901  0  0  -0.010815  0.117662  0  3.975059  0
C  C47  1  0.23632493  0.57726952  0.39043890  1  0  -0.175831  0  3.713795  0  0  -0.208864  0  3.964507  0  0  -0.212477  0  3.985818  0  0  -0.098124  -0.206502  0  3.950767  0
C  C48  1  0.76367717  0.42273292  0.60956197  1  0  -0.175852  0  3.713804  0  0  -0.208901  0  3.964534  0  0  -0.212513  0  3.985842  0  0  -0.098128  -0.206541  0  3.950793  0
C  C49  1  0.11356121  0.33227169  0.39401997  1  0  -0.059677  0  3.646122  0  0  -0.136726  0  3.891211  0  0  -0.124463  0  3.90341  0  0  -0.045081  -0.139312  0  3.884821  0
C  C50  1  0.88644090  0.66773073  0.60597917  1  0  -0.059665  0  3.64622  0  0  -0.136766  0  3.891323  0  0  -0.124482  0  3.903526  0  0  -0.045117  -0.139349  0  3.884929  0
C  C51  1  0.34371292  0.47297195  0.74947322  1  0  -0.049469  0  3.630652  0  0  -0.12783  0  3.874187  0  0  -0.123587  0  3.883482  0  0  -0.036616  -0.130472  0  3.867741  0
C  C52  1  0.65629037  0.52702938  0.25052514  1  0  -0.049207  0  3.63078  0  0  -0.127585  0  3.874265  0  0  -0.123347  0  3.88357  0  0  -0.03655  -0.130226  0  3.867814  0
C  C53  1  0.00565740  0.33705073  0.92754826  1  0  0.196073  0  3.722138  0  0  0.141299  0  4.016085  0  0  0.152845  0  4.029089  0  0  0.14289  0.13407  0  4.006632  0
C  C54  1  0.99434231  0.66294851  0.07245489  1  0  0.196302  0  3.722013  0  0  0.141532  0  4.015988  0  0  0.153079  0  4.028989  0  0  0.143003  0.134302  0  4.006544  0
C  C55  1  0.22431329  0.24773357  0.86802779  1  0  0.188296  0  3.629089  0  0  0.108803  0  3.895218  0  0  0.1237  0  3.904894  0  0  0.167433  0.099478  0  3.888239  0
C  C56  1  0.77568522  0.75226132  0.13197256  1  0  0.188311  0  3.629154  0  0  0.10876  0  3.895263  0  0  0.123646  0  3.904945  0  0  0.167438  0.099429  0  3.888296  0
C  C57  1  0.83032568  0.05146731  0.23912497  1  0  0.268507  0  4.083876  0  0  0.253488  0  4.385937  0  0  0.274888  0  4.399574  0  0  0.126759  0.239151  0  4.37625  0
C  C58  1  0.16966093  0.94852983  0.76088271  1  0  0.268702  0  4.084003  0  0  0.253683  0  4.386035  0  0  0.275075  0  4.399677  0  0  0.126944  0.239348  0  4.376351  0
C  C59  1  0.42703739  0.19403316  0.22750098  1  0  0.163901  0  3.77804  0  0  0.118603  0  4.077795  0  0  0.129268  0  4.087669  0  0  0.122176  0.112488  0  4.068704  0
C  C60  1  0.57296471  0.80596819  0.77249916  1  0  0.164023  0  3.777927  0  0  0.118678  0  4.077737  0  0  0.129348  0  4.087602  0  0  0.12219  0.112562  0  4.06865  0
C  C61  1  0.22644027  0.31992760  0.18600856  1  0  0.150522  0  3.670146  0  0  0.085861  0  3.937213  0  0  0.107001  0  3.95144  0  0  0.144502  0.078241  0  3.929315  0
C  C62  1  0.77356304  0.68007589  0.81399037  1  0  0.150548  0  3.670079  0  0  0.085868  0  3.93715  0  0  0.107024  0  3.951387  0  0  0.144531  0.078248  0  3.929254  0
S  S63  1  0.79148459  0.99644439  0.37755987  1  0  -0.361165  0  2.048077  0  0  -0.347653  0  2.34846  0  0  -0.359559  0  2.34197  0  0  -0.160737  -0.338627  0  2.352943  0
S  S64  1  0.20850094  0.00356122  0.62243642  1  0  -0.361504  0  2.047753  0  0  -0.347981  0  2.348109  0  0  -0.359888  0  2.341619  0  0  -0.160924  -0.338948  0  2.35259  0
N  N65  1  0.85984370  0.08752863  0.13675547  1  0  -0.565465  0  2.874361  0  0  -0.513218  0  3.150788  0  0  -0.53224  0  3.155935  0  0  -0.403328  -0.500319  0  3.147358  0
N  N66  1  0.14014656  0.91247262  0.86323767  1  0  -0.565343  0  2.874866  0  0  -0.513099  0  3.151295  0  0  -0.532111  0  3.156444  0  0  -0.403332  -0.500204  0  3.147866  0
N  N67  1  0.19460544  0.94156201  0.11228344  1  0  -0.384212  0  3.207135  0  0  -0.314685  0  3.495282  0  0  -0.335075  0  3.510683  0  0  -0.330246  -0.300971  0  3.484212  0
N  N68  1  0.80539546  0.05843608  0.88771462  1  0  -0.384169  0  3.207077  0  0  -0.314667  0  3.495247  0  0  -0.335059  0  3.510655  0  0  -0.330211  -0.300955  0  3.484183  0
N  N69  1  0.32024638  0.86171141  0.26539127  1  0  0.044961  0  3.596237  0  0  0.164572  0  3.783361  0  0  0.153696  0  3.80847  0  0  -0.136166  0.170248  0  3.768934  0
N  N70  1  0.67975335  0.13828993  0.73460816  1  0  0.044945  0  3.596264  0  0  0.164534  0  3.783392  0  0  0.153656  0  3.808506  0  0  -0.136198  0.170224  0  3.768939  0
N  N71  1  0.41597938  0.83017487  0.17244691  1  0  -0.286372  0  2.907616  0  0  -0.278151  0  3.174511  0  0  -0.287385  0  3.18844  0  0  -0.218504  -0.27162  0  3.164982  0
N  N72  1  0.58402271  0.16982433  0.82755352  1  0  -0.286373  0  2.90767  0  0  -0.278139  0  3.174559  0  0  -0.287369  0  3.188484  0  0  -0.218483  -0.27161  0  3.165028  0
N  N73  1  0.22220996  0.28309195  0.30346966  1  0  0.03806  0  3.562063  0  0  0.156647  0  3.749523  0  0  0.119896  0  3.806131  0  0  -0.137665  0.16408  0  3.731954  0
N  N74  1  0.77779333  0.71690940  0.69653042  1  0  0.037918  0  3.562119  0  0  0.156552  0  3.749549  0  0  0.119738  0  3.806224  0  0  -0.13774  0.163983  0  3.731982  0
N  N75  1  0.08828064  0.21153845  0.93239274  1  0  -0.393405  0  3.251399  0  0  -0.318988  0  3.537848  0  0  -0.340702  0  3.553263  0  0  -0.339727  -0.304334  0  3.526838  0
N  N76  1  0.91172024  0.78845862  0.06760890  1  0  -0.393494  0  3.251448  0  0  -0.319088  0  3.537948  0  0  -0.340798  0  3.553361  0  0  -0.339785  -0.304443  0  3.526951  0
N  N77  1  0.08265607  0.44843479  0.86326816  1  0  -0.295488  0  2.859224  0  0  -0.29511  0  3.129475  0  0  -0.303693  0  3.142832  0  0  -0.228186  -0.288962  0  3.120825  0
N  N78  1  0.91734243  0.55156120  0.13673377  1  0  -0.295528  0  2.859237  0  0  -0.295217  0  3.129445  0  0  -0.303802  0  3.142801  0  0  -0.228232  -0.28908  0  3.120798  0
N  N79  1  0.22228908  0.38889887  0.82642566  1  0  0.049717  0  3.559979  0  0  0.172692  0  3.742092  0  0  0.161849  0  3.766069  0  0  -0.132186  0.178401  0  3.72828  0
N  N80  1  0.77770943  0.61109817  0.17357442  1  0  0.049457  0  3.560364  0  0  0.172614  0  3.742282  0  0  0.161773  0  3.766257  0  0  -0.132246  0.178363  0  3.728397  0
N  N81  1  0.35089015  0.20178175  0.33194484  1  0  -0.29133  0  2.864664  0  0  -0.286331  0  3.132764  0  0  -0.285502  0  3.151088  0  0  -0.2326  -0.281332  0  3.123306  0
N  N82  1  0.64911195  0.79821961  0.66805531  1  0  -0.291272  0  2.864556  0  0  -0.286263  0  3.132653  0  0  -0.285413  0  3.150989  0  0  -0.232529  -0.281262  0  3.123197  0
N  N83  1  0.35546333  0.26500572  0.13476784  1  0  -0.398199  0  2.974297  0  0  -0.369549  0  3.259118  0  0  -0.382834  0  3.267261  0  0  -0.359567  -0.360633  0  3.250995  0
N  N84  1  0.64453876  0.73499455  0.86523245  1  0  -0.398281  0  2.974224  0  0  -0.369608  0  3.259056  0  0  -0.382893  0  3.267195  0  0  -0.359598  -0.360692  0  3.250936  0
