# generated using pymatgen
data_ZnH21C35(NO3)3
_symmetry_space_group_name_H-M   'P 1'
_cell_length_a   14.61935090
_cell_length_b   15.71097951
_cell_length_c   23.77066151
_cell_angle_alpha   90.56516913
_cell_angle_beta   105.73281631
_cell_angle_gamma   98.44229991
_symmetry_Int_Tables_number   1
_chemical_formula_structural   ZnH21C35(NO3)3
_chemical_formula_sum   'Zn2 H42 C70 N6 O18'
_cell_volume   5191.18401541
_cell_formula_units_Z   2
loop_
 _symmetry_equiv_pos_site_id
 _symmetry_equiv_pos_as_xyz
  1  'x, y, z'
loop_
 _atom_site_type_symbol
 _atom_site_label
 _atom_site_symmetry_multiplicity
 _atom_site_fract_x
 _atom_site_fract_y
 _atom_site_fract_z
 _atom_site_occupancy
 _atom_site_pbe_bader_charge
 _atom_site_pbe_bader_spin_density
 _atom_site_pbe_cm5_charge
 _atom_site_pbe_ddec_charge
 _atom_site_pbe_ddec_spin_density
 _atom_site_pbe_ddec_sum_bond_order
 _atom_site_pbe_magmom
Zn  Zn0  1  0.59372508  0.48296318  0.51481452  1  1.283123  0  0.6658  0.814338  0  2.439398  0
Zn  Zn1  1  0.40778322  0.51812450  0.48426441  1  1.281176  0  0.666134  0.81408  0  2.441521  0
H  H2  1  0.61534361  0.70524782  0.96644347  1  0.124565  0  0.12038  0.125971  0  0.975297  0
H  H3  1  0.38307522  0.29800591  0.03248721  1  0.124809  0  0.120652  0.126321  0  0.975104  0
H  H4  1  0.61268900  0.70687561  0.07242864  1  0.117457  0  0.120259  0.126366  0  0.974671  0
H  H5  1  0.38658120  0.29612526  0.92664885  1  0.100097  0  0.119965  0.125039  0  0.975367  0
H  H6  1  0.35679010  0.54051976  0.19161168  1  0.084574  0  0.111798  0.119449  0  0.975414  0
H  H7  1  0.38810769  0.57509695  0.76766402  1  0.073306  0  0.11092  0.116718  0  0.977524  0
H  H8  1  0.35819144  0.53824948  0.29745684  1  0.115525  0  0.108092  0.111771  0  0.997376  0
H  H9  1  0.38664315  0.57522874  0.66167113  1  0.08826  0  0.107208  0.107591  0  0.998814  0
H  H10  1  0.63942635  0.46456195  0.34169548  1  0.0978  0  0.105113  0.107872  0  1.009486  0
H  H11  1  0.61881742  0.42779081  0.69782154  1  0.092522  0  0.107521  0.111213  0  0.995765  0
H  H12  1  0.63758386  0.46521719  0.23563271  1  0.083249  0  0.108533  0.115749  0  0.981426  0
H  H13  1  0.61919216  0.42546868  0.80351431  1  0.080742  0  0.111341  0.118366  0  0.976291  0
H  H14  1  0.76307146  0.05585633  0.57576064  1  0.043175  0  0.09837  0.099521  0  1.003248  0
H  H15  1  0.24556255  0.94779678  0.50709827  1  0.076232  0  0.099937  0.100346  0  0.997944  0
H  H16  1  0.54185353  0.22180447  0.52271534  1  0.08394  0  0.102421  0.106745  0  1.032525  0
H  H17  1  0.46265550  0.77943669  0.51271228  1  0.081479  0  0.101934  0.106513  0  1.030485  0
H  H18  1  0.24493921  0.25013737  0.48025193  1  0.085446  0  0.102138  0.106555  0  1.010031  0
H  H19  1  0.75935210  0.75139709  0.55207147  1  0.102958  0  0.100538  0.101644  0  1.00899  0
H  H20  1  0.80732434  0.91091110  0.57106432  1  0.090148  0  0.099447  0.098258  0  0.999873  0
H  H21  1  0.19944301  0.09204294  0.48957955  1  0.053385  0  0.098838  0.098086  0  0.999607  0
H  H22  1  0.64069604  0.14998747  0.55917239  1  0.037291  0  0.097261  0.100183  0  1.03884  0
H  H23  1  0.36822220  0.85313073  0.52249363  1  0.063234  0  0.101129  0.101577  0  1.013261  0
H  H24  1  0.96216729  0.63699087  0.37322139  1  0.116771  0  0.113124  0.134742  0  1.050826  0
H  H25  1  0.01610489  0.31466644  0.59115936  1  0.125755  0  0.112809  0.133761  0  1.057619  0
H  H26  1  0.75680303  0.51877056  0.47048517  1  0.174465  0  0.131605  0.105858  0  1.063511  0
H  H27  1  0.23414297  0.46103910  0.51332303  1  0.202671  0  0.131709  0.106423  0  1.059164  0
H  H28  1  0.69604244  0.35432620  0.59391260  1  0.172933  0  0.13879  0.122909  0  0.974487  0
H  H29  1  0.30174852  0.63908282  0.39888651  1  0.16005  0  0.140433  0.126838  0  0.967469  0
H  H30  1  0.71663812  0.62034436  0.36962701  1  0.088457  0  0.116784  0.093038  0  0.975766  0
H  H31  1  0.82224175  0.64616606  0.34581101  1  0.0458  0  0.107671  0.075046  0  0.971681  0
H  H32  1  0.80231411  0.69442077  0.46727208  1  0.052101  0  0.095827  0.092998  0  0.986101  0
H  H33  1  0.90680780  0.72578030  0.44342539  1  0.000906  0  0.090417  0.08403  0  0.987341  0
H  H34  1  0.81179785  0.81219838  0.36496956  1  0.026552  0  0.089973  0.116557  0  0.996296  0
H  H35  1  0.81073353  0.84654585  0.43608978  1  0.028325  0  0.090575  0.1199  0  1.002121  0
H  H36  1  0.70828001  0.78105748  0.39017538  1  -0.002465  0  0.092775  0.122403  0  0.991199  0
H  H37  1  0.25051263  0.30852364  0.58067744  1  0.103107  0  0.11661  0.093626  0  0.972415  0
H  H38  1  0.13700362  0.26857474  0.59207903  1  0.04414  0  0.105641  0.070804  0  0.974622  0
H  H39  1  0.26131206  0.44349168  0.63934760  1  0.044199  0  0.092183  0.088356  0  1.000741  0
H  H40  1  0.14935902  0.40611295  0.65309452  1  0.025512  0  0.089516  0.085022  0  0.990011  0
H  H41  1  0.21962329  0.28103541  0.70615221  1  0.021894  0  0.087072  0.113435  0  0.996632  0
H  H42  1  0.28534323  0.38152168  0.73848193  1  0.088481  0  0.087321  0.123423  0  1.015288  0
H  H43  1  0.33236727  0.32084826  0.69342393  1  0.052954  0  0.090155  0.121181  0  0.994088  0
C  C44  1  0.57550625  0.66327146  0.51631235  1  1.566186  0  0.213274  0.592884  0  4.171066  0
C  C45  1  0.42718769  0.33769591  0.49499101  1  1.536874  0  0.211103  0.588035  0  4.172485  0
C  C46  1  0.50009201  0.50112534  0.38894095  1  1.582495  0  0.215969  0.592727  0  4.172339  0
C  C47  1  0.50078168  0.50102000  0.61036439  1  1.564612  0  0.212625  0.587326  0  4.181155  0
C  C48  1  0.45974113  0.42355173  0.87097524  1  1.331418  0  0.245275  0.435551  0  4.103491  0
C  C49  1  0.54036944  0.57923740  0.12826599  1  1.346607  0  0.243737  0.439196  0  4.105153  0
C  C50  1  0.54609416  0.57612940  0.88610750  1  1.335655  0  0.244129  0.438376  0  4.100466  0
C  C51  1  0.45293053  0.42707999  0.11296378  1  1.343373  0  0.245305  0.439168  0  4.102786  0
C  C52  1  0.54328285  0.57564288  0.94797859  1  -0.113126  0  -0.003634  -0.061234  0  3.988731  0
C  C53  1  0.45546030  0.42756794  0.05100789  1  -0.037787  0  -0.003251  -0.058024  0  3.98559  0
C  C54  1  0.50039037  0.50109263  0.96968462  1  0.044138  0  0.004568  0.032671  0  4.001363  0
C  C55  1  0.49859683  0.50202295  0.02933497  1  -0.033249  0  0.005023  0.030095  0  4.002638  0
C  C56  1  0.45929404  0.42564107  0.93328408  1  0.013914  0  -0.004009  -0.05984  0  3.986795  0
C  C57  1  0.54008715  0.57736034  0.06581579  1  -0.014204  0  -0.002908  -0.057655  0  3.983489  0
C  C58  1  0.58303496  0.64891087  0.98456537  1  0.066292  0  -0.060169  -0.065756  0  3.929383  0
C  C59  1  0.41562366  0.35429074  0.01441858  1  -0.013771  0  -0.060322  -0.067653  0  3.929623  0
C  C60  1  0.58150608  0.64975811  0.04337554  1  -0.019056  0  -0.060778  -0.068353  0  3.929495  0
C  C61  1  0.41761401  0.35329848  0.95569156  1  -0.001749  0  -0.060347  -0.066554  0  3.929318  0
C  C62  1  0.41838400  0.52408274  0.22481292  1  0.035379  0  -0.080653  -0.148607  0  3.966792  0
C  C63  1  0.43765861  0.54225973  0.75177413  1  -0.039926  0  -0.08164  -0.150887  0  3.976969  0
C  C64  1  0.41924740  0.52296822  0.28349714  1  -0.041801  0  -0.074588  -0.068405  0  3.958353  0
C  C65  1  0.43692120  0.54240504  0.69313411  1  -0.0674  0  -0.076944  -0.074842  0  3.976123  0
C  C66  1  0.49915383  0.50197401  0.32566415  1  -0.000371  0  -0.014543  -0.033255  0  3.95845  0
C  C67  1  0.50196341  0.50076877  0.67365665  1  0.070803  0  -0.012794  -0.03045  0  3.959085  0
C  C68  1  0.57808758  0.48144341  0.30850108  1  -0.06281  0  -0.080794  -0.08242  0  3.983187  0
C  C69  1  0.56809062  0.45913769  0.71353536  1  -0.038638  0  -0.07726  -0.07477  0  3.968584  0
C  C70  1  0.57714759  0.48172287  0.24979793  1  -0.026738  0  -0.084496  -0.15506  0  3.982359  0
C  C71  1  0.56855159  0.45815019  0.77215778  1  0.006512  0  -0.080523  -0.149228  0  3.974565  0
C  C72  1  0.49731567  0.50326919  0.20846658  1  0.266208  0  0.090357  0.199445  0  4.022956  0
C  C73  1  0.50323017  0.49974622  0.79079081  1  0.312812  0  0.091548  0.197447  0  4.021607  0
C  C74  1  0.60706128  0.75782175  0.53034001  1  -0.077621  0  -0.022237  -0.034419  0  3.993197  0
C  C75  1  0.39728972  0.24390718  0.50166990  1  0.044031  0  -0.021394  -0.032462  0  3.988346  0
C  C76  1  0.73158570  0.88187054  0.55850499  1  -0.078347  0  -0.092484  -0.140031  0  4.009695  0
C  C77  1  0.27480741  0.12085984  0.49758714  1  -0.094116  0  -0.094183  -0.140185  0  4.007265  0
C  C78  1  0.70555414  0.79394904  0.54775799  1  -0.075771  0  -0.087742  -0.095306  0  4.008314  0
C  C79  1  0.29947154  0.20812336  0.49249716  1  -0.020122  0  -0.092252  -0.107584  0  4.021629  0
C  C80  1  0.53734634  0.81041830  0.52624600  1  -0.025169  0  -0.081129  -0.13181  0  3.944772  0
C  C81  1  0.46784477  0.19152694  0.51693282  1  -0.046068  0  -0.080748  -0.129541  0  3.933534  0
C  C82  1  0.56158673  0.90022933  0.53765272  1  0.01508  0  -0.002636  0.031777  0  3.953502  0
C  C83  1  0.44503833  0.10230293  0.52248631  1  0.051188  0  -0.002753  0.036052  0  3.946697  0
C  C84  1  0.66123592  0.93685271  0.55297382  1  0.0342  0  -0.006611  0.080372  0  4.018907  0
C  C85  1  0.34583847  0.06606580  0.51164098  1  -0.103099  0  -0.006917  0.080507  0  4.015819  0
C  C86  1  0.48942131  0.95607381  0.53185480  1  -0.008916  0  -0.00291  0.035233  0  3.959094  0
C  C87  1  0.51789770  0.04660633  0.53566027  1  -0.017784  0  -0.002207  0.035194  0  3.95493  0
C  C88  1  0.61805904  0.08064186  0.55232074  1  0.05412  0  -0.091099  -0.123332  0  4.009518  0
C  C89  1  0.38987909  0.92246677  0.52225679  1  -0.077453  0  -0.091958  -0.128236  0  4.027476  0
C  C90  1  0.68699520  0.02802973  0.56172797  1  -0.111028  0  -0.093057  -0.133762  0  4.020846  0
C  C91  1  0.32104272  0.97519458  0.51370246  1  -0.021485  0  -0.094008  -0.139068  0  4.031854  0
C  C92  1  0.15245916  0.62184542  0.39919258  1  0.226593  0  0.080209  -0.028025  0  3.890155  0
C  C93  1  0.83643008  0.35261357  0.58085506  1  0.236713  0  0.080262  -0.029543  0  3.889168  0
C  C94  1  0.24603392  0.60601798  0.41692971  1  0.515474  0  0.067954  0.056753  0  3.921244  0
C  C95  1  0.74800393  0.37955059  0.57058279  1  0.519663  0  0.069119  0.057937  0  3.92071  0
C  C96  1  0.20653271  0.50555860  0.48098674  1  0.523314  0  0.072033  0.079833  0  3.853374  0
C  C97  1  0.78373650  0.47219603  0.50132975  1  0.550375  0  0.070665  0.075551  0  3.853308  0
C  C98  1  0.10833065  0.51438949  0.46460830  1  -0.02802  0  0.000883  -0.005474  0  3.923924  0
C  C99  1  0.87505671  0.44836613  0.50743498  1  -0.012146  0  0.002132  -0.002881  0  3.924237  0
C  C100  1  0.07981008  0.57759410  0.42273508  1  0.050792  0  0.015377  0.091719  0  4.015662  0
C  C101  1  0.90437776  0.38687383  0.55045350  1  0.004373  0  0.015711  0.094437  0  4.020241  0
C  C102  1  0.03716337  0.46655495  0.48959411  1  -0.000643  0  0.006999  -0.033365  0  3.886354  0
C  C103  1  0.94170272  0.48605539  0.47548200  1  0.034467  0  0.006712  -0.035419  0  3.889056  0
C  C104  1  0.91607488  0.54639233  0.43003056  1  0.554351  0  0.110252  0.25599  0  4.027937  0
C  C105  1  0.05970888  0.39939617  0.53041256  1  0.527682  0  0.113101  0.260039  0  4.022371  0
C  C106  1  0.98331567  0.59043739  0.40565570  1  0.015222  0  -0.109997  -0.284391  0  4.014779  0
C  C107  1  0.99538872  0.36218119  0.55942874  1  0.052251  0  -0.112466  -0.29116  0  4.02405  0
C  C108  1  0.79535322  0.63560231  0.38459405  1  0.375403  0  -0.054991  0.031968  0  3.826487  0
C  C109  1  0.82766026  0.71222999  0.42876611  1  -0.016126  0  -0.167745  -0.138381  0  3.976824  0
C  C110  1  0.78735478  0.79233051  0.40337076  1  0.001306  0  -0.238518  -0.350071  0  3.964784  0
C  C111  1  0.18671667  0.32767416  0.59004795  1  0.357073  0  -0.055316  0.032131  0  3.832762  0
C  C112  1  0.21403632  0.38523963  0.64569536  1  -0.03295  0  -0.170468  -0.142216  0  3.983065  0
C  C113  1  0.26541750  0.33941373  0.69864968  1  -0.100368  0  -0.242581  -0.348537  0  3.960037  0
N  N114  1  0.50341779  0.49948209  0.85156436  1  -1.181366  0  -0.230651  -0.227201  0  3.586236  0
N  N115  1  0.49650496  0.50338972  0.14756834  1  -1.164137  0  -0.231245  -0.228567  0  3.591869  0
N  N116  1  0.27213892  0.54986097  0.45845296  1  -1.24172  0  -0.324605  -0.18755  0  3.547652  0
N  N117  1  0.72384773  0.44012555  0.53213754  1  -1.259445  0  -0.323625  -0.183054  0  3.542442  0
N  N118  1  0.13343251  0.68715389  0.35539929  1  0.369387  0  0.057907  0.52464  0  4.213721  0
N  N119  1  0.85630801  0.28914397  0.62579132  1  0.377931  0  0.057725  0.52004  0  4.211981  0
O  O120  1  0.63927806  0.61379501  0.52884957  1  -1.155338  0  -0.322345  -0.545908  0  2.28896  0
O  O121  1  0.36377780  0.38732798  0.48847388  1  -1.147466  0  -0.316575  -0.541211  0  2.29669  0
O  O122  1  0.48586395  0.63885763  0.49281493  1  -1.180782  0  -0.323074  -0.557983  0  2.353918  0
O  O123  1  0.51516235  0.36161888  0.49679599  1  -1.169869  0  -0.32239  -0.556188  0  2.349344  0
O  O124  1  0.58040351  0.49713849  0.42618877  1  -1.176234  0  -0.316516  -0.550412  0  2.322696  0
O  O125  1  0.42835426  0.52521430  0.57468718  1  -1.164981  0  -0.317694  -0.547886  0  2.307201  0
O  O126  1  0.42066207  0.50457464  0.40060666  1  -1.160734  0  -0.317543  -0.54589  0  2.315975  0
O  O127  1  0.57226859  0.47677586  0.59726447  1  -1.166169  0  -0.318741  -0.549431  0  2.313294  0
O  O128  1  0.42396921  0.36013330  0.83731045  1  -1.105814  0  -0.268412  -0.431168  0  2.089572  0
O  O129  1  0.57670693  0.64237434  0.16205797  1  -1.096818  0  -0.278834  -0.435872  0  2.058813  0
O  O130  1  0.58287390  0.63880162  0.86510121  1  -1.090624  0  -0.27379  -0.428837  0  2.059335  0
O  O131  1  0.41600583  0.36449120  0.13396068  1  -1.094761  0  -0.274448  -0.428535  0  2.057963  0
O  O132  1  0.18274176  0.69400332  0.32022917  1  -0.418996  0  -0.132858  -0.332019  0  1.857337  0
O  O133  1  0.07095394  0.73242572  0.35676056  1  -0.473074  0  -0.140471  -0.338072  0  1.887686  0
O  O134  1  0.78629446  0.23889771  0.63207259  1  -0.443944  0  -0.124457  -0.33091  0  1.905352  0
O  O135  1  0.94073453  0.29001404  0.65561407  1  -0.466757  0  -0.136875  -0.3326  0  1.892654  0
O  O136  1  0.82295902  0.55695409  0.41176345  1  -1.069017  0  -0.163044  -0.186491  0  2.5913  0
O  O137  1  0.14613597  0.37402144  0.53865409  1  -1.065464  0  -0.160417  -0.179742  0  2.5886  0
