# generated using pymatgen
data_Cu2PH12C15I2N3
_symmetry_space_group_name_H-M   'P 1'
_cell_length_a   11.46887259
_cell_length_b   17.89158070
_cell_length_c   17.89587270
_cell_angle_alpha   115.55622330
_cell_angle_beta   102.32920614
_cell_angle_gamma   102.32488272
_symmetry_Int_Tables_number   1
_chemical_formula_structural   Cu2PH12C15I2N3
_chemical_formula_sum   'Cu12 P6 H72 C90 I12 N18'
_cell_volume   3035.73951230
_cell_formula_units_Z   6
loop_
 _symmetry_equiv_pos_site_id
 _symmetry_equiv_pos_as_xyz
  1  'x, y, z'
loop_
 _atom_site_type_symbol
 _atom_site_label
 _atom_site_symmetry_multiplicity
 _atom_site_fract_x
 _atom_site_fract_y
 _atom_site_fract_z
 _atom_site_occupancy
 _atom_site_pbe_bader_charge
 _atom_site_pbe_bader_spin_density
 _atom_site_pbe_cm5_charge
 _atom_site_pbe_ddec_charge
 _atom_site_pbe_ddec_spin_density
 _atom_site_pbe_ddec_sum_bond_order
 _atom_site_pbe_magmom
Cu  Cu0  1  0.96173021  0.57889690  0.55959803  1  0.287066  0  0.232427  0.104357  0  2.887815  0
Cu  Cu1  1  0.40229531  0.44043017  0.01931605  1  0.29011  0  0.231935  0.103333  0  2.888787  0
Cu  Cu2  1  0.38286735  0.98056831  0.42099866  1  0.287701  0  0.232225  0.103913  0  2.887916  0
Cu  Cu3  1  0.03827063  0.42110267  0.44040203  1  0.287095  0  0.232409  0.104312  0  2.887888  0
Cu  Cu4  1  0.59770577  0.55956808  0.98068347  1  0.290134  0  0.231929  0.103395  0  2.88863  0
Cu  Cu5  1  0.61713260  0.01943126  0.57900240  1  0.287696  0  0.232212  0.103884  0  2.887904  0
Cu  Cu6  1  0.68092448  0.58416912  0.76371657  1  0.616775  0  0.484019  0.254356  0  2.741232  0
Cu  Cu7  1  0.91737597  0.23644437  0.82062517  1  0.617793  0  0.483972  0.253112  0  2.74295  0
Cu  Cu8  1  0.09669794  0.17943692  0.41579287  1  0.616363  0  0.484124  0.252827  0  2.743894  0
Cu  Cu9  1  0.31907670  0.41583111  0.23628326  1  0.616676  0  0.483996  0.254315  0  2.741208  0
Cu  Cu10  1  0.08262432  0.76355586  0.17937733  1  0.617697  0  0.483955  0.253108  0  2.742915  0
Cu  Cu11  1  0.90330234  0.82056331  0.58420795  1  0.616355  0  0.484117  0.252801  0  2.743922  0
P  P12  1  0.84540467  0.58127167  0.64269428  1  1.323526  0  -0.051174  0.135238  0  4.169491  0
P  P13  1  0.20285702  0.35740115  0.93872091  1  1.355107  0  -0.050758  0.136131  0  4.169327  0
P  P14  1  0.26408240  0.06127412  0.41865929  1  1.346025  0  -0.051702  0.135372  0  4.171017  0
P  P15  1  0.15459651  0.41872856  0.35730723  1  1.3235  0  -0.051182  0.135245  0  4.169493  0
P  P16  1  0.79714293  0.64259842  0.06127958  1  1.355103  0  -0.050775  0.13608  0  4.169311  0
P  P17  1  0.73591610  0.93872611  0.58134129  1  1.346002  0  -0.051654  0.135463  0  4.170986  0
H  H18  1  0.84563046  0.40689991  0.53622090  1  0.126843  0  0.084639  0.092805  0  1.084181  0
H  H19  1  0.30961191  0.46386658  0.87081926  1  0.142073  0  0.084965  0.093407  0  1.084624  0
H  H20  1  0.43873059  0.12917780  0.59296381  1  0.121249  0  0.084772  0.093117  0  1.086459  0
H  H21  1  0.15436973  0.59309834  0.46377738  1  0.126879  0  0.084627  0.092749  0  1.084257  0
H  H22  1  0.69038748  0.53613366  0.12918088  1  0.142074  0  0.084975  0.093412  0  1.084631  0
H  H23  1  0.56126992  0.87082111  0.40703703  1  0.121278  0  0.08478  0.093145  0  1.086415  0
H  H24  1  0.75049836  0.26140531  0.52650097  1  0.096509  0  0.086052  0.098697  0  1.047775  0
H  H25  1  0.22430461  0.47359058  0.73506554  1  0.088685  0  0.086721  0.10048  0  1.04588  0
H  H26  1  0.48905943  0.26494219  0.73838757  1  0.094487  0  0.086098  0.09904  0  1.046023  0
H  H27  1  0.24949948  0.73859361  0.47349895  1  0.096497  0  0.086044  0.098716  0  1.047788  0
H  H28  1  0.77569323  0.52640833  0.26493494  1  0.088917  0  0.086701  0.100442  0  1.045876  0
H  H29  1  0.51094175  0.73505804  0.26161337  1  0.094507  0  0.086115  0.099073  0  1.045982  0
H  H30  1  0.64545923  0.25828396  0.63500702  1  0.103665  0  0.092171  0.105781  0  1.05766  0
H  H31  1  0.01076584  0.36515053  0.62350841  1  0.106414  0  0.092654  0.106868  0  1.056769  0
H  H32  1  0.38700731  0.37650901  0.74151710  1  0.122934  0  0.092432  0.106372  0  1.057141  0
H  H33  1  0.35453960  0.74171694  0.36499333  1  0.103606  0  0.092186  0.10581  0  1.057642  0
H  H34  1  0.98923379  0.63484838  0.37649231  1  0.106388  0  0.092665  0.106843  0  1.056838  0
H  H35  1  0.61299353  0.62349056  0.25848408  1  0.122935  0  0.092443  0.106375  0  1.057159  0
H  H36  1  0.62834626  0.39962551  0.74351782  1  0.089182  0  0.1086  0.08263  0  1.025863  0
H  H37  1  0.88508512  0.25668005  0.65635449  1  0.084743  0  0.108368  0.082147  0  1.026535  0
H  H38  1  0.22852151  0.34371943  0.60022459  1  0.08701  0  0.108172  0.081612  0  1.025865  0
H  H39  1  0.37165347  0.60037538  0.25648154  1  0.089213  0  0.108611  0.082665  0  1.02588  0
H  H40  1  0.11491239  0.74331821  0.34364566  1  0.084779  0  0.108355  0.082124  0  1.026522  0
H  H41  1  0.77147755  0.65628015  0.39977746  1  0.087643  0  0.108171  0.08162  0  1.025848  0
H  H42  1  0.10592986  0.69696861  0.74635729  1  0.110658  0  0.091213  0.106411  0  1.058315  0
H  H43  1  0.35961064  0.25359680  0.95077617  1  0.113294  0  0.090855  0.106386  0  1.057618  0
H  H44  1  0.40887468  0.04932366  0.30288711  1  0.11599  0  0.090314  0.10547  0  1.05825  0
H  H45  1  0.89406953  0.30303162  0.25364229  1  0.110655  0  0.091197  0.106372  0  1.058389  0
H  H46  1  0.64039153  0.74640541  0.04922409  1  0.113324  0  0.090872  0.106393  0  1.057648  0
H  H47  1  0.59112438  0.95067591  0.69711494  1  0.115993  0  0.090304  0.105467  0  1.05825  0
H  H48  1  0.21950946  0.80463487  0.90869005  1  0.054138  0  0.113045  0.110545  0  0.968014  0
H  H49  1  0.31084103  0.09118416  0.89603267  1  0.055541  0  0.112956  0.110426  0  0.967831  0
H  H50  1  0.41463184  0.10401801  0.19516439  1  0.089032  0  0.113238  0.110544  0  0.970513  0
H  H51  1  0.78048937  0.19536602  0.09130975  1  0.054142  0  0.113044  0.110559  0  0.967987  0
H  H52  1  0.68916259  0.90881739  0.10396639  1  0.055457  0  0.112939  0.110425  0  0.967821  0
H  H53  1  0.58536459  0.89597628  0.80483278  1  0.089043  0  0.11326  0.110577  0  0.970594  0
H  H54  1  0.09204035  0.82684269  0.01065475  1  0.11452  0  0.108781  0.113197  0  0.999119  0
H  H55  1  0.08139268  0.98929398  0.81619909  1  0.052972  0  0.10854  0.112988  0  0.999192  0
H  H56  1  0.26479290  0.18370073  0.17297846  1  0.116619  0  0.109019  0.113064  0  0.998731  0
H  H57  1  0.90796027  0.17315820  0.98934584  1  0.114532  0  0.108769  0.113177  0  0.999186  0
H  H58  1  0.91861150  0.01070692  0.18380032  1  0.052955  0  0.108531  0.11301  0  0.999149  0
H  H59  1  0.73520197  0.81629224  0.82701849  1  0.116419  0  0.10902  0.113062  0  0.99871  0
H  H60  1  0.85865141  0.73937055  0.94547012  1  0.083883  0  0.107444  0.075383  0  1.033024  0
H  H61  1  0.91331300  0.05458759  0.79391753  1  0.103907  0  0.106969  0.073785  0  1.032925  0
H  H62  1  0.11897773  0.20599222  0.26056240  1  0.084104  0  0.106847  0.074257  0  1.033169  0
H  H63  1  0.14134765  0.26062902  0.05452914  1  0.08385  0  0.107438  0.075366  0  1.033039  0
H  H64  1  0.08669085  0.94541265  0.20608378  1  0.103858  0  0.106953  0.073759  0  1.032977  0
H  H65  1  0.88102245  0.79400603  0.73943644  1  0.084084  0  0.106869  0.074282  0  1.03313  0
H  H66  1  0.73592907  0.62258297  0.51039006  1  0.104375  0  0.091661  0.091041  0  1.076068  0
H  H67  1  0.22556371  0.48966130  0.11236191  1  0.069629  0  0.092313  0.09175  0  1.076559  0
H  H68  1  0.11324554  0.88758952  0.37738912  1  0.108523  0  0.092043  0.091808  0  1.078246  0
H  H69  1  0.26407155  0.37741793  0.48961053  1  0.104375  0  0.091661  0.091045  0  1.076015  0
H  H70  1  0.77443836  0.51033893  0.88763972  1  0.069665  0  0.092308  0.091753  0  1.076536  0
H  H71  1  0.88675174  0.11241005  0.62261269  1  0.108526  0  0.092058  0.091795  0  1.07824  0
H  H72  1  0.53530214  0.65610687  0.47249051  1  0.095887  0  0.104143  0.106683  0  0.998757  0
H  H73  1  0.06276067  0.52750224  0.18372599  1  0.095917  0  0.104591  0.107268  0  0.998242  0
H  H74  1  0.87904820  0.81621684  0.34370575  1  0.115898  0  0.104153  0.106265  0  0.999319  0
H  H75  1  0.46469947  0.34389601  0.52751220  1  0.095869  0  0.104111  0.106672  0  0.99877  0
H  H76  1  0.93724060  0.47249997  0.81627526  1  0.095579  0  0.104574  0.10723  0  0.998289  0
H  H77  1  0.12094884  0.18378405  0.65629435  1  0.115904  0  0.104168  0.106296  0  0.999308  0
H  H78  1  0.39218884  0.65494604  0.56176465  1  0.117733  0  0.101318  0.111362  0  1.030345  0
H  H79  1  0.83043804  0.43830229  0.09325210  1  0.094196  0  0.101182  0.110866  0  1.028874  0
H  H80  1  0.73723244  0.90677546  0.34495049  1  0.125318  0  0.101438  0.110765  0  1.029854  0
H  H81  1  0.60781512  0.34505617  0.43823809  1  0.117679  0  0.101341  0.111374  0  1.030296  0
H  H82  1  0.16956277  0.56170257  0.90674743  1  0.09393  0  0.101172  0.110856  0  1.028906  0
H  H83  1  0.26276483  0.09322411  0.65504629  1  0.125375  0  0.101454  0.110835  0  1.029828  0
H  H84  1  0.45227763  0.61886147  0.68090454  1  0.098132  0  0.095618  0.078652  0  1.04355  0
H  H85  1  0.77149321  0.31927017  0.93802050  1  0.13234  0  0.095195  0.077593  0  1.045471  0
H  H86  1  0.83358608  0.06210525  0.38136869  1  0.092784  0  0.095542  0.07853  0  1.045339  0
H  H87  1  0.54772500  0.38113811  0.31909632  1  0.098048  0  0.095603  0.078621  0  1.04353  0
H  H88  1  0.22850694  0.68073336  0.06198005  1  0.132331  0  0.095184  0.077576  0  1.04552  0
H  H89  1  0.16641153  0.93789499  0.61862786  1  0.092843  0  0.095558  0.078554  0  1.045342  0
C  C90  1  0.78155687  0.47741435  0.64218033  1  0.020139  0  0.095254  0.107179  0  3.896604  0
C  C91  1  0.13957905  0.35793418  0.83540775  1  0.01559  0  0.095088  0.106996  0  3.895343  0
C  C92  1  0.30404247  0.16461348  0.52245881  1  0.009253  0  0.094631  0.10525  0  3.895376  0
C  C93  1  0.21844464  0.52258654  0.35782094  1  0.020295  0  0.095242  0.107171  0  3.896657  0
C  C94  1  0.86042090  0.64206539  0.16459274  1  0.015784  0  0.095079  0.106912  0  3.89531  0
C  C95  1  0.69595626  0.83538543  0.47754291  1  0.009344  0  0.094564  0.105186  0  3.895344  0
C  C96  1  0.79524961  0.40199208  0.58018063  1  -0.026278  0  -0.082572  -0.126901  0  3.960632  0
C  C97  1  0.21529117  0.41991946  0.82197551  1  -0.049089  0  -0.082208  -0.126356  0  3.960256  0
C  C98  1  0.39319018  0.17801655  0.59784730  1  -0.058496  0  -0.082267  -0.12646  0  3.962141  0
C  C99  1  0.20475457  0.59800881  0.41982045  1  -0.026326  0  -0.082535  -0.126807  0  3.960656  0
C  C100  1  0.78470789  0.58008011  0.17802487  1  -0.049039  0  -0.082216  -0.126346  0  3.960208  0
C  C101  1  0.60680945  0.82198236  0.40215398  1  -0.058339  0  -0.082266  -0.126482  0  3.962097  0
C  C102  1  0.74307673  0.32162023  0.57538085  1  -0.052872  0  -0.074271  -0.030128  0  3.946315  0
C  C103  1  0.16797965  0.42472906  0.74642107  1  -0.032985  0  -0.075707  -0.033143  0  3.94626  0
C  C104  1  0.42138305  0.25358866  0.67818426  1  -0.001806  0  -0.074809  -0.030753  0  3.944971  0
C  C105  1  0.25692534  0.67838000  0.42461910  1  -0.052895  0  -0.07431  -0.030278  0  3.946373  0
C  C106  1  0.83201908  0.57526985  0.25357953  1  -0.03354  0  -0.075662  -0.033069  0  3.946168  0
C  C107  1  0.57861657  0.74641025  0.32181646  1  -0.001907  0  -0.074839  -0.030812  0  3.945052  0
C  C108  1  0.68331859  0.31958865  0.63504346  1  -0.00368  0  -0.084976  -0.120216  0  3.962722  0
C  C109  1  0.04858023  0.36509803  0.68475388  1  -0.047248  0  -0.085584  -0.122192  0  3.962931  0
C  C110  1  0.36361697  0.31527435  0.68022179  1  -0.080451  0  -0.085208  -0.121504  0  3.962759  0
C  C111  1  0.31668170  0.68041158  0.36495513  1  -0.003672  0  -0.084973  -0.120161  0  3.96258  0
C  C112  1  0.95141850  0.63490088  0.31524672  1  -0.047101  0  -0.085621  -0.122161  0  3.962999  0
C  C113  1  0.63638266  0.68472457  0.31977893  1  -0.080446  0  -0.085248  -0.121555  0  3.962765  0
C  C114  1  0.67432517  0.39754144  0.69558337  1  0.419743  0  0.03891  0.08076  0  3.927422  0
C  C115  1  0.97899589  0.30457232  0.70217821  1  0.458879  0  0.039953  0.083004  0  3.92909  0
C  C116  1  0.27661173  0.29787616  0.60230744  1  0.466271  0  0.039491  0.082566  0  3.924753  0
C  C117  1  0.32567422  0.60245879  0.30441510  1  0.42006  0  0.038877  0.080682  0  3.927448  0
C  C118  1  0.02100116  0.69542857  0.29782414  1  0.458986  0  0.039969  0.083009  0  3.929146  0
C  C119  1  0.72338756  0.70212209  0.39769407  1  0.465581  0  0.039552  0.082649  0  3.924592  0
C  C120  1  0.92495568  0.66134500  0.76242146  1  0.140879  0  0.095931  0.106453  0  3.882257  0
C  C121  1  0.16266076  0.23762155  0.89905868  1  -0.004928  0  0.095859  0.104852  0  3.881686  0
C  C122  1  0.26342262  0.10091237  0.33852252  1  0.006189  0  0.096743  0.10596  0  3.881508  0
C  C123  1  0.07504593  0.33865788  0.23757900  1  0.140887  0  0.095973  0.106468  0  3.882205  0
C  C124  1  0.83734042  0.76237869  0.10094227  1  -0.004908  0  0.095823  0.104808  0  3.8818  0
C  C125  1  0.73657522  0.89908655  0.66147684  1  0.006217  0  0.096727  0.105983  0  3.881483  0
C  C126  1  0.05547510  0.70829206  0.79321575  1  -0.069993  0  -0.080319  -0.125546  0  3.949687  0
C  C127  1  0.26232985  0.20674927  0.91520597  1  0.01036  0  -0.080016  -0.125429  0  3.949847  0
C  C128  1  0.34699879  0.08479489  0.29153088  1  -0.013235  0  -0.080228  -0.124655  0  3.950401  0
C  C129  1  0.94452585  0.29170949  0.20678517  1  -0.069931  0  -0.080284  -0.125449  0  3.949649  0
C  C130  1  0.73767166  0.79325162  0.08479475  1  0.010102  0  -0.080049  -0.12545  0  3.949976  0
C  C131  1  0.65299994  0.91520402  0.70846748  1  -0.013542  0  -0.080227  -0.124681  0  3.95031  0
C  C132  1  0.11758352  0.76831799  0.88319992  1  -0.039867  0  -0.069737  -0.033645  0  3.960718  0
C  C133  1  0.23445137  0.11672872  0.88521586  1  -0.035571  0  -0.069641  -0.033068  0  3.960343  0
C  C134  1  0.34897650  0.11474821  0.23146852  1  -0.038012  0  -0.070515  -0.035586  0  3.964326  0
C  C135  1  0.88241709  0.23168291  0.11679955  1  -0.039878  0  -0.069767  -0.033701  0  3.960766  0
C  C136  1  0.76555103  0.88327217  0.11478554  1  -0.035179  0  -0.069589  -0.033021  0  3.960364  0
C  C137  1  0.65102247  0.88524938  0.76853098  1  -0.037672  0  -0.070526  -0.035597  0  3.964225  0
C  C138  1  0.04750393  0.78093926  0.93983907  1  -0.002615  0  -0.082201  -0.118981  0  3.975362  0
C  C139  1  0.10773546  0.06014044  0.84116631  1  0.027964  0  -0.082423  -0.120426  0  3.974969  0
C  C140  1  0.26617191  0.15872558  0.21884335  1  -0.025306  0  -0.082515  -0.117746  0  3.973002  0
C  C141  1  0.95249579  0.21906163  0.06016140  1  -0.00264  0  -0.082201  -0.119006  0  3.975497  0
C  C142  1  0.89226661  0.93985979  0.15883364  1  0.027802  0  -0.082443  -0.120497  0  3.974864  0
C  C143  1  0.73382551  0.84127069  0.78115481  1  -0.025176  0  -0.082546  -0.117792  0  3.973044  0
C  C144  1  0.91799557  0.73227740  0.90440631  1  0.437639  0  0.037922  0.085279  0  3.943738  0
C  C145  1  0.01371266  0.09562449  0.82792774  1  0.445007  0  0.038529  0.088271  0  3.942181  0
C  C146  1  0.18540754  0.17197862  0.26758715  1  0.438284  0  0.03843  0.085942  0  3.94339  0
C  C147  1  0.08200349  0.26772217  0.09559239  1  0.437642  0  0.037954  0.085344  0  3.943609  0
C  C148  1  0.98629030  0.90437574  0.17207233  1  0.445165  0  0.038584  0.088331  0  3.942118  0
C  C149  1  0.81459110  0.82801831  0.73241314  1  0.438533  0  0.038422  0.085959  0  3.943336  0
C  C150  1  0.69782303  0.60485682  0.61534108  1  0.050373  0  0.094964  0.102027  0  3.908616  0
C  C151  1  0.08261403  0.38478826  0.98965871  1  0.070791  0  0.093103  0.100267  0  3.906256  0
C  C152  1  0.09300719  0.01036364  0.39519899  1  0.064839  0  0.092435  0.09874  0  3.907768  0
C  C153  1  0.30217749  0.39514210  0.38465753  1  0.050407  0  0.094954  0.101996  0  3.908639  0
C  C154  1  0.91738659  0.61521263  0.01034188  1  0.07106  0  0.093117  0.100295  0  3.90633  0
C  C155  1  0.90699009  0.98963593  0.60480058  1  0.064809  0  0.092432  0.098705  0  3.907807  0
C  C156  1  0.67012784  0.62293046  0.54627581  1  0.011414  0  -0.080494  -0.128352  0  3.962699  0
C  C157  1  0.12389852  0.45380751  0.07679315  1  0.013893  0  -0.081361  -0.129555  0  3.960618  0
C  C158  1  0.04717053  0.92319183  0.37705845  1  -0.060898  0  -0.08059  -0.129906  0  3.963423  0
C  C159  1  0.32987399  0.37707110  0.45372468  1  0.01147  0  -0.080464  -0.128292  0  3.962596  0
C  C160  1  0.87610309  0.54619536  0.92320788  1  0.013604  0  -0.081376  -0.129572  0  3.960603  0
C  C161  1  0.95282642  0.07680709  0.62294135  1  -0.061047  0  -0.080535  -0.12978  0  3.963285  0
C  C162  1  0.55922538  0.64151428  0.52585423  1  -0.082129  0  -0.069495  -0.014428  0  3.907311  0
C  C163  1  0.03336770  0.47421347  0.11576104  1  -0.061905  0  -0.069982  -0.014648  0  3.907327  0
C  C164  1  0.91764725  0.88420454  0.35839466  1  -0.04293  0  -0.069874  -0.013334  0  3.905545  0
C  C165  1  0.44077547  0.35848529  0.47414639  1  -0.082229  0  -0.069472  -0.014485  0  3.907378  0
C  C166  1  0.96663235  0.52578809  0.88423808  1  -0.061553  0  -0.069946  -0.014545  0  3.907268  0
C  C167  1  0.08235035  0.11579570  0.64160412  1  -0.042723  0  -0.069942  -0.013424  0  3.90548  0
C  C168  1  0.47996159  0.64128730  0.57508533  1  -0.077865  0  -0.083641  -0.114373  0  3.950239  0
C  C169  1  0.90491932  0.42500798  0.06628282  1  -0.037456  0  -0.083092  -0.114058  0  3.950186  0
C  C170  1  0.83869455  0.93373590  0.35868988  1  -0.015587  0  -0.08357  -0.113527  0  3.950061  0
C  C171  1  0.52003992  0.35871360  0.42491539  1  -0.077783  0  -0.083674  -0.114358  0  3.950189  0
C  C172  1  0.09508050  0.57499490  0.93371684  1  -0.037165  0  -0.083106  -0.114111  0  3.950266  0
C  C173  1  0.16130240  0.06626301  0.64130768  1  -0.015759  0  -0.083601  -0.113673  0  3.950082  0
C  C174  1  0.51286158  0.62144501  0.64202115  1  0.494134  0  0.038013  0.09026  0  3.935599  0
C  C175  1  0.87094588  0.35813608  0.97951072  1  0.455571  0  0.039649  0.093679  0  3.934277  0
C  C176  1  0.89150133  0.02055243  0.37867464  1  0.443761  0  0.039013  0.090315  0  3.938586  0
C  C177  1  0.48714016  0.37855456  0.35798015  1  0.494312  0  0.03802  0.090266  0  3.935623  0
C  C178  1  0.12905394  0.64186679  0.02048894  1  0.455519  0  0.039687  0.093751  0  3.934357  0
C  C179  1  0.10849383  0.97944648  0.62132268  1  0.443635  0  0.038934  0.090265  0  3.938654  0
I  I180  1  0.83765866  0.46394064  0.39119414  1  -0.492334  0  -0.224811  -0.357222  0  1.854771  0
I  I181  1  0.44645055  0.60889809  0.07285179  1  -0.493124  0  -0.224709  -0.356711  0  1.854428  0
I  I182  1  0.37379076  0.92721194  0.53607580  1  -0.492039  0  -0.224698  -0.356989  0  1.854567  0
I  I183  1  0.16233918  0.53605827  0.60880467  1  -0.49232  0  -0.224803  -0.357229  0  1.854828  0
I  I184  1  0.55354888  0.39109685  0.92714720  1  -0.493124  0  -0.224704  -0.356714  0  1.854394  0
I  I185  1  0.62620920  0.07278763  0.46392470  1  -0.492032  0  -0.224708  -0.357022  0  1.854551  0
I  I186  1  0.52635201  0.58710747  0.84620417  1  -0.486311  0  -0.251866  -0.417823  0  1.946116  0
I  I187  1  0.68039536  0.15389003  0.74100771  1  -0.487719  0  -0.251878  -0.417544  0  1.945782  0
I  I188  1  0.93940337  0.25917128  0.41310622  1  -0.483819  0  -0.251705  -0.417635  0  1.947314  0
I  I189  1  0.47364851  0.41289144  0.15379444  1  -0.486271  0  -0.251869  -0.41781  0  1.94615  0
I  I190  1  0.31960525  0.84611087  0.25899401  1  -0.487735  0  -0.251873  -0.417523  0  1.94574  0
I  I191  1  0.06059602  0.74082895  0.58689448  1  -0.483805  0  -0.251702  -0.417628  0  1.947328  0
N  N192  1  0.72007970  0.47501045  0.69827846  1  -1.2077  0  -0.355623  -0.215585  0  3.653281  0
N  N193  1  0.02202077  0.30186826  0.77692982  1  -1.203188  0  -0.356143  -0.216354  0  3.654106  0
N  N194  1  0.24495213  0.22311709  0.52487673  1  -1.204976  0  -0.355191  -0.214186  0  3.64963  0
N  N195  1  0.27992213  0.52499111  0.30172259  1  -1.208081  0  -0.355577  -0.215527  0  3.653296  0
N  N196  1  0.97797796  0.69813065  0.22307078  1  -1.203287  0  -0.356103  -0.21625  0  3.654076  0
N  N197  1  0.75504693  0.77688248  0.47512420  1  -1.20515  0  -0.355146  -0.214162  0  3.649594  0
N  N198  1  0.85771340  0.67284579  0.81779365  1  -1.236285  0  -0.354364  -0.219569  0  3.655461  0
N  N199  1  0.04006486  0.18227932  0.85513817  1  -1.210779  0  -0.353959  -0.218171  0  3.654084  0
N  N200  1  0.18467228  0.14480974  0.32705953  1  -1.201395  0  -0.35366  -0.217242  0  3.654671  0
N  N201  1  0.14228688  0.32715444  0.18220606  1  -1.236243  0  -0.354376  -0.21956  0  3.655309  0
N  N202  1  0.95993576  0.81772157  0.14486299  1  -1.210793  0  -0.35396  -0.218167  0  3.654124  0
N  N203  1  0.81532589  0.85518983  0.67294128  1  -1.201617  0  -0.353641  -0.217264  0  3.654594  0
N  N204  1  0.61957766  0.60354618  0.66192198  1  -1.219546  0  -0.356566  -0.216252  0  3.66125  0
N  N205  1  0.95780065  0.33824891  0.94174117  1  -1.238442  0  -0.355872  -0.216028  0  3.658036  0
N  N206  1  0.01611747  0.05831568  0.39659108  1  -1.231794  0  -0.3547  -0.2122  0  3.658415  0
N  N207  1  0.38042408  0.39645339  0.33807764  1  -1.219666  0  -0.356556  -0.216232  0  3.661234  0
N  N208  1  0.04219997  0.66175199  0.05825999  1  -1.238404  0  -0.355884  -0.216096  0  3.658066  0
N  N209  1  0.98387981  0.94168389  0.60340793  1  -1.231612  0  -0.354664  -0.21213  0  3.658373  0
