# generated using pymatgen
data_NiH44C28(NO)4
_symmetry_space_group_name_H-M   'P 1'
_cell_length_a   8.59137549
_cell_length_b   10.15631035
_cell_length_c   10.22598529
_cell_angle_alpha   71.48912796
_cell_angle_beta   58.92896302
_cell_angle_gamma   84.68746806
_symmetry_Int_Tables_number   1
_chemical_formula_structural   NiH44C28(NO)4
_chemical_formula_sum   'Ni1 H44 C28 N4 O4'
_cell_volume   721.93186784
_cell_formula_units_Z   1
loop_
 _symmetry_equiv_pos_site_id
 _symmetry_equiv_pos_as_xyz
  1  'x, y, z'
loop_
 _atom_site_type_symbol
 _atom_site_label
 _atom_site_symmetry_multiplicity
 _atom_site_fract_x
 _atom_site_fract_y
 _atom_site_fract_z
 _atom_site_occupancy
 _atom_site_hle17_bader_spin_density
 _atom_site_hle17_ddec_charge
 _atom_site_hle17_ddec_spin_density
 _atom_site_hle17_ddec_sum_bond_order
 _atom_site_hle17_magmom
 _atom_site_hse06_10hf_bader_spin_density
 _atom_site_hse06_10hf_ddec_charge
 _atom_site_hse06_10hf_ddec_spin_density
 _atom_site_hse06_10hf_ddec_sum_bond_order
 _atom_site_hse06_10hf_magmom
 _atom_site_hse06_bader_spin_density
 _atom_site_hse06_ddec_charge
 _atom_site_hse06_ddec_spin_density
 _atom_site_hse06_ddec_sum_bond_order
 _atom_site_hse06_magmom
 _atom_site_pbe_bader_spin_density
 _atom_site_pbe_cm5_charge
 _atom_site_pbe_ddec_charge
 _atom_site_pbe_ddec_spin_density
 _atom_site_pbe_ddec_sum_bond_order
 _atom_site_pbe_magmom
Ni  Ni0  1  0.50000428  0.00000288  0.49998879  1  0  0.453629  0  2.158249  0  0  0.388561  0  2.601518  0  0  0.464508  0  2.533602  0  0  0.586837  0.344649  0  2.645616  0
H  H1  1  0.47004448  0.82212047  0.72729195  1  0  0.273356  0  0.948594  0  0  0.259226  0  1.009966  0  0  0.268353  0  1.003634  0  0  0.281407  0.252809  0  1.014618  0
H  H2  1  0.52996432  0.17787056  0.27269566  1  0  0.273294  0  0.948755  0  0  0.259175  0  1.010085  0  0  0.268297  0  1.003757  0  0  0.281389  0.252709  0  1.014837  0
H  H3  1  0.22933327  0.99020895  0.51616060  1  0  0.276619  0  0.939267  0  0  0.26331  0  0.999931  0  0  0.271607  0  0.994022  0  0  0.287814  0.257414  0  1.004435  0
H  H4  1  0.77065752  0.00979114  0.48385343  1  0  0.276612  0  0.939244  0  0  0.263293  0  0.999931  0  0  0.271591  0  0.994018  0  0  0.287816  0.257401  0  1.004422  0
H  H5  1  0.12379485  0.95879047  0.79301673  1  0  0.056808  0  0.901294  0  0  0.070143  0  0.960823  0  0  0.070642  0  0.960299  0  0  0.111344  0.069721  0  0.961322  0
H  H6  1  0.87621839  0.04120868  0.20698001  1  0  0.056762  0  0.901136  0  0  0.070043  0  0.960761  0  0  0.07053  0  0.960237  0  0  0.111325  0.069615  0  0.961259  0
H  H7  1  0.09111593  0.81192297  0.05399443  1  0  0.067043  0  0.957846  0  0  0.084248  0  1.021562  0  0  0.085027  0  1.021276  0  0  0.090201  0.083908  0  1.021366  0
H  H8  1  0.90887908  0.18807421  0.94601701  1  0  0.067034  0  0.957794  0  0  0.084277  0  1.021489  0  0  0.085054  0  1.021202  0  0  0.09019  0.083925  0  1.021306  0
H  H9  1  0.18005621  0.67168623  0.97610955  1  0  0.081257  0  0.922932  0  0  0.102076  0  0.979248  0  0  0.102683  0  0.980043  0  0  0.097223  0.101601  0  0.978765  0
H  H10  1  0.81994099  0.32831688  0.02388816  1  0  0.081244  0  0.922865  0  0  0.102104  0  0.979151  0  0  0.102715  0  0.979942  0  0  0.097218  0.101629  0  0.978657  0
H  H11  1  0.84037831  0.63959670  0.14352578  1  0  0.067024  0  0.934542  0  0  0.087428  0  0.990992  0  0  0.087656  0  0.992105  0  0  0.091071  0.086784  0  0.991202  0
H  H12  1  0.15963174  0.36039418  0.85648100  1  0  0.067024  0  0.934638  0  0  0.087432  0  0.991073  0  0  0.087658  0  0.992188  0  0  0.091042  0.086789  0  0.99128  0
H  H13  1  0.82474066  0.80528836  0.02817702  1  0  0.051333  0  0.956296  0  0  0.073001  0  1.015321  0  0  0.073289  0  1.016267  0  0  0.084971  0.072723  0  1.014768  0
H  H14  1  0.17525212  0.19470217  0.97183078  1  0  0.05145  0  0.956302  0  0  0.073123  0  1.015287  0  0  0.073414  0  1.016229  0  0  0.085034  0.072846  0  1.01474  0
H  H15  1  0.76457171  0.62786374  0.93778522  1  0  0.076689  0  0.922584  0  0  0.095687  0  0.978637  0  0  0.096526  0  0.9786  0  0  0.093806  0.095047  0  0.978755  0
H  H16  1  0.23542198  0.37211983  0.06223055  1  0  0.076699  0  0.922543  0  0  0.095663  0  0.978619  0  0  0.096503  0  0.978585  0  0  0.093762  0.095019  0  0.978738  0
H  H17  1  0.97177275  0.55594388  0.90514031  1  0  0.057991  0  0.958904  0  0  0.077334  0  1.023028  0  0  0.077292  0  1.024613  0  0  0.087486  0.077329  0  1.022033  0
H  H18  1  0.02822493  0.44405663  0.09486990  1  0  0.057991  0  0.958888  0  0  0.077349  0  1.022961  0  0  0.07731  0  1.024544  0  0  0.087495  0.077345  0  1.021966  0
H  H19  1  0.93288657  0.84911246  0.72093804  1  0  0.075481  0  0.929868  0  0  0.095185  0  0.988086  0  0  0.095985  0  0.988337  0  0  0.093138  0.094545  0  0.987978  0
H  H20  1  0.06709954  0.15087339  0.27907206  1  0  0.075455  0  0.929773  0  0  0.095153  0  0.988033  0  0  0.095946  0  0.988286  0  0  0.09311  0.094544  0  0.987881  0
H  H21  1  0.01099319  0.70531662  0.64906138  1  0  0.073243  0  0.989985  0  0  0.089881  0  1.051924  0  0  0.089567  0  1.05456  0  0  0.09245  0.089944  0  1.050393  0
H  H22  1  0.98900166  0.29467441  0.35095426  1  0  0.073264  0  0.99001  0  0  0.08993  0  1.051938  0  0  0.089599  0  1.054583  0  0  0.092492  0.089982  0  1.050421  0
H  H23  1  0.27665410  0.70576663  0.68484544  1  0  0.054731  0  0.90733  0  0  0.071568  0  0.961383  0  0  0.071591  0  0.961779  0  0  0.115044  0.071428  0  0.961257  0
H  H24  1  0.72332603  0.29423782  0.31516830  1  0  0.054738  0  0.907145  0  0  0.071538  0  0.961259  0  0  0.07155  0  0.961668  0  0  0.115048  0.071396  0  0.961127  0
H  H25  1  0.19669321  0.80823466  0.42163855  1  0  0.041506  0  0.942116  0  0  0.05465  0  1.003613  0  0  0.053183  0  1.005315  0  0  0.105944  0.055494  0  1.002673  0
H  H26  1  0.80330193  0.19177701  0.57836676  1  0  0.041502  0  0.942061  0  0  0.054643  0  1.003541  0  0  0.05319  0  1.005253  0  0  0.105969  0.055488  0  1.002601  0
H  H27  1  0.37685690  0.62865101  0.48604438  1  0  0.109477  0  0.94487  0  0  0.132191  0  1.002267  0  0  0.133386  0  1.0029  0  0  0.092782  0.131244  0  1.00196  0
H  H28  1  0.62314142  0.37134399  0.51395869  1  0  0.109524  0  0.944887  0  0  0.132244  0  1.00228  0  0  0.13344  0  1.002909  0  0  0.0928  0.131295  0  1.001975  0
H  H29  1  0.57466087  0.74746744  0.37856882  1  0  0.108524  0  0.951407  0  0  0.126556  0  1.020224  0  0  0.12795  0  1.019213  0  0  0.091416  0.125056  0  1.021686  0
H  H30  1  0.42533585  0.25254423  0.62143293  1  0  0.10847  0  0.951504  0  0  0.126535  0  1.020278  0  0  0.127926  0  1.019274  0  0  0.091391  0.125036  0  1.02173  0
H  H31  1  0.48924134  0.69427338  0.27477087  1  0  0.106391  0  0.948934  0  0  0.130412  0  1.006779  0  0  0.131412  0  1.007471  0  0  0.092476  0.129731  0  1.006073  0
H  H32  1  0.51075955  0.30574059  0.72522746  1  0  0.106378  0  0.948879  0  0  0.130419  0  1.00671  0  0  0.131422  0  1.007399  0  0  0.092474  0.129737  0  1.006003  0
H  H33  1  0.40824369  0.92308839  0.14428721  1  0  0.076037  0  0.940066  0  0  0.096298  0  0.997485  0  0  0.096557  0  0.998492  0  0  0.097058  0.096038  0  0.996848  0
H  H34  1  0.59174815  0.07690467  0.85573281  1  0  0.075998  0  0.940063  0  0  0.096248  0  0.99751  0  0  0.096504  0  0.99852  0  0  0.097024  0.095989  0  0.996871  0
H  H35  1  0.31452307  0.04716658  0.24731184  1  0  0.090536  0  0.932555  0  0  0.107742  0  0.990515  0  0  0.109062  0  0.990421  0  0  0.102237  0.106623  0  0.990874  0
H  H36  1  0.68549413  0.95283810  0.75268336  1  0  0.090435  0  0.932613  0  0  0.107644  0  0.9906  0  0  0.108959  0  0.990504  0  0  0.102213  0.106531  0  0.99096  0
H  H37  1  0.35278533  0.90176264  0.95395843  1  0  0.051431  0  0.935278  0  0  0.070108  0  0.99503  0  0  0.069114  0  0.995712  0  0  0.101994  0.07054  0  0.994536  0
H  H38  1  0.64721473  0.09823331  0.04603872  1  0  0.051393  0  0.935239  0  0  0.070076  0  0.995015  0  0  0.06908  0  0.995699  0  0  0.101965  0.070507  0  0.994516  0
H  H39  1  0.30767038  0.06077599  0.84804208  1  0  0.054174  0  0.949546  0  0  0.0723  0  1.012606  0  0  0.072075  0  1.013098  0  0  0.103302  0.072213  0  1.012566  0
H  H40  1  0.69234919  0.93922207  0.15194080  1  0  0.054022  0  0.949591  0  0  0.072231  0  1.012566  0  0  0.072028  0  1.01303  0  0  0.103253  0.072142  0  1.012529  0
H  H41  1  0.93632286  0.27376720  0.71309138  1  0  0.085332  0  0.976004  0  0  0.092935  0  1.043731  0  0  0.097135  0  1.040295  0  0  0.09388  0.09001  0  1.046209  0
H  H42  1  0.06366682  0.72622985  0.28690259  1  0  0.085303  0  0.97597  0  0  0.092947  0  1.043654  0  0  0.097146  0  1.04022  0  0  0.093897  0.090021  0  1.046133  0
H  H43  1  0.27425378  0.53395429  0.22758021  1  0  0.095646  0  0.947261  0  0  0.104247  0  1.009091  0  0  0.108884  0  1.005396  0  0  0.10026  0.100969  0  1.011741  0
H  H44  1  0.72575283  0.46604299  0.77243547  1  0  0.095668  0  0.947376  0  0  0.104289  0  1.009179  0  0  0.108923  0  1.005489  0  0  0.100279  0.101015  0  1.011829  0
C  C45  1  0.19664347  0.86335922  0.79774409  1  0  0.100933  0  3.587133  0  0  0.081428  0  3.830897  0  0  0.085361  0  3.8477  0  0  0.000608  0.078957  0  3.819611  0
C  C46  1  0.80334230  0.13663719  0.20226733  1  0  0.100911  0  3.587154  0  0  0.081424  0  3.830942  0  0  0.085361  0  3.847749  0  0  0.000602  0.078954  0  3.81964  0
C  C47  1  0.09963343  0.76218934  0.96980776  1  0  -0.159993  0  3.666408  0  0  -0.207892  0  3.930094  0  0  -0.209837  0  3.944832  0  0  -0.164451  -0.206396  0  3.919615  0
C  C48  1  0.90036438  0.23780799  0.03020155  1  0  -0.159948  0  3.666337  0  0  -0.207915  0  3.930056  0  0  -0.209847  0  3.944773  0  0  -0.164436  -0.206411  0  3.919574  0
C  C49  1  0.90649900  0.71469287  0.02126499  1  0  -0.101501  0  3.705067  0  0  -0.143043  0  3.9729  0  0  -0.144002  0  3.988059  0  0  -0.165216  -0.142148  0  3.962805  0
C  C50  1  0.09349759  0.28530118  0.97874399  1  0  -0.101702  0  3.705342  0  0  -0.143259  0  3.973186  0  0  -0.144218  0  3.988341  0  0  -0.165285  -0.14237  0  3.9631  0
C  C51  1  0.90504269  0.65393970  0.90310135  1  0  -0.10595  0  3.69576  0  0  -0.146898  0  3.961917  0  0  -0.147908  0  3.977045  0  0  -0.165703  -0.146056  0  3.951275  0
C  C52  1  0.09495692  0.34605647  0.09690179  1  0  -0.10593  0  3.695819  0  0  -0.146796  0  3.961902  0  0  -0.147819  0  3.977025  0  0  -0.165649  -0.145956  0  3.951271  0
C  C53  1  0.00602340  0.75486909  0.73164935  1  0  -0.157854  0  3.668204  0  0  -0.204522  0  3.927078  0  0  -0.206523  0  3.941813  0  0  -0.16702  -0.202451  0  3.916466  0
C  C54  1  0.99398693  0.24513933  0.26834820  1  0  -0.157815  0  3.668061  0  0  -0.204566  0  3.926972  0  0  -0.206529  0  3.941682  0  0  -0.167039  -0.20251  0  3.916374  0
C  C55  1  0.19860319  0.79817321  0.68285271  1  0  0.111021  0  3.591452  0  0  0.092039  0  3.829572  0  0  0.096133  0  3.846179  0  0  0.002563  0.089134  0  3.818396  0
C  C56  1  0.80139616  0.20183348  0.31715074  1  0  0.110892  0  3.591241  0  0  0.091954  0  3.829347  0  0  0.096046  0  3.84594  0  0  0.00255  0.089061  0  3.818162  0
C  C57  1  0.33161082  0.84474457  0.39148123  1  0  0.197788  0  3.589408  0  0  0.184395  0  3.835594  0  0  0.190056  0  3.852937  0  0  0.001436  0.180645  0  3.823913  0
C  C58  1  0.66838795  0.15525229  0.60851513  1  0  0.197845  0  3.589312  0  0  0.184549  0  3.835378  0  0  0.19013  0  3.852855  0  0  0.00146  0.180789  0  3.823715  0
C  C59  1  0.45021521  0.72219111  0.38250329  1  0  -0.343076  0  3.67584  0  0  -0.428785  0  3.925401  0  0  -0.431837  0  3.935915  0  0  -0.2426  -0.426314  0  3.918202  0
C  C60  1  0.54977897  0.27780781  0.61750101  1  0  -0.343148  0  3.675846  0  0  -0.42891  0  3.925379  0  0  -0.431943  0  3.93591  0  0  -0.242604  -0.426432  0  3.918178  0
C  C61  1  0.40699496  0.96325089  0.23284979  1  0  -0.180604  0  3.673868  0  0  -0.224838  0  3.931066  0  0  -0.227464  0  3.944529  0  0  -0.158488  -0.223104  0  3.922098  0
C  C62  1  0.59300573  0.03674759  0.76715603  1  0  -0.180401  0  3.673717  0  0  -0.224666  0  3.930862  0  0  -0.227271  0  3.944353  0  0  -0.158392  -0.222924  0  3.921885  0
C  C63  1  0.40161232  0.97801063  0.83351169  1  0  0.045435  0  3.651668  0  0  -0.013827  0  3.919155  0  0  -0.007731  0  3.932982  0  0  -0.06836  -0.017538  0  3.910002  0
C  C64  1  0.59838484  0.02197795  0.16649115  1  0  0.045697  0  3.651545  0  0  -0.013647  0  3.91908  0  0  -0.007558  0  3.932905  0  0  -0.068218  -0.017351  0  3.909906  0
C  C65  1  0.23311759  0.27385716  0.43023252  1  0  0.62534  0  3.968044  0  0  0.577587  0  4.275643  0  0  0.610058  0  4.268473  0  0  0.190941  0.555576  0  4.279882  0
C  C66  1  0.76691495  0.72617568  0.56972519  1  0  0.625294  0  3.967393  0  0  0.57739  0  4.275263  0  0  0.609861  0  4.268095  0  0  0.190824  0.55538  0  4.27951  0
C  C67  1  0.11702962  0.39323589  0.46749953  1  0  -0.068802  0  3.764326  0  0  -0.045282  0  3.991537  0  0  -0.050922  0  4.013733  0  0  -0.023912  -0.041462  0  3.976867  0
C  C68  1  0.88297769  0.60677248  0.53250315  1  0  -0.06883  0  3.764253  0  0  -0.045242  0  3.991479  0  0  -0.050879  0  4.01367  0  0  -0.023908  -0.041431  0  3.976831  0
C  C69  1  0.96254632  0.37392483  0.62109236  1  0  -0.088709  0  3.766417  0  0  -0.108966  0  4.013695  0  0  -0.110183  0  4.033931  0  0  -0.093209  -0.108086  0  4.000571  0
C  C70  1  0.03743508  0.62606238  0.37890931  1  0  -0.088702  0  3.766467  0  0  -0.108996  0  4.013722  0  0  -0.110214  0  4.03396  0  0  -0.093218  -0.108117  0  4.000596  0
C  C71  1  0.15382603  0.52080512  0.34644897  1  0  -0.079522  0  3.755623  0  0  -0.09998  0  4.0032  0  0  -0.101015  0  4.023021  0  0  -0.089515  -0.099389  0  3.98969  0
C  C72  1  0.84615768  0.47918974  0.65355498  1  0  -0.079607  0  3.755709  0  0  -0.100108  0  4.0033  0  0  -0.101137  0  4.02311  0  0  -0.089468  -0.099521  0  3.989807  0
N  N73  1  0.38973985  0.90935659  0.73132487  1  0  -0.368027  0  3.235189  0  0  -0.312523  0  3.506122  0  0  -0.342037  0  3.517107  0  0  -0.481426  -0.294157  0  3.499394  0
N  N74  1  0.61025897  0.09063298  0.26867305  1  0  -0.367791  0  3.235644  0  0  -0.312271  0  3.506552  0  0  -0.341775  0  3.517536  0  0  -0.481391  -0.29389  0  3.499857  0
N  N75  1  0.30204262  0.90093046  0.51956116  1  0  -0.395206  0  3.218062  0  0  -0.342606  0  3.483184  0  0  -0.372089  0  3.493981  0  0  -0.482947  -0.324665  0  3.476941  0
N  N76  1  0.69795725  0.09907391  0.48043605  1  0  -0.395075  0  3.217995  0  0  -0.342497  0  3.483077  0  0  -0.371947  0  3.493888  0  0  -0.482985  -0.324569  0  3.476848  0
O  O77  1  0.16390157  0.15347070  0.53293304  1  0  -0.654227  0  1.939229  0  0  -0.615319  0  2.180072  0  0  -0.637524  0  2.167153  0  0  -0.345548  -0.59996  0  2.18877  0
O  O78  1  0.83614465  0.84653807  0.46702581  1  0  -0.653957  0  1.939282  0  0  -0.614987  0  2.180202  0  0  -0.637189  0  2.167292  0  0  -0.345329  -0.599632  0  2.188894  0
O  O79  1  0.38587742  0.30242861  0.29825295  1  0  -0.634595  0  1.911578  0  0  -0.591899  0  2.130237  0  0  -0.613903  0  2.119879  0  0  -0.347965  -0.576179  0  2.136748  0
O  O80  1  0.61411268  0.69759660  0.70170841  1  0  -0.634702  0  1.911024  0  0  -0.591966  0  2.12976  0  0  -0.613979  0  2.119411  0  0  -0.348029  -0.576254  0  2.13625  0
