# generated using pymatgen
data_CuH7C7NO6
_symmetry_space_group_name_H-M   'P 1'
_cell_length_a   6.99846961
_cell_length_b   7.83017028
_cell_length_c   7.83015284
_cell_angle_alpha   97.63003010
_cell_angle_beta   100.41226586
_cell_angle_gamma   100.41251075
_symmetry_Int_Tables_number   1
_chemical_formula_structural   CuH7C7NO6
_chemical_formula_sum   'Cu2 H14 C14 N2 O12'
_cell_volume   408.95506062
_cell_formula_units_Z   2
loop_
 _symmetry_equiv_pos_site_id
 _symmetry_equiv_pos_as_xyz
  1  'x, y, z'
loop_
 _atom_site_type_symbol
 _atom_site_label
 _atom_site_symmetry_multiplicity
 _atom_site_fract_x
 _atom_site_fract_y
 _atom_site_fract_z
 _atom_site_occupancy
 _atom_site_pbe_cm5_charge
 _atom_site_pbe_ddec_charge
 _atom_site_pbe_ddec_spin_density
 _atom_site_pbe_ddec_sum_bond_order
 _atom_site_pbe_magmom
Cu  Cu0  1  0.75000081  0.33884214  0.66115792  1  0.712357  0.898911  -0.784057  2.059616  -0.62
Cu  Cu1  1  0.25000296  0.66115923  0.33884199  1  0.712357  0.898905  0.784046  2.059635  0.62
H  H2  1  0.10831261  0.49264651  0.67690392  1  0.296657  0.401333  -0.000872  0.928418  -0.001
H  H3  1  0.39169197  0.32309448  0.50735272  1  0.296655  0.401338  -0.000872  0.928425  -0.001
H  H4  1  0.89169113  0.50735488  0.32309471  1  0.296622  0.401241  0.000872  0.92855  0.001
H  H5  1  0.60831327  0.67690693  0.49264740  1  0.296642  0.401265  0.000872  0.92851  0.001
H  H6  1  0.09564549  0.38483709  0.83722882  1  0.292939  0.386165  -0.000369  0.960318  0.0
H  H7  1  0.40435275  0.16277140  0.61516374  1  0.292943  0.386178  -0.000369  0.960287  0.0
H  H8  1  0.90435565  0.61516548  0.16277218  1  0.292935  0.386174  0.000369  0.960315  0.0
H  H9  1  0.59564866  0.83723249  0.38483750  1  0.292928  0.386131  0.000369  0.960361  0.0
H  H10  1  0.75000005  0.83420981  0.16579430  1  0.118345  0.127217  0.000108  1.011783  0.0
H  H11  1  0.24999963  0.16579272  0.83420649  1  0.11836  0.127223  -0.000108  1.011746  0.0
H  H12  1  0.72167570  0.34977709  0.03802234  1  0.127759  0.110797  -0.0009  1.032327  -0.002
H  H13  1  0.77832099  0.96197067  0.65022329  1  0.12776  0.110764  -0.000899  1.032432  -0.002
H  H14  1  0.27832626  0.65022298  0.96197328  1  0.127754  0.110743  0.0009  1.032387  0.002
H  H15  1  0.22167856  0.03802400  0.34977627  1  0.127765  0.110814  0.000899  1.032384  0.002
C  C16  1  0.73213290  0.16275230  0.31732497  1  0.211654  0.583669  -0.000195  4.214531  0.001
C  C17  1  0.76786888  0.68267473  0.83724993  1  0.211659  0.583718  -0.000195  4.214613  0.001
C  C18  1  0.26786967  0.83725034  0.68267497  1  0.211626  0.583557  0.000195  4.214881  -0.001
C  C19  1  0.23213153  0.31732385  0.16275291  1  0.211673  0.583765  0.000195  4.214355  -0.001
C  C20  1  0.74052691  0.10123258  0.12913965  1  -0.014114  -0.08427  -0.007409  3.966924  -0.009
C  C21  1  0.75946507  0.87085860  0.89876813  1  -0.01415  -0.084304  -0.007409  3.966905  -0.009
C  C22  1  0.25947224  0.89876732  0.87086066  1  -0.014119  -0.0842  0.007409  3.966898  0.009
C  C23  1  0.24052919  0.12913851  0.10123234  1  -0.014134  -0.084337  0.007408  3.967006  0.009
C  C24  1  0.74999895  0.92660909  0.07339236  1  -0.053562  -0.0555  0.002291  3.889419  0.002
C  C25  1  0.24999877  0.07339074  0.92660901  1  -0.053614  -0.055582  -0.002291  3.889534  -0.002
C  C26  1  0.73635366  0.21414656  0.00531706  1  0.060255  0.086447  -9.6e-05  3.877109  0.0
C  C27  1  0.76363955  0.99467614  0.78584942  1  0.060235  0.086435  -9.6e-05  3.877033  0.0
C  C28  1  0.26364517  0.78585207  0.99468045  1  0.060234  0.086452  9.6e-05  3.877073  0.0
C  C29  1  0.23636343  0.00532128  0.21414977  1  0.060281  0.08645  9.6e-05  3.877157  0.0
N  N30  1  0.74999862  0.16191481  0.83808426  1  -0.332383  -0.231878  -0.056376  3.559812  -0.075
N  N31  1  0.25000147  0.83808250  0.16191578  1  -0.332387  -0.231877  0.056379  3.559868  0.075
O  O32  1  0.03993732  0.38075174  0.70866612  1  -0.582034  -0.745798  -0.056765  2.212208  -0.077
O  O33  1  0.46006308  0.29133564  0.61924923  1  -0.582013  -0.745819  -0.056766  2.212219  -0.077
O  O34  1  0.96006552  0.61925222  0.29133406  1  -0.581984  -0.745732  0.056769  2.21227  0.077
O  O35  1  0.53993830  0.70866827  0.38075073  1  -0.581993  -0.745704  0.056769  2.212412  0.077
O  O36  1  0.75913463  0.32800926  0.37426571  1  -0.306828  -0.544434  -0.022131  2.261147  -0.032
O  O37  1  0.74086958  0.62573202  0.67199384  1  -0.306791  -0.544446  -0.02213  2.261257  -0.032
O  O38  1  0.24087081  0.67199351  0.62573210  1  -0.306765  -0.544398  0.022134  2.261286  0.032
O  O39  1  0.25913980  0.37426818  0.32800796  1  -0.306822  -0.544464  0.022128  2.261197  0.032
O  O40  1  0.69720549  0.04707309  0.41209990  1  -0.30866  -0.563234  -0.001604  2.280546  -0.003
O  O41  1  0.80278490  0.58789854  0.95293246  1  -0.308685  -0.563252  -0.001604  2.280503  -0.003
O  O42  1  0.30278419  0.95293047  0.58789836  1  -0.308686  -0.563181  0.001604  2.280625  0.003
O  O43  1  0.19719978  0.41210082  0.04707211  1  -0.30867  -0.563279  0.001604  2.280391  0.003
