# generated using pymatgen
data_CdH28C22S(N3O4)2
_symmetry_space_group_name_H-M   'P 1'
_cell_length_a   9.97005322
_cell_length_b   11.89342344
_cell_length_c   12.11871314
_cell_angle_alpha   108.28633617
_cell_angle_beta   94.27877628
_cell_angle_gamma   89.56362509
_symmetry_Int_Tables_number   1
_chemical_formula_structural   CdH28C22S(N3O4)2
_chemical_formula_sum   'Cd2 H56 C44 S2 N12 O16'
_cell_volume   1360.45261431
_cell_formula_units_Z   2
loop_
 _symmetry_equiv_pos_site_id
 _symmetry_equiv_pos_as_xyz
  1  'x, y, z'
loop_
 _atom_site_type_symbol
 _atom_site_label
 _atom_site_symmetry_multiplicity
 _atom_site_fract_x
 _atom_site_fract_y
 _atom_site_fract_z
 _atom_site_occupancy
 _atom_site_hle17_bader_spin_density
 _atom_site_hle17_ddec_charge
 _atom_site_hle17_ddec_spin_density
 _atom_site_hle17_ddec_sum_bond_order
 _atom_site_hle17_magmom
 _atom_site_hse06_10hf_bader_spin_density
 _atom_site_hse06_10hf_ddec_charge
 _atom_site_hse06_10hf_ddec_spin_density
 _atom_site_hse06_10hf_ddec_sum_bond_order
 _atom_site_hse06_10hf_magmom
 _atom_site_hse06_bader_spin_density
 _atom_site_hse06_ddec_charge
 _atom_site_hse06_ddec_spin_density
 _atom_site_hse06_ddec_sum_bond_order
 _atom_site_hse06_magmom
 _atom_site_pbe_bader_spin_density
 _atom_site_pbe_cm5_charge
 _atom_site_pbe_ddec_charge
 _atom_site_pbe_ddec_spin_density
 _atom_site_pbe_ddec_sum_bond_order
 _atom_site_pbe_magmom
Cd  Cd0  1  0.58249544  0.96036662  0.87097964  1  0  1.034432  0  1.918245  0  0  0.82318  0  2.395423  0  0  0.872186  0  2.350107  0  0  0.804751  0.788945  0  2.426797  0
Cd  Cd1  1  0.41751032  0.03962936  0.12901570  1  0  1.034483  0  1.918217  0  0  0.823207  0  2.395438  0  0  0.872219  0  2.350117  0  0  0.804756  0.788973  0  2.426812  0
H  H2  1  0.33118945  0.92715158  0.67664854  1  0  0.37192  0  0.901276  0  0  0.343135  0  0.979426  0  0  0.354181  0  0.96799  0  0  0.308349  0.335346  0  0.987438  0
H  H3  1  0.66881430  0.07284616  0.32334392  1  0  0.371814  0  0.901425  0  0  0.343021  0  0.979597  0  0  0.354073  0  0.968157  0  0  0.308283  0.335231  0  0.987611  0
H  H4  1  0.89572331  0.97448757  0.90851136  1  0  0.378424  0  0.884556  0  0  0.349095  0  0.965549  0  0  0.359717  0  0.954043  0  0  0.312757  0.341536  0  0.973682  0
H  H5  1  0.10428265  0.02551725  0.09148419  1  0  0.37847  0  0.884358  0  0  0.349152  0  0.965357  0  0  0.359775  0  0.95385  0  0  0.312794  0.341593  0  0.97349  0
H  H6  1  0.52821646  0.90077245  0.44529382  1  0  0.097169  0  0.9268  0  0  0.109705  0  0.991934  0  0  0.111838  0  0.991286  0  0  0.101848  0.108176  0  0.992418  0
H  H7  1  0.47178841  0.09922796  0.55470364  1  0  0.097176  0  0.926805  0  0  0.109654  0  0.991959  0  0  0.111801  0  0.991278  0  0  0.101828  0.108124  0  0.992447  0
H  H8  1  0.54878473  0.75698822  0.45199229  1  0  0.094038  0  0.921476  0  0  0.111471  0  0.980001  0  0  0.113044  0  0.979802  0  0  0.102806  0.11021  0  0.980336  0
H  H9  1  0.45121916  0.24301308  0.54800456  1  0  0.094173  0  0.921544  0  0  0.111502  0  0.980128  0  0  0.113072  0  0.979935  0  0  0.102849  0.110241  0  0.980462  0
H  H10  1  0.78235704  0.75207282  0.40804682  1  0  0.063981  0  0.947257  0  0  0.082936  0  1.008943  0  0  0.083537  0  1.009515  0  0  0.087205  0.082449  0  1.008557  0
H  H11  1  0.21764789  0.24792937  0.59195201  1  0  0.063955  0  0.94723  0  0  0.082909  0  1.008904  0  0  0.083509  0  1.009475  0  0  0.087183  0.082421  0  1.008521  0
H  H12  1  0.70504354  0.83320906  0.32160344  1  0  0.066615  0  0.963278  0  0  0.083357  0  1.028572  0  0  0.084512  0  1.028662  0  0  0.086611  0.082459  0  1.028617  0
H  H13  1  0.29496024  0.16678870  0.67839234  1  0  0.066658  0  0.963292  0  0  0.083356  0  1.028598  0  0  0.084508  0  1.028692  0  0  0.086623  0.082459  0  1.02864  0
H  H14  1  0.77271440  0.02333423  0.48202121  1  0  0.074405  0  0.944323  0  0  0.093982  0  1.001779  0  0  0.095291  0  1.00188  0  0  0.091136  0.092977  0  1.001781  0
H  H15  1  0.22728647  0.97666797  0.51797410  1  0  0.074357  0  0.944355  0  0  0.093938  0  1.001796  0  0  0.095248  0  1.001896  0  0  0.091133  0.092934  0  1.001799  0
H  H16  1  0.91142948  0.93929598  0.42353387  1  0  0.074072  0  0.967076  0  0  0.090238  0  1.030619  0  0  0.09173  0  1.030552  0  0  0.091715  0.089171  0  1.030704  0
H  H17  1  0.08857542  0.06070794  0.57645887  1  0  0.074112  0  0.967179  0  0  0.090248  0  1.030731  0  0  0.091737  0  1.030668  0  0  0.091721  0.089182  0  1.030814  0
H  H18  1  0.94249149  0.86119368  0.58969960  1  0  0.113835  0  0.913978  0  0  0.128053  0  0.974689  0  0  0.130872  0  0.973118  0  0  0.108233  0.125852  0  0.97611  0
H  H19  1  0.05751139  0.13880850  0.41029582  1  0  0.113893  0  0.91405  0  0  0.12806  0  0.974776  0  0  0.130878  0  0.973202  0  0  0.108229  0.12587  0  0.976196  0
H  H20  1  0.93032928  0.01495656  0.64694085  1  0  0.102082  0  0.938904  0  0  0.114497  0  1.002432  0  0  0.117491  0  1.000279  0  0  0.103613  0.112201  0  1.004246  0
H  H21  1  0.06967261  0.98504739  0.35305257  1  0  0.102024  0  0.938861  0  0  0.114491  0  1.002288  0  0  0.117463  0  1.000157  0  0  0.103592  0.112201  0  1.004112  0
H  H22  1  0.37497597  0.73794731  0.82756855  1  0  0.097838  0  0.964712  0  0  0.103944  0  1.028614  0  0  0.107062  0  1.025697  0  0  0.11705  0.101677  0  1.030676  0
H  H23  1  0.62502979  0.26204780  0.17242983  1  0  0.097853  0  0.964564  0  0  0.103915  0  1.028529  0  0  0.107035  0  1.025608  0  0  0.117056  0.101652  0  1.030598  0
H  H24  1  0.36935290  0.52849884  0.81677236  1  0  0.110296  0  0.946281  0  0  0.123346  0  1.000372  0  0  0.126562  0  0.999165  0  0  0.114632  0.121133  0  1.001259  0
H  H25  1  0.63064994  0.47149808  0.18322971  1  0  0.110319  0  0.946264  0  0  0.123342  0  1.000378  0  0  0.126558  0  0.999173  0  0  0.114631  0.121126  0  1.001274  0
H  H26  1  0.80415809  0.55003811  0.88308748  1  0  0.112846  0  0.948063  0  0  0.123909  0  1.004403  0  0  0.126898  0  1.003782  0  0  0.113547  0.121796  0  1.005015  0
H  H27  1  0.19584478  0.44996057  0.11691431  1  0  0.112809  0  0.948021  0  0  0.123872  0  1.00439  0  0  0.126862  0  1.003766  0  0  0.113518  0.121758  0  1.005003  0
H  H28  1  0.79145648  0.75798885  0.88646446  1  0  0.098201  0  0.932034  0  0  0.104835  0  0.994979  0  0  0.1082  0  0.991686  0  0  0.121858  0.102352  0  0.997494  0
H  H29  1  0.20854529  0.24200804  0.11353260  1  0  0.098214  0  0.931976  0  0  0.104872  0  0.994891  0  0  0.108234  0  0.991604  0  0  0.121869  0.10239  0  0.997395  0
H  H30  1  0.36924093  0.37487612  0.85288840  1  0  0.105387  0  0.947748  0  0  0.119194  0  1.000673  0  0  0.122289  0  0.999776  0  0  0.111699  0.117022  0  1.001404  0
H  H31  1  0.63076279  0.62511986  0.14710518  1  0  0.10543  0  0.947909  0  0  0.119279  0  1.000762  0  0  0.122377  0  0.999867  0  0  0.111739  0.117107  0  1.001493  0
H  H32  1  0.37994972  0.17187608  0.86654202  1  0  0.085093  0  0.947729  0  0  0.090265  0  1.016455  0  0  0.093142  0  1.013569  0  0  0.115952  0.088134  0  1.018645  0
H  H33  1  0.62005304  0.82812080  0.13345343  1  0  0.085065  0  0.947703  0  0  0.090238  0  1.016446  0  0  0.093114  0  1.013565  0  0  0.11596  0.088108  0  1.018636  0
H  H34  1  0.79648015  0.17512329  0.88149204  1  0  0.08732  0  0.936379  0  0  0.093913  0  0.999652  0  0  0.097469  0  0.99626  0  0  0.119395  0.09129  0  1.002219  0
H  H35  1  0.20352498  0.82487814  0.11852637  1  0  0.087235  0  0.936519  0  0  0.093811  0  0.999804  0  0  0.097391  0  0.996385  0  0  0.119358  0.091187  0  1.002372  0
H  H36  1  0.80472684  0.37526837  0.86195183  1  0  0.1097  0  0.961775  0  0  0.119482  0  1.021065  0  0  0.122823  0  1.019515  0  0  0.110609  0.117061  0  1.022449  0
H  H37  1  0.19527525  0.62473219  0.13806534  1  0  0.109727  0  0.961685  0  0  0.119453  0  1.021038  0  0  0.122795  0  1.019488  0  0  0.110551  0.117032  0  1.022421  0
H  H38  1  0.00792642  0.23251194  0.72578766  1  0  0.36671  0  0.821765  0  0  0.358874  0  0.86664  0  0  0.366058  0  0.85963  0  0  0.343965  0.353687  0  0.871802  0
H  H39  1  0.99206646  0.76749033  0.27421219  1  0  0.366764  0  0.821771  0  0  0.358947  0  0.866613  0  0  0.366121  0  0.859621  0  0  0.343989  0.35376  0  0.871775  0
H  H40  1  0.06171648  0.76051151  0.76454799  1  0  0.381842  0  0.899399  0  0  0.352663  0  0.978397  0  0  0.363946  0  0.965614  0  0  0.305389  0.34462  0  0.98743  0
H  H41  1  0.93828345  0.23949160  0.23545167  1  0  0.381837  0  0.899384  0  0  0.352729  0  0.978305  0  0  0.364015  0  0.965508  0  0  0.305391  0.344683  0  0.987341  0
H  H42  1  0.74609665  0.26567313  0.56559300  1  0  0.097273  0  0.936893  0  0  0.108825  0  1.001339  0  0  0.111812  0  0.999576  0  0  0.098407  0.106658  0  1.002721  0
H  H43  1  0.25389338  0.73433362  0.43441301  1  0  0.097213  0  0.936795  0  0  0.108744  0  1.001273  0  0  0.111731  0  0.99951  0  0  0.098382  0.106579  0  1.002652  0
H  H44  1  0.83742076  0.28526654  0.45455757  1  0  0.104628  0  0.91248  0  0  0.120661  0  0.969599  0  0  0.123202  0  0.968479  0  0  0.104006  0.118784  0  0.97062  0
H  H45  1  0.16256521  0.71473846  0.54544769  1  0  0.10464  0  0.912377  0  0  0.120677  0  0.969497  0  0  0.12322  0  0.968373  0  0  0.104011  0.118797  0  0.97052  0
H  H46  1  0.60530411  0.33970888  0.42215351  1  0  0.067391  0  0.946824  0  0  0.082084  0  1.012199  0  0  0.083734  0  1.012106  0  0  0.085827  0.080876  0  1.012275  0
H  H47  1  0.39468291  0.66029701  0.57785373  1  0  0.067418  0  0.946897  0  0  0.082052  0  1.012317  0  0  0.083698  0  1.01223  0  0  0.085828  0.080876  0  1.012365  0
H  H48  1  0.60317320  0.43790027  0.56606527  1  0  0.051552  0  0.941966  0  0  0.071626  0  1.002422  0  0  0.072037  0  1.003524  0  0  0.080922  0.071152  0  1.001906  0
H  H49  1  0.39681386  0.56210652  0.43394389  1  0  0.05167  0  0.941864  0  0  0.071661  0  1.002409  0  0  0.072073  0  1.003507  0  0  0.080921  0.071192  0  1.001894  0
H  H50  1  0.64039263  0.54805591  0.42301315  1  0  0.05273  0  0.953651  0  0  0.069197  0  1.0203  0  0  0.07035  0  1.020532  0  0  0.081018  0.068208  0  1.020377  0
H  H51  1  0.35959638  0.45195083  0.57699115  1  0  0.052818  0  0.95374  0  0  0.06925  0  1.020406  0  0  0.070433  0  1.02061  0  0  0.081055  0.068263  0  1.020476  0
H  H52  1  0.78847529  0.46653352  0.38479999  1  0  0.073947  0  0.947697  0  0  0.088662  0  1.013745  0  0  0.089612  0  1.014084  0  0  0.087954  0.08782  0  1.013665  0
H  H53  1  0.21151369  0.53346971  0.61520820  1  0  0.073885  0  0.947703  0  0  0.088637  0  1.013718  0  0  0.089588  0  1.014063  0  0  0.087948  0.087788  0  1.013645  0
H  H54  1  0.73178776  0.64798544  0.61870764  1  0  0.08105  0  0.925396  0  0  0.096744  0  0.987956  0  0  0.097631  0  0.988818  0  0  0.092664  0.096053  0  0.98741  0
H  H55  1  0.26820631  0.35202216  0.38129719  1  0  0.081077  0  0.925436  0  0  0.096758  0  0.988011  0  0  0.097642  0  0.988881  0  0  0.092659  0.096061  0  0.987471  0
H  H56  1  0.86040120  0.65317636  0.52957336  1  0  0.090081  0  0.945536  0  0  0.103836  0  1.009586  0  0  0.105233  0  1.009785  0  0  0.098491  0.102799  0  1.009535  0
H  H57  1  0.13959176  0.34682770  0.47042951  1  0  0.090021  0  0.945577  0  0  0.10378  0  1.00965  0  0  0.105178  0  1.009851  0  0  0.098489  0.102745  0  1.009596  0
C  C58  1  0.62203638  0.89321804  0.60460530  1  0  0.165763  0  3.647805  0  0  0.151117  0  3.919732  0  0  0.161672  0  3.929871  0  0  0.127256  0.144071  0  3.912907  0
C  C59  1  0.37796440  0.10678149  0.39538755  1  0  0.165822  0  3.647891  0  0  0.151137  0  3.919755  0  0  0.161686  0  3.92989  0  0  0.127233  0.144089  0  3.912932  0
C  C60  1  0.60097234  0.84353552  0.47411239  1  0  -0.166271  0  3.680091  0  0  -0.204934  0  3.93466  0  0  -0.207365  0  3.944219  0  0  -0.153906  -0.203109  0  3.927858  0
C  C61  1  0.39903162  0.15646844  0.52588527  1  0  -0.166422  0  3.680388  0  0  -0.204918  0  3.934751  0  0  -0.207342  0  3.944302  0  0  -0.153894  -0.203094  0  3.927948  0
C  C62  1  0.73056879  0.83518506  0.41178039  1  0  -0.108358  0  3.691952  0  0  -0.151022  0  3.954265  0  0  -0.151972  0  3.968155  0  0  -0.170831  -0.150104  0  3.944366  0
C  C63  1  0.26943608  0.16481622  0.58821486  1  0  -0.10838  0  3.692078  0  0  -0.150978  0  3.954192  0  0  -0.151934  0  3.968095  0  0  -0.170812  -0.150057  0  3.944289  0
C  C64  1  0.82503203  0.93979159  0.47416150  1  0  -0.103452  0  3.690708  0  0  -0.144221  0  3.950327  0  0  -0.145633  0  3.963943  0  0  -0.171168  -0.143004  0  3.940585  0
C  C65  1  0.17496482  0.06021063  0.52583443  1  0  -0.103415  0  3.690858  0  0  -0.144183  0  3.950388  0  0  -0.145594  0  3.963988  0  0  -0.171185  -0.142965  0  3.94067  0
C  C66  1  0.87297947  0.93501475  0.59476589  1  0  -0.180251  0  3.697424  0  0  -0.21903  0  3.949813  0  0  -0.222334  0  3.959125  0  0  -0.156329  -0.216566  0  3.943347  0
C  C67  1  0.12702553  0.06499098  0.40523236  1  0  -0.180277  0  3.697387  0  0  -0.21901  0  3.949658  0  0  -0.222308  0  3.95898  0  0  -0.156291  -0.216581  0  3.943238  0
C  C68  1  0.75885084  0.92118382  0.66281071  1  0  0.180552  0  3.653161  0  0  0.1636  0  3.924094  0  0  0.174664  0  3.935091  0  0  0.130313  0.156152  0  3.916606  0
C  C69  1  0.24115303  0.07881748  0.33718531  1  0  0.180403  0  3.653071  0  0  0.163448  0  3.923959  0  0  0.174526  0  3.934927  0  0  0.130218  0.156014  0  3.916477  0
C  C70  1  0.46859687  0.69253025  0.83741066  1  0  0.135612  0  3.688582  0  0  0.105643  0  3.941579  0  0  0.11266  0  3.959666  0  0  0.047303  0.101207  0  3.929077  0
C  C71  1  0.53140298  0.30746933  0.16258875  1  0  0.135774  0  3.688602  0  0  0.105818  0  3.941567  0  0  0.112837  0  3.959651  0  0  0.047353  0.101373  0  3.929076  0
C  C72  1  0.46635736  0.57446809  0.83329973  1  0  -0.156019  0  3.70072  0  0  -0.175577  0  3.950742  0  0  -0.183254  0  3.972143  0  0  -0.078864  -0.170633  0  3.936268  0
C  C73  1  0.53364249  0.42553061  0.16670106  1  0  -0.156132  0  3.700834  0  0  -0.175666  0  3.950831  0  0  -0.183344  0  3.972232  0  0  -0.078884  -0.170725  0  3.936359  0
C  C74  1  0.58667105  0.51864814  0.85200079  1  0  0.087264  0  3.763095  0  0  0.097745  0  3.997457  0  0  0.101713  0  4.019608  0  0  0.011536  0.095296  0  3.982246  0
C  C75  1  0.41332879  0.48134968  0.14800057  1  0  0.087265  0  3.763186  0  0  0.097796  0  3.997503  0  0  0.101763  0  4.019653  0  0  0.011566  0.095349  0  3.982292  0
C  C76  1  0.70596373  0.58635993  0.86975949  1  0  -0.155814  0  3.69483  0  0  -0.173621  0  3.941243  0  0  -0.181883  0  3.963617  0  0  -0.077979  -0.168209  0  3.925978  0
C  C77  1  0.29403809  0.41363699  0.13024170  1  0  -0.15578  0  3.694699  0  0  -0.173615  0  3.94113  0  0  -0.181876  0  3.963503  0  0  -0.077993  -0.168202  0  3.925863  0
C  C78  1  0.70019382  0.70369027  0.87144586  1  0  0.135239  0  3.700983  0  0  0.103174  0  3.95851  0  0  0.11034  0  3.9763  0  0  0.050263  0.098608  0  3.946196  0
C  C79  1  0.29980900  0.29630577  0.12855677  1  0  0.135282  0  3.700893  0  0  0.103214  0  3.958402  0  0  0.110382  0  3.97619  0  0  0.050303  0.098654  0  3.946085  0
C  C80  1  0.58708218  0.39572761  0.85710675  1  0  0.087478  0  3.754131  0  0  0.100744  0  3.983145  0  0  0.104  0  4.005604  0  0  0.011431  0.098738  0  3.967706  0
C  C81  1  0.41292354  0.60426660  0.14288888  1  0  0.08755  0  3.754115  0  0  0.100722  0  3.983201  0  0  0.103984  0  4.005649  0  0  0.011416  0.098716  0  3.967761  0
C  C82  1  0.46709372  0.33481760  0.85788966  1  0  -0.154071  0  3.70911  0  0  -0.172955  0  3.95593  0  0  -0.180513  0  3.978185  0  0  -0.079375  -0.167997  0  3.940802  0
C  C83  1  0.53290801  0.66517665  0.14210907  1  0  -0.154254  0  3.709269  0  0  -0.173134  0  3.956094  0  0  -0.180696  0  3.978345  0  0  -0.079431  -0.168176  0  3.940964  0
C  C84  1  0.47196679  0.22105960  0.86652723  1  0  0.129466  0  3.713978  0  0  0.099736  0  3.970816  0  0  0.106157  0  3.989663  0  0  0.045949  0.095616  0  3.957937  0
C  C85  1  0.52803497  0.77893641  0.13347038  1  0  0.129633  0  3.713677  0  0  0.099895  0  3.970551  0  0  0.106316  0  3.989393  0  0  0.045992  0.095775  0  3.957672  0
C  C86  1  0.70367272  0.22233118  0.87432984  1  0  0.141108  0  3.698552  0  0  0.110286  0  3.952816  0  0  0.117215  0  3.970217  0  0  0.051767  0.105834  0  3.94086  0
C  C87  1  0.29633230  0.77766932  0.12568086  1  0  0.141035  0  3.698845  0  0  0.110268  0  3.953037  0  0  0.117176  0  3.970434  0  0  0.051738  0.105815  0  3.94108  0
C  C88  1  0.70749992  0.33572408  0.86480087  1  0  -0.144748  0  3.686273  0  0  -0.1624  0  3.927805  0  0  -0.169436  0  3.948758  0  0  -0.076886  -0.157821  0  3.913661  0
C  C89  1  0.29250398  0.66427461  0.13520344  1  0  -0.144661  0  3.686149  0  0  -0.162213  0  3.927628  0  0  -0.169253  0  3.94859  0  0  -0.076768  -0.157635  0  3.913484  0
C  C90  1  0.88512471  0.41139692  0.62097154  1  0  0.169328  0  3.656581  0  0  0.163642  0  3.927259  0  0  0.173484  0  3.939839  0  0  0.122064  0.156996  0  3.918818  0
C  C91  1  0.11486525  0.58860717  0.37903284  1  0  0.169181  0  3.656901  0  0  0.163509  0  3.927509  0  0  0.173334  0  3.940118  0  0  0.12208  0.156862  0  3.919068  0
C  C92  1  0.78372730  0.33370294  0.53149327  1  0  -0.177078  0  3.679346  0  0  -0.215117  0  3.928388  0  0  -0.218136  0  3.938218  0  0  -0.161118  -0.212964  0  3.92164  0
C  C93  1  0.21626170  0.66630205  0.46851380  1  0  -0.176888  0  3.679191  0  0  -0.214912  0  3.928179  0  0  -0.217931  0  3.938025  0  0  -0.160992  -0.212754  0  3.921427  0
C  C94  1  0.66793050  0.40169034  0.49346300  1  0  -0.096361  0  3.703914  0  0  -0.135485  0  3.965326  0  0  -0.13645  0  3.979266  0  0  -0.169066  -0.134531  0  3.955492  0
C  C95  1  0.33205947  0.59831375  0.50654220  1  0  -0.096565  0  3.704177  0  0  -0.135597  0  3.965561  0  0  -0.136559  0  3.979512  0  0  -0.169153  -0.134675  0  3.955721  0
C  C96  1  0.72259870  0.50240859  0.45635542  1  0  -0.10947  0  3.707808  0  0  -0.147814  0  3.966769  0  0  -0.149664  0  3.982028  0  0  -0.17199  -0.146155  0  3.955916  0
C  C97  1  0.27739020  0.49759285  0.54364974  1  0  -0.109504  0  3.708001  0  0  -0.147863  0  3.966983  0  0  -0.14973  0  3.982237  0  0  -0.172052  -0.146208  0  3.956145  0
C  C98  1  0.80162723  0.59160160  0.55894299  1  0  -0.165539  0  3.698588  0  0  -0.203916  0  3.947583  0  0  -0.205914  0  3.960203  0  0  -0.162672  -0.202404  0  3.938747  0
C  C99  1  0.19836273  0.40840336  0.44106000  1  0  -0.165466  0  3.698545  0  0  -0.203868  0  3.947575  0  0  -0.205871  0  3.960216  0  0  -0.162647  -0.20235  0  3.938737  0
C  C100  1  0.89720718  0.53828905  0.63071998  1  0  0.124376  0  3.661327  0  0  0.121059  0  3.93045  0  0  0.12545  0  3.945715  0  0  0.109008  0.118295  0  3.920032  0
C  C101  1  0.10278271  0.46171326  0.36928221  1  0  0.124415  0  3.661333  0  0  0.121145  0  3.930411  0  0  0.125537  0  3.945694  0  0  0.109024  0.11838  0  3.919994  0
S  S102  1  0.22562101  0.95803945  0.87796567  1  0  1.573972  0  5.808398  0  0  1.445047  0  6.35915  0  0  1.500928  0  6.323563  0  0  0.558803  1.406513  0  6.382047  0
S  S103  1  0.77438580  0.04196004  0.12202749  1  0  1.574287  0  5.808438  0  0  1.445326  0  6.359212  0  0  1.501214  0  6.323619  0  0  0.558892  1.406787  0  6.38211  0
N  N104  1  0.52201869  0.91915283  0.67079563  1  0  -0.18387  0  3.153416  0  0  -0.146412  0  3.457157  0  0  -0.153707  0  3.467255  0  0  -0.249537  -0.141897  0  3.45058  0
N  N105  1  0.47798517  0.08084759  0.32920095  1  0  -0.183938  0  3.153467  0  0  -0.146467  0  3.457204  0  0  -0.153762  0  3.467305  0  0  -0.249525  -0.141952  0  3.450627  0
N  N106  1  0.77458170  0.93640151  0.77393699  1  0  -0.187329  0  3.188882  0  0  -0.14375  0  3.495505  0  0  -0.153031  0  3.507178  0  0  -0.254017  -0.137927  0  3.487617  0
N  N107  1  0.22542326  0.06360331  0.22605934  1  0  -0.187191  0  3.188861  0  0  -0.143587  0  3.495432  0  0  -0.152873  0  3.507104  0  0  -0.253894  -0.137767  0  3.487543  0
N  N108  1  0.58347207  0.75680297  0.85724797  1  0  -0.335893  0  3.247303  0  0  -0.262821  0  3.520718  0  0  -0.282251  0  3.540104  0  0  -0.329205  -0.249479  0  3.507106  0
N  N109  1  0.41653481  0.24319656  0.14275098  1  0  -0.336119  0  3.247628  0  0  -0.263036  0  3.521062  0  0  -0.282468  0  3.540447  0  0  -0.329296  -0.249695  0  3.507453  0
N  N110  1  0.58809735  0.16529671  0.87520510  1  0  -0.325496  0  3.229315  0  0  -0.254526  0  3.496787  0  0  -0.273182  0  3.516787  0  0  -0.324145  -0.241707  0  3.482936  0
N  N111  1  0.41190552  0.83470022  0.12479945  1  0  -0.325507  0  3.229242  0  0  -0.254596  0  3.496756  0  0  -0.273255  0  3.516764  0  0  -0.324155  -0.241779  0  3.482906  0
N  N112  1  0.96392035  0.37220631  0.69064305  1  0  -0.189113  0  2.820338  0  0  -0.200144  0  3.129644  0  0  -0.201109  0  3.13337  0  0  -0.248555  -0.200108  0  3.127344  0
N  N113  1  0.03607356  0.62779598  0.30935934  1  0  -0.189082  0  2.820589  0  0  -0.200125  0  3.129893  0  0  -0.201081  0  3.133619  0  0  -0.248568  -0.20009  0  3.127593  0
N  N114  1  0.99041213  0.60217132  0.70423040  1  0  -0.141229  0  2.889598  0  0  -0.144326  0  3.191455  0  0  -0.142434  0  3.197733  0  0  -0.232268  -0.14598  0  3.187342  0
N  N115  1  0.00958179  0.39783183  0.29577060  1  0  -0.141216  0  2.889575  0  0  -0.144329  0  3.191445  0  0  -0.142437  0  3.19772  0  0  -0.232291  -0.145984  0  3.187335  0
O  O116  1  0.39661295  0.89066608  0.61425696  1  0  -0.374507  0  2.093383  0  0  -0.327051  0  2.324285  0  0  -0.347175  0  2.322338  0  0  -0.2429  -0.312974  0  2.325509  0
O  O117  1  0.60339082  0.10933079  0.38573855  1  0  -0.374392  0  2.09347  0  0  -0.326951  0  2.324372  0  0  -0.347077  0  2.322424  0  0  -0.242857  -0.312869  0  2.32559  0
O  O118  1  0.90074566  0.97285081  0.82500428  1  0  -0.355363  0  2.099817  0  0  -0.318118  0  2.336029  0  0  -0.33687  0  2.333077  0  0  -0.24266  -0.304776  0  2.337817  0
O  O119  1  0.09926032  0.02715490  0.17499154  1  0  -0.355414  0  2.099705  0  0  -0.318224  0  2.335955  0  0  -0.336975  0  2.333007  0  0  -0.24276  -0.304879  0  2.337741  0
O  O120  1  0.37134693  0.97237854  0.93267472  1  0  -0.795058  0  2.126767  0  0  -0.699328  0  2.431965  0  0  -0.726982  0  2.409692  0  0  -0.400715  -0.679905  0  2.446835  0
O  O121  1  0.62866078  0.02761478  0.06732074  1  0  -0.795138  0  2.126915  0  0  -0.699415  0  2.432137  0  0  -0.727081  0  2.409872  0  0  -0.400712  -0.679987  0  2.447004  0
O  O122  1  0.18591489  0.83260644  0.85362235  1  0  -0.708079  0  1.943766  0  0  -0.654838  0  2.18332  0  0  -0.675365  0  2.16471  0  0  -0.353086  -0.640279  0  2.195665  0
O  O123  1  0.81408591  0.16739397  0.14637076  1  0  -0.708154  0  1.943738  0  0  -0.654943  0  2.1833  0  0  -0.675473  0  2.164684  0  0  -0.353123  -0.64038  0  2.195647  0
O  O124  1  0.14384357  0.03991026  0.96454622  1  0  -0.713952  0  1.940572  0  0  -0.659748  0  2.185739  0  0  -0.68049  0  2.167412  0  0  -0.355071  -0.645294  0  2.198153  0
O  O125  1  0.85616534  0.96009276  0.03544730  1  0  -0.71408  0  1.940665  0  0  -0.659813  0  2.185805  0  0  -0.680548  0  2.167471  0  0  -0.355075  -0.645358  0  2.198223  0
O  O126  1  0.22660623  0.99162902  0.76979141  1  0  -0.710048  0  1.920527  0  0  -0.658958  0  2.167948  0  0  -0.680044  0  2.150588  0  0  -0.356475  -0.644158  0  2.179484  0
O  O127  1  0.77340165  0.00837224  0.23020399  1  0  -0.710142  0  1.920474  0  0  -0.659036  0  2.167889  0  0  -0.680125  0  2.150529  0  0  -0.356539  -0.644236  0  2.179426  0
O  O128  1  0.94326357  0.24846010  0.66831906  1  0  -0.418215  0  2.045671  0  0  -0.372803  0  2.274418  0  0  -0.389763  0  2.268938  0  0  -0.281707  -0.360393  0  2.277693  0
O  O129  1  0.05672931  0.75154217  0.33168080  1  0  -0.418265  0  2.045693  0  0  -0.372879  0  2.274459  0  0  -0.389829  0  2.268979  0  0  -0.281735  -0.360472  0  2.277737  0
O  O130  1  0.98584681  0.71938673  0.70679742  1  0  -0.419395  0  2.11355  0  0  -0.3745  0  2.363957  0  0  -0.395703  0  2.359428  0  0  -0.267546  -0.359302  0  2.36667  0
O  O131  1  0.01414910  0.28061553  0.29320341  1  0  -0.419417  0  2.113513  0  0  -0.374567  0  2.363807  0  0  -0.395765  0  2.359273  0  0  -0.267556  -0.359368  0  2.366524  0
