# generated using pymatgen
data_KNdH4C5O9
_symmetry_space_group_name_H-M   'P 1'
_cell_length_a   7.34140570
_cell_length_b   9.02695951
_cell_length_c   16.71714058
_cell_angle_alpha   89.99978375
_cell_angle_beta   90.00012025
_cell_angle_gamma   90.00014099
_symmetry_Int_Tables_number   1
_chemical_formula_structural   KNdH4C5O9
_chemical_formula_sum   'K4 Nd4 H16 C20 O36'
_cell_volume   1107.85446720
_cell_formula_units_Z   4
loop_
 _symmetry_equiv_pos_site_id
 _symmetry_equiv_pos_as_xyz
  1  'x, y, z'
loop_
 _atom_site_type_symbol
 _atom_site_label
 _atom_site_symmetry_multiplicity
 _atom_site_fract_x
 _atom_site_fract_y
 _atom_site_fract_z
 _atom_site_occupancy
 _atom_site_hle17_bader_spin_density
 _atom_site_hle17_ddec_charge
 _atom_site_hle17_ddec_spin_density
 _atom_site_hle17_ddec_sum_bond_order
 _atom_site_hle17_magmom
 _atom_site_hse06_10hf_bader_spin_density
 _atom_site_hse06_10hf_ddec_charge
 _atom_site_hse06_10hf_ddec_spin_density
 _atom_site_hse06_10hf_ddec_sum_bond_order
 _atom_site_hse06_10hf_magmom
 _atom_site_hse06_bader_spin_density
 _atom_site_hse06_ddec_charge
 _atom_site_hse06_ddec_spin_density
 _atom_site_hse06_ddec_sum_bond_order
 _atom_site_hse06_magmom
 _atom_site_pbe_bader_spin_density
 _atom_site_pbe_cm5_charge
 _atom_site_pbe_ddec_charge
 _atom_site_pbe_ddec_spin_density
 _atom_site_pbe_ddec_sum_bond_order
 _atom_site_pbe_magmom
K  K0  1  0.99999981  0.96024188  0.77620400  1  0  0.947609  0  0.450939  0  0  0.899302  0  0.624289  0  0  0.915751  0  0.599802  0  0  0.820249  0.887177  0  0.642739  0
K  K1  1  0.00000741  0.03976344  0.22380737  1  0  0.947652  0  0.45088  0  0  0.899322  0  0.62425  0  0  0.915779  0  0.599753  0  0  0.82023  0.887197  0  0.642698  0
K  K2  1  0.99999934  0.53976428  0.27618769  1  0  0.947696  0  0.450807  0  0  0.899329  0  0.624224  0  0  0.915783  0  0.599727  0  0  0.820205  0.887225  0  0.64267  0
K  K3  1  0.99999484  0.46023760  0.72380739  1  0  0.947674  0  0.450838  0  0  0.899339  0  0.624217  0  0  0.915793  0  0.599722  0  0  0.820223  0.887232  0  0.642662  0
Nd  Nd4  1  0.50000446  0.01076738  0.88064843  1  0  2.270137  0  1.714476  0  0  2.104032  0  2.189896  0  0  2.206004  0  2.038129  0  0  1.49378  2.068868  0  2.225844  0
Nd  Nd5  1  0.50000684  0.98923129  0.11935217  1  0  2.270191  0  1.714407  0  0  2.104007  0  2.189966  0  0  2.206069  0  2.038038  0  0  1.493817  2.068931  0  2.225756  0
Nd  Nd6  1  0.49999718  0.48922924  0.38064796  1  0  2.270093  0  1.714523  0  0  2.103879  0  2.190119  0  0  2.205948  0  2.038172  0  0  1.493758  2.068781  0  2.225976  0
Nd  Nd7  1  0.49999370  0.51076832  0.61935204  1  0  2.270091  0  1.714495  0  0  2.10398  0  2.189907  0  0  2.20595  0  2.038144  0  0  1.493754  2.068797  0  2.225915  0
H  H8  1  0.89609123  0.75262314  0.61797255  1  0  0.421508  0  0.861875  0  0  0.395144  0  0.922109  0  0  0.403637  0  0.909594  0  0  0.30624  0.389054  0  0.931129  0
H  H9  1  0.89608990  0.24739183  0.38203320  1  0  0.421501  0  0.861756  0  0  0.39515  0  0.922074  0  0  0.403645  0  0.909556  0  0  0.306257  0.389057  0  0.931096  0
H  H10  1  0.10391339  0.74740639  0.11796145  1  0  0.421529  0  0.861704  0  0  0.395208  0  0.921974  0  0  0.4037  0  0.909461  0  0  0.306286  0.389125  0  0.930983  0
H  H11  1  0.10390222  0.25259702  0.88203819  1  0  0.421593  0  0.861635  0  0  0.395242  0  0.921942  0  0  0.403735  0  0.909428  0  0  0.306275  0.38915  0  0.930959  0
H  H12  1  0.10390918  0.24739215  0.38203104  1  0  0.421504  0  0.861778  0  0  0.39515  0  0.922085  0  0  0.403645  0  0.909565  0  0  0.306262  0.389058  0  0.931103  0
H  H13  1  0.10391460  0.75262899  0.61797219  1  0  0.421515  0  0.861851  0  0  0.395152  0  0.922091  0  0  0.403645  0  0.909576  0  0  0.306256  0.389062  0  0.931113  0
H  H14  1  0.89608157  0.25261443  0.88203796  1  0  0.421531  0  0.86177  0  0  0.395216  0  0.921967  0  0  0.403708  0  0.909455  0  0  0.306276  0.389126  0  0.930984  0
H  H15  1  0.89609547  0.74741051  0.11796301  1  0  0.421513  0  0.861717  0  0  0.395169  0  0.922042  0  0  0.403661  0  0.909529  0  0  0.306247  0.389079  0  0.931063  0
H  H16  1  0.38082977  0.42499375  0.06461247  1  0  0.121684  0  0.902925  0  0  0.139867  0  0.952604  0  0  0.142162  0  0.951751  0  0  0.118457  0.138271  0  0.953106  0
H  H17  1  0.38083072  0.57500024  0.93538623  1  0  0.121648  0  0.902901  0  0  0.139843  0  0.952595  0  0  0.142129  0  0.951745  0  0  0.118428  0.138243  0  0.953099  0
H  H18  1  0.61916627  0.07499400  0.56461112  1  0  0.121612  0  0.902945  0  0  0.139786  0  0.952646  0  0  0.142079  0  0.951797  0  0  0.11844  0.138189  0  0.953151  0
H  H19  1  0.61916861  0.92499494  0.43538361  1  0  0.121631  0  0.902986  0  0  0.139867  0  0.952619  0  0  0.142156  0  0.951765  0  0  0.118457  0.138269  0  0.953128  0
H  H20  1  0.61917472  0.57500048  0.93538515  1  0  0.121701  0  0.902878  0  0  0.139917  0  0.952527  0  0  0.142217  0  0.951672  0  0  0.118453  0.138308  0  0.953037  0
H  H21  1  0.61917377  0.42499953  0.06461676  1  0  0.121762  0  0.902874  0  0  0.139955  0  0.952533  0  0  0.142248  0  0.951676  0  0  0.118465  0.138353  0  0.953047  0
H  H22  1  0.38082461  0.92499692  0.43538051  1  0  0.121706  0  0.902893  0  0  0.139914  0  0.952557  0  0  0.142203  0  0.951701  0  0  0.118449  0.138315  0  0.953063  0
H  H23  1  0.38082499  0.07499154  0.56461281  1  0  0.121721  0  0.902949  0  0  0.139919  0  0.952601  0  0  0.14222  0  0.951747  0  0  0.118485  0.138318  0  0.953112  0
C  C24  1  0.89305800  0.99999541  0.00000298  1  0  0.609731  0  3.838177  0  0  0.57223  0  4.121179  0  0  0.603184  0  4.113297  0  0  0.241374  0.551571  0  4.127594  0
C  C25  1  0.10694333  0.49999396  0.49999833  1  0  0.609714  0  3.838226  0  0  0.572188  0  4.121279  0  0  0.603141  0  4.113406  0  0  0.241358  0.551528  0  4.127687  0
C  C26  1  0.10694970  0.99999462  0.00000202  1  0  0.609917  0  3.838128  0  0  0.572329  0  4.121255  0  0  0.603281  0  4.113371  0  0  0.241438  0.551667  0  4.127677  0
C  C27  1  0.89305027  0.49999142  0.49999809  1  0  0.609925  0  3.838201  0  0  0.572319  0  4.121359  0  0  0.603274  0  4.113477  0  0  0.241402  0.55167  0  4.12776  0
C  C28  1  0.60596454  0.71687716  0.77326397  1  0  0.586446  0  3.918504  0  0  0.544976  0  4.215898  0  0  0.574673  0  4.211105  0  0  0.227238  0.524516  0  4.222384  0
C  C29  1  0.60596667  0.28312615  0.22673255  1  0  0.586404  0  3.918592  0  0  0.544936  0  4.215976  0  0  0.574633  0  4.211192  0  0  0.227166  0.524476  0  4.222472  0
C  C30  1  0.39403809  0.78312470  0.27326502  1  0  0.586347  0  3.918329  0  0  0.544775  0  4.215882  0  0  0.57447  0  4.2111  0  0  0.22708  0.524307  0  4.222384  0
C  C31  1  0.39402879  0.21687930  0.72673848  1  0  0.586442  0  3.918228  0  0  0.544975  0  4.215638  0  0  0.57467  0  4.21085  0  0  0.227228  0.524508  0  4.222133  0
C  C32  1  0.39403314  0.28312483  0.22673125  1  0  0.586489  0  3.918426  0  0  0.54498  0  4.215874  0  0  0.574675  0  4.21109  0  0  0.227171  0.524513  0  4.222374  0
C  C33  1  0.39403238  0.71687695  0.77326566  1  0  0.586526  0  3.91843  0  0  0.545025  0  4.215875  0  0  0.574722  0  4.211083  0  0  0.227214  0.524564  0  4.222365  0
C  C34  1  0.60596504  0.21687729  0.72673618  1  0  0.586405  0  3.918297  0  0  0.544894  0  4.215774  0  0  0.574591  0  4.210984  0  0  0.227187  0.524438  0  4.222258  0
C  C35  1  0.60597162  0.78312159  0.27326511  1  0  0.586651  0  3.918099  0  0  0.545234  0  4.215455  0  0  0.574931  0  4.210668  0  0  0.227326  0.524774  0  4.221953  0
C  C36  1  0.50001192  0.28994079  0.97515594  1  0  0.747848  0  3.805985  0  0  0.705988  0  4.100213  0  0  0.739761  0  4.096163  0  0  0.223811  0.682844  0  4.106017  0
C  C37  1  0.50000211  0.71005677  0.02484287  1  0  0.747808  0  3.806026  0  0  0.706154  0  4.099969  0  0  0.739924  0  4.095928  0  0  0.223905  0.682994  0  4.105793  0
C  C38  1  0.49999698  0.21005406  0.47515843  1  0  0.747866  0  3.805942  0  0  0.706029  0  4.100159  0  0  0.739799  0  4.096122  0  0  0.223835  0.682877  0  4.105977  0
C  C39  1  0.49999117  0.78993796  0.52484157  1  0  0.747781  0  3.806041  0  0  0.705966  0  4.100217  0  0  0.73974  0  4.09617  0  0  0.223865  0.682833  0  4.106002  0
C  C40  1  0.50000577  0.42936315  0.02474924  1  0  -0.234592  0  3.669957  0  0  -0.274191  0  3.920612  0  0  -0.278614  0  3.926645  0  0  -0.150635  -0.27079  0  3.915405  0
C  C41  1  0.50000417  0.57062887  0.97525076  1  0  -0.2344  0  3.6698  0  0  -0.274118  0  3.920448  0  0  -0.27854  0  3.926486  0  0  -0.150593  -0.270674  0  3.915212  0
C  C42  1  0.49999417  0.07062488  0.52474779  1  0  -0.234299  0  3.669907  0  0  -0.273912  0  3.920553  0  0  -0.278346  0  3.926602  0  0  -0.15052  -0.270499  0  3.915359  0
C  C43  1  0.49999535  0.92936049  0.47524683  1  0  -0.234495  0  3.669781  0  0  -0.274185  0  3.920487  0  0  -0.278592  0  3.926511  0  0  -0.150687  -0.270775  0  3.915287  0
O  O44  1  0.81616614  0.03138464  0.93424983  1  0  -0.704958  0  2.087921  0  0  -0.656809  0  2.334583  0  0  -0.686813  0  2.323133  0  0  -0.384219  -0.640372  0  2.340933  0
O  O45  1  0.81616957  0.96860580  0.06575585  1  0  -0.705154  0  2.087926  0  0  -0.656947  0  2.334521  0  0  -0.686956  0  2.323054  0  0  -0.384384  -0.640535  0  2.340897  0
O  O46  1  0.18383439  0.46860163  0.43424552  1  0  -0.705132  0  2.087937  0  0  -0.656915  0  2.33455  0  0  -0.686929  0  2.323085  0  0  -0.384337  -0.640485  0  2.340916  0
O  O47  1  0.18383344  0.53138754  0.56575000  1  0  -0.704977  0  2.087952  0  0  -0.656779  0  2.334571  0  0  -0.686779  0  2.323114  0  0  -0.38421  -0.640339  0  2.340944  0
O  O48  1  0.18384652  0.96859630  0.06575257  1  0  -0.705182  0  2.088015  0  0  -0.656966  0  2.334676  0  0  -0.686978  0  2.323211  0  0  -0.384379  -0.640547  0  2.341042  0
O  O49  1  0.18384446  0.03139176  0.93425074  1  0  -0.705102  0  2.087849  0  0  -0.656899  0  2.334523  0  0  -0.686899  0  2.323066  0  0  -0.384259  -0.640466  0  2.340888  0
O  O50  1  0.81615512  0.53138817  0.56574970  1  0  -0.705078  0  2.087779  0  0  -0.656853  0  2.334428  0  0  -0.686855  0  2.322972  0  0  -0.384263  -0.640415  0  2.340799  0
O  O51  1  0.81615471  0.46859229  0.43424701  1  0  -0.705185  0  2.088158  0  0  -0.656933  0  2.334791  0  0  -0.686948  0  2.323326  0  0  -0.384298  -0.640506  0  2.341155  0
O  O52  1  0.68429039  0.81102395  0.81752626  1  0  -0.6927  0  2.057692  0  0  -0.647045  0  2.301123  0  0  -0.675832  0  2.289731  0  0  -0.419482  -0.631095  0  2.307714  0
O  O53  1  0.68429202  0.18897730  0.18247212  1  0  -0.692656  0  2.057666  0  0  -0.64699  0  2.301091  0  0  -0.675789  0  2.289699  0  0  -0.419421  -0.631047  0  2.307674  0
O  O54  1  0.31571382  0.68897316  0.31752265  1  0  -0.692653  0  2.057658  0  0  -0.646944  0  2.301127  0  0  -0.675745  0  2.289737  0  0  -0.419399  -0.631001  0  2.30772  0
O  O55  1  0.31570595  0.31103068  0.68248078  1  0  -0.69263  0  2.057728  0  0  -0.646977  0  2.301165  0  0  -0.675762  0  2.289772  0  0  -0.419434  -0.631026  0  2.307764  0
O  O56  1  0.31571274  0.18897693  0.18246836  1  0  -0.692661  0  2.057672  0  0  -0.646979  0  2.301116  0  0  -0.675782  0  2.289732  0  0  -0.419451  -0.631037  0  2.3077  0
O  O57  1  0.31571112  0.81102580  0.81752849  1  0  -0.692631  0  2.057653  0  0  -0.64697  0  2.301102  0  0  -0.675755  0  2.289712  0  0  -0.419434  -0.631023  0  2.307698  0
O  O58  1  0.68428523  0.31102883  0.68247736  1  0  -0.692658  0  2.05772  0  0  -0.64699  0  2.301165  0  0  -0.675778  0  2.289778  0  0  -0.41943  -0.631046  0  2.307765  0
O  O59  1  0.68429310  0.68896910  0.31752401  1  0  -0.69273  0  2.057618  0  0  -0.647069  0  2.301035  0  0  -0.675867  0  2.289638  0  0  -0.419485  -0.631128  0  2.307631  0
O  O60  1  0.50002400  0.29345054  0.89954073  1  0  -0.671882  0  1.902308  0  0  -0.621733  0  2.123046  0  0  -0.650621  0  2.113592  0  0  -0.351788  -0.605131  0  2.128343  0
O  O61  1  0.50000092  0.70655367  0.10045808  1  0  -0.671865  0  1.902397  0  0  -0.621816  0  2.123097  0  0  -0.650715  0  2.113641  0  0  -0.351837  -0.605219  0  2.128402  0
O  O62  1  0.49999816  0.20655924  0.39954323  1  0  -0.671927  0  1.902321  0  0  -0.621799  0  2.123091  0  0  -0.650696  0  2.113635  0  0  -0.351854  -0.605185  0  2.12838  0
O  O63  1  0.49998454  0.79345050  0.60045797  1  0  -0.671833  0  1.902347  0  0  -0.6217  0  2.123059  0  0  -0.65059  0  2.11361  0  0  -0.351763  -0.605082  0  2.128339  0
O  O64  1  0.68425312  0.62287675  0.72881451  1  0  -0.713671  0  2.085323  0  0  -0.665694  0  2.33108  0  0  -0.695018  0  2.319361  0  0  -0.42807  -0.649309  0  2.337869  0
O  O65  1  0.68425301  0.37712893  0.27117968  1  0  -0.713687  0  2.08537  0  0  -0.665688  0  2.331116  0  0  -0.695022  0  2.319393  0  0  -0.428035  -0.649317  0  2.337908  0
O  O66  1  0.31575339  0.87713539  0.22881948  1  0  -0.713683  0  2.085157  0  0  -0.665669  0  2.330969  0  0  -0.695002  0  2.319246  0  0  -0.42804  -0.64929  0  2.337756  0
O  O67  1  0.31574266  0.12287066  0.77118633  1  0  -0.713683  0  2.085028  0  0  -0.665709  0  2.33078  0  0  -0.695031  0  2.319062  0  0  -0.428103  -0.649322  0  2.337572  0
O  O68  1  0.31574320  0.37712413  0.27117891  1  0  -0.71374  0  2.085256  0  0  -0.665734  0  2.331034  0  0  -0.695067  0  2.319309  0  0  -0.428045  -0.649359  0  2.33782  0
O  O69  1  0.31574059  0.62287527  0.72881793  1  0  -0.71377  0  2.085298  0  0  -0.665786  0  2.331067  0  0  -0.69511  0  2.319348  0  0  -0.428076  -0.6494  0  2.337857  0
O  O70  1  0.68425246  0.12286549  0.77118172  1  0  -0.713665  0  2.085103  0  0  -0.665687  0  2.330892  0  0  -0.695009  0  2.319172  0  0  -0.428092  -0.649302  0  2.337678  0
O  O71  1  0.68426320  0.87712800  0.22881906  1  0  -0.713766  0  2.085067  0  0  -0.665795  0  2.330805  0  0  -0.69513  0  2.31908  0  0  -0.428081  -0.649417  0  2.337593  0
O  O72  1  0.50000534  0.16416869  0.01194289  1  0  -0.851578  0  2.157456  0  0  -0.792822  0  2.423422  0  0  -0.832237  0  2.411324  0  0  -0.46367  -0.773921  0  2.429948  0
O  O73  1  0.50000597  0.83582997  0.98805771  1  0  -0.851525  0  2.157391  0  0  -0.79284  0  2.423277  0  0  -0.832249  0  2.411182  0  0  -0.463679  -0.77394  0  2.429834  0
O  O74  1  0.49999181  0.33582607  0.51194390  1  0  -0.851549  0  2.157297  0  0  -0.792786  0  2.423229  0  0  -0.832192  0  2.411131  0  0  -0.463665  -0.773872  0  2.429774  0
O  O75  1  0.49999634  0.66416595  0.48805371  1  0  -0.851546  0  2.157521  0  0  -0.792831  0  2.423529  0  0  -0.832245  0  2.411427  0  0  -0.463719  -0.773934  0  2.430075  0
O  O76  1  0.00000002  0.81546949  0.63143431  1  0  -0.853929  0  1.711223  0  0  -0.813727  0  1.840742  0  0  -0.828906  0  1.813484  0  0  -0.653335  -0.802811  0  1.859792  0
O  O77  1  0.99999902  0.18454912  0.36856928  1  0  -0.853929  0  1.71103  0  0  -0.813741  0  1.840716  0  0  -0.828923  0  1.813452  0  0  -0.653393  -0.802821  0  1.859777  0
O  O78  1  0.00000271  0.68456559  0.13142489  1  0  -0.853954  0  1.710908  0  0  -0.813784  0  1.840629  0  0  -0.828962  0  1.813367  0  0  -0.653383  -0.802871  0  1.859674  0
O  O79  1  0.99999906  0.31544748  0.86857452  1  0  -0.854047  0  1.710966  0  0  -0.813874  0  1.84061  0  0  -0.829053  0  1.813347  0  0  -0.653392  -0.802959  0  1.859676  0
