# generated using pymatgen
data_CdH16C10N2(ClO)2
_symmetry_space_group_name_H-M   'P 1'
_cell_length_a   8.02595811
_cell_length_b   9.45826378
_cell_length_c   17.23065300
_cell_angle_alpha   99.60259783
_cell_angle_beta   89.99996732
_cell_angle_gamma   90.00006257
_symmetry_Int_Tables_number   1
_chemical_formula_structural   CdH16C10N2(ClO)2
_chemical_formula_sum   'Cd4 H64 C40 N8 Cl8 O8'
_cell_volume   1289.67976228
_cell_formula_units_Z   4
loop_
 _symmetry_equiv_pos_site_id
 _symmetry_equiv_pos_as_xyz
  1  'x, y, z'
loop_
 _atom_site_type_symbol
 _atom_site_label
 _atom_site_symmetry_multiplicity
 _atom_site_fract_x
 _atom_site_fract_y
 _atom_site_fract_z
 _atom_site_occupancy
 _atom_site_hle17_bader_spin_density
 _atom_site_hle17_ddec_charge
 _atom_site_hle17_ddec_spin_density
 _atom_site_hle17_ddec_sum_bond_order
 _atom_site_hle17_magmom
 _atom_site_hse06_10hf_bader_spin_density
 _atom_site_hse06_10hf_ddec_charge
 _atom_site_hse06_10hf_ddec_spin_density
 _atom_site_hse06_10hf_ddec_sum_bond_order
 _atom_site_hse06_10hf_magmom
 _atom_site_hse06_bader_spin_density
 _atom_site_hse06_ddec_charge
 _atom_site_hse06_ddec_spin_density
 _atom_site_hse06_ddec_sum_bond_order
 _atom_site_hse06_magmom
 _atom_site_pbe_bader_spin_density
 _atom_site_pbe_cm5_charge
 _atom_site_pbe_ddec_charge
 _atom_site_pbe_ddec_spin_density
 _atom_site_pbe_ddec_sum_bond_order
 _atom_site_pbe_magmom
Cd  Cd0  1  0.52688773  0.48094900  0.75077287  1  0  1.04152  0  1.808725  0  0  0.881987  0  2.257258  0  0  0.930487  0  2.212724  0  0  0.603203  0.84775  0  2.287377  0
Cd  Cd1  1  0.02688639  0.51904998  0.74922767  1  0  1.041523  0  1.808716  0  0  0.881991  0  2.25725  0  0  0.930491  0  2.212715  0  0  0.603208  0.84775  0  2.287378  0
Cd  Cd2  1  0.47311130  0.51905337  0.24922696  1  0  1.041535  0  1.808663  0  0  0.882007  0  2.25718  0  0  0.930507  0  2.212648  0  0  0.603218  0.84776  0  2.287334  0
Cd  Cd3  1  0.97311264  0.48094917  0.25077244  1  0  1.04153  0  1.808685  0  0  0.882  0  2.25721  0  0  0.930499  0  2.212678  0  0  0.603218  0.847772  0  2.287327  0
H  H4  1  0.27314104  0.30463481  0.61907540  1  0  0.082303  0  0.975674  0  0  0.089253  0  1.044777  0  0  0.091672  0  1.042599  0  0  0.107832  0.087521  0  1.046187  0
H  H5  1  0.77314001  0.69536009  0.88092528  1  0  0.082343  0  0.975615  0  0  0.089291  0  1.044717  0  0  0.091709  0  1.042538  0  0  0.107834  0.087557  0  1.046121  0
H  H6  1  0.72685923  0.69536541  0.38092365  1  0  0.082294  0  0.975682  0  0  0.089247  0  1.044785  0  0  0.091662  0  1.042609  0  0  0.107823  0.087515  0  1.046201  0
H  H7  1  0.22686151  0.30463477  0.11907502  1  0  0.082305  0  0.975666  0  0  0.089266  0  1.044769  0  0  0.091686  0  1.04259  0  0  0.107815  0.08753  0  1.046185  0
H  H8  1  0.49860708  0.26906101  0.38835040  1  0  0.104044  0  0.971834  0  0  0.111243  0  1.039123  0  0  0.114427  0  1.036492  0  0  0.101025  0.108664  0  1.041497  0
H  H9  1  0.99860766  0.73094477  0.11165045  1  0  0.104058  0  0.971805  0  0  0.111242  0  1.039118  0  0  0.114424  0  1.03649  0  0  0.101046  0.108666  0  1.041498  0
H  H10  1  0.50139320  0.73094029  0.61164875  1  0  0.104068  0  0.971734  0  0  0.111258  0  1.039036  0  0  0.114442  0  1.036406  0  0  0.101031  0.108678  0  1.041408  0
H  H11  1  0.00139262  0.26905760  0.88834995  1  0  0.104071  0  0.971775  0  0  0.111256  0  1.039087  0  0  0.114439  0  1.036458  0  0  0.101032  0.108675  0  1.041455  0
H  H12  1  0.75876296  0.36874315  0.45445919  1  0  0.117774  0  0.960937  0  0  0.124841  0  1.024075  0  0  0.128926  0  1.021776  0  0  0.107977  0.121841  0  1.026033  0
H  H13  1  0.25876325  0.63125813  0.04554131  1  0  0.117755  0  0.960952  0  0  0.12484  0  1.024067  0  0  0.128924  0  1.021768  0  0  0.107977  0.121838  0  1.02603  0
H  H14  1  0.24123856  0.63125600  0.54554034  1  0  0.117793  0  0.960944  0  0  0.124897  0  1.024038  0  0  0.128983  0  1.021736  0  0  0.107984  0.121901  0  1.025985  0
H  H15  1  0.74123702  0.36874102  0.95445938  1  0  0.117769  0  0.960949  0  0  0.124909  0  1.023998  0  0  0.128997  0  1.021691  0  0  0.107978  0.121904  0  1.025954  0
H  H16  1  0.75981076  0.43818581  0.60210001  1  0  0.072084  0  1.001821  0  0  0.075817  0  1.076971  0  0  0.078987  0  1.073164  0  0  0.102463  0.073445  0  1.079821  0
H  H17  1  0.25981055  0.56181122  0.89790028  1  0  0.072091  0  1.001798  0  0  0.07583  0  1.076938  0  0  0.078999  0  1.073132  0  0  0.102478  0.073457  0  1.079787  0
H  H18  1  0.24018951  0.56181334  0.39789894  1  0  0.072096  0  1.001817  0  0  0.075822  0  1.076961  0  0  0.078992  0  1.073153  0  0  0.102467  0.073448  0  1.079814  0
H  H19  1  0.74018973  0.43818578  0.10210021  1  0  0.072123  0  1.0018  0  0  0.075852  0  1.076944  0  0  0.07902  0  1.073138  0  0  0.102475  0.07348  0  1.079801  0
H  H20  1  0.08527750  0.99628632  0.30873702  1  0  0.071818  0  0.942826  0  0  0.091109  0  1.001655  0  0  0.090975  0  1.002397  0  0  0.107823  0.090986  0  1.001337  0
H  H21  1  0.58527581  0.00371374  0.19126341  1  0  0.071836  0  0.942777  0  0  0.091151  0  1.001601  0  0  0.091012  0  1.002344  0  0  0.107849  0.091028  0  1.001283  0
H  H22  1  0.91472153  0.00371498  0.69126328  1  0  0.071786  0  0.942812  0  0  0.091097  0  1.001663  0  0  0.090958  0  1.002405  0  0  0.107813  0.090976  0  1.001337  0
H  H23  1  0.41472322  0.99628541  0.80873612  1  0  0.071815  0  0.942742  0  0  0.091147  0  1.001585  0  0  0.091007  0  1.002327  0  0  0.107832  0.091025  0  1.001267  0
H  H24  1  0.99575640  0.16438033  0.34766729  1  0  0.072222  0  0.936385  0  0  0.085498  0  1.002594  0  0  0.085916  0  1.00232  0  0  0.10274  0.085083  0  1.002762  0
H  H25  1  0.49575558  0.83562008  0.15233365  1  0  0.072201  0  0.936341  0  0  0.085478  0  1.002588  0  0  0.085892  0  1.00231  0  0  0.102726  0.085066  0  1.002759  0
H  H26  1  0.00424263  0.83561989  0.65233292  1  0  0.072195  0  0.936366  0  0  0.0855  0  1.00258  0  0  0.085914  0  1.002305  0  0  0.102741  0.085088  0  1.002749  0
H  H27  1  0.50424469  0.16438014  0.84766714  1  0  0.072159  0  0.936373  0  0  0.085481  0  1.002601  0  0  0.085892  0  1.002323  0  0  0.102735  0.085069  0  1.002764  0
H  H28  1  0.80867892  0.95801167  0.36284401  1  0  0.106642  0  0.956824  0  0  0.130503  0  1.016398  0  0  0.131065  0  1.017523  0  0  0.088727  0.129942  0  1.015805  0
H  H29  1  0.30867960  0.04198858  0.13715638  1  0  0.106714  0  0.956806  0  0  0.130586  0  1.016355  0  0  0.131148  0  1.017481  0  0  0.088766  0.130024  0  1.015759  0
H  H30  1  0.19132010  0.04198748  0.63715610  1  0  0.106657  0  0.9568  0  0  0.130529  0  1.016351  0  0  0.131091  0  1.017476  0  0  0.088739  0.129968  0  1.015756  0
H  H31  1  0.69132067  0.95801164  0.86284383  1  0  0.106643  0  0.956823  0  0  0.130514  0  1.016377  0  0  0.131076  0  1.017503  0  0  0.088731  0.12995  0  1.01578  0
H  H32  1  0.86526219  0.05652700  0.45655529  1  0  0.100521  0  0.9645  0  0  0.119615  0  1.031109  0  0  0.12084  0  1.031874  0  0  0.085048  0.118597  0  1.030762  0
H  H33  1  0.36526164  0.94347438  0.04344461  1  0  0.100525  0  0.964518  0  0  0.119613  0  1.031131  0  0  0.12084  0  1.031896  0  0  0.085051  0.118595  0  1.030784  0
H  H34  1  0.13473808  0.94347430  0.54344444  1  0  0.100519  0  0.96451  0  0  0.1196  0  1.03113  0  0  0.120816  0  1.031906  0  0  0.085051  0.118596  0  1.03077  0
H  H35  1  0.63473863  0.05652585  0.95655502  1  0  0.100527  0  0.964529  0  0  0.119619  0  1.031133  0  0  0.120844  0  1.031898  0  0  0.085053  0.118598  0  1.030787  0
H  H36  1  0.96236019  0.88854580  0.42003107  1  0  0.100569  0  0.959476  0  0  0.120612  0  1.023981  0  0  0.121717  0  1.024299  0  0  0.085765  0.119782  0  1.023749  0
H  H37  1  0.46235978  0.11145459  0.07996930  1  0  0.100572  0  0.959465  0  0  0.120613  0  1.023977  0  0  0.121718  0  1.024295  0  0  0.085759  0.119782  0  1.023738  0
H  H38  1  0.03764009  0.11145550  0.57996866  1  0  0.100546  0  0.959477  0  0  0.120583  0  1.023995  0  0  0.121689  0  1.024311  0  0  0.085751  0.119751  0  1.023756  0
H  H39  1  0.53764050  0.88854563  0.92003149  1  0  0.10056  0  0.959487  0  0  0.120598  0  1.023996  0  0  0.121702  0  1.024315  0  0  0.085763  0.119765  0  1.023758  0
H  H40  1  0.26543032  0.88703775  0.40162185  1  0  0.068302  0  0.931122  0  0  0.08403  0  0.996213  0  0  0.083984  0  0.996916  0  0  0.104511  0.083837  0  0.996111  0
H  H41  1  0.76543012  0.11296353  0.09837923  1  0  0.068302  0  0.93112  0  0  0.084038  0  0.996195  0  0  0.083991  0  0.996899  0  0  0.1045  0.083844  0  0.996088  0
H  H42  1  0.73456996  0.11296354  0.59837787  1  0  0.068278  0  0.931128  0  0  0.084006  0  0.996218  0  0  0.08396  0  0.996921  0  0  0.104496  0.083815  0  0.996109  0
H  H43  1  0.23457015  0.88703669  0.90162040  1  0  0.068297  0  0.931104  0  0  0.084054  0  0.996169  0  0  0.084008  0  0.996873  0  0  0.104517  0.083858  0  0.996065  0
H  H44  1  0.41049154  0.01035091  0.45178268  1  0  0.052465  0  0.951665  0  0  0.069904  0  1.014239  0  0  0.069778  0  1.015404  0  0  0.10044  0.069829  0  1.013512  0
H  H45  1  0.91049252  0.98964942  0.04821886  1  0  0.05245  0  0.951636  0  0  0.069883  0  1.014212  0  0  0.069757  0  1.015377  0  0  0.100431  0.069806  0  1.013481  0
H  H46  1  0.58950874  0.98965038  0.54821705  1  0  0.05246  0  0.95166  0  0  0.06989  0  1.014238  0  0  0.069765  0  1.015401  0  0  0.100446  0.069814  0  1.013515  0
H  H47  1  0.08950651  0.01035080  0.95178135  1  0  0.052424  0  0.951641  0  0  0.069865  0  1.014229  0  0  0.069739  0  1.015395  0  0  0.10042  0.069785  0  1.013503  0
H  H48  1  0.50569950  0.88657140  0.31575185  1  0  0.105502  0  0.971828  0  0  0.122638  0  1.043076  0  0  0.123303  0  1.044112  0  0  0.081617  0.121892  0  1.042828  0
H  H49  1  0.00569772  0.11343180  0.18424948  1  0  0.105504  0  0.971817  0  0  0.122636  0  1.043072  0  0  0.1233  0  1.044109  0  0  0.08161  0.121889  0  1.042821  0
H  H50  1  0.49429953  0.11342990  0.68424788  1  0  0.105548  0  0.97186  0  0  0.122683  0  1.043102  0  0  0.123347  0  1.044138  0  0  0.081627  0.121934  0  1.042848  0
H  H51  1  0.99430255  0.88656842  0.81575073  1  0  0.105513  0  0.971813  0  0  0.12265  0  1.043059  0  0  0.123313  0  1.044095  0  0  0.081615  0.121901  0  1.042812  0
H  H52  1  0.50183028  0.07679330  0.32269864  1  0  0.099131  0  0.979907  0  0  0.117353  0  1.047347  0  0  0.118546  0  1.047058  0  0  0.080305  0.116407  0  1.047835  0
H  H53  1  0.00182955  0.92320989  0.17730443  1  0  0.099091  0  0.979955  0  0  0.117364  0  1.047336  0  0  0.118556  0  1.047049  0  0  0.080315  0.116416  0  1.047834  0
H  H54  1  0.49816874  0.92320692  0.67730041  1  0  0.099123  0  0.979934  0  0  0.117346  0  1.047373  0  0  0.118539  0  1.047085  0  0  0.080297  0.116398  0  1.047869  0
H  H55  1  0.99816948  0.07679033  0.82269578  1  0  0.099127  0  0.979944  0  0  0.117372  0  1.047351  0  0  0.118564  0  1.047064  0  0  0.080315  0.116423  0  1.047844  0
H  H56  1  0.33969323  0.96960239  0.27362480  1  0  0.108326  0  0.964341  0  0  0.130102  0  1.025985  0  0  0.131226  0  1.026357  0  0  0.086507  0.129299  0  1.025435  0
H  H57  1  0.83969029  0.03040110  0.22637646  1  0  0.108354  0  0.964388  0  0  0.130094  0  1.026076  0  0  0.131217  0  1.026446  0  0  0.086489  0.129291  0  1.02553  0
H  H58  1  0.66030704  0.03039891  0.72637493  1  0  0.108337  0  0.964343  0  0  0.13011  0  1.025992  0  0  0.131234  0  1.026362  0  0  0.086507  0.129307  0  1.025436  0
H  H59  1  0.16030874  0.96959805  0.77362307  1  0  0.108356  0  0.964411  0  0  0.130099  0  1.026089  0  0  0.131222  0  1.026458  0  0  0.086496  0.129296  0  1.025542  0
H  H60  1  0.55865336  0.57968005  0.93617764  1  0  0.421733  0  0.882909  0  0  0.389154  0  0.949537  0  0  0.400227  0  0.933532  0  0  0.287507  0.381424  0  0.960652  0
H  H61  1  0.05865336  0.42032002  0.56382183  1  0  0.421731  0  0.882911  0  0  0.389149  0  0.949543  0  0  0.400222  0  0.933539  0  0  0.287505  0.381419  0  0.960658  0
H  H62  1  0.44134691  0.42031910  0.06382189  1  0  0.4217  0  0.882947  0  0  0.389125  0  0.949569  0  0  0.400199  0  0.933566  0  0  0.287503  0.381398  0  0.96068  0
H  H63  1  0.94134816  0.57968020  0.43617780  1  0  0.421726  0  0.882912  0  0  0.389147  0  0.949542  0  0  0.400219  0  0.933538  0  0  0.287509  0.381419  0  0.960655  0
H  H64  1  0.48823302  0.42240737  0.91251294  1  0  0.418709  0  0.88538  0  0  0.3881  0  0.949349  0  0  0.398366  0  0.934358  0  0  0.28883  0.380876  0  0.95988  0
H  H65  1  0.98823343  0.57759308  0.58748819  1  0  0.418725  0  0.885349  0  0  0.388106  0  0.949338  0  0  0.398373  0  0.934346  0  0  0.288834  0.380883  0  0.959868  0
H  H66  1  0.51176725  0.57759285  0.08748785  1  0  0.418708  0  0.885369  0  0  0.388093  0  0.949348  0  0  0.39836  0  0.934356  0  0  0.288835  0.380872  0  0.959877  0
H  H67  1  0.01176684  0.42240714  0.41251260  1  0  0.418694  0  0.8854  0  0  0.388082  0  0.94937  0  0  0.398348  0  0.934378  0  0  0.288826  0.38086  0  0.959896  0
C  C68  1  0.37718099  0.31647503  0.57996733  1  0  0.114847  0  3.680889  0  0  0.075902  0  3.927156  0  0  0.084346  0  3.945073  0  0  0.050441  0.070675  0  3.914793  0
C  C69  1  0.87717989  0.68352103  0.92003343  1  0  0.114837  0  3.680751  0  0  0.075895  0  3.927048  0  0  0.084334  0  3.94498  0  0  0.050456  0.070672  0  3.914669  0
C  C70  1  0.62281928  0.68352734  0.42003134  1  0  0.114959  0  3.680977  0  0  0.075992  0  3.927255  0  0  0.084435  0  3.945181  0  0  0.050502  0.070762  0  3.914903  0
C  C71  1  0.12282038  0.31647382  0.07996745  1  0  0.114917  0  3.680939  0  0  0.07591  0  3.927244  0  0  0.08435  0  3.945174  0  0  0.05048  0.070675  0  3.914891  0
C  C72  1  0.36654054  0.27194609  0.49853091  1  0  -0.105923  0  3.769261  0  0  -0.078304  0  4.006509  0  0  -0.08897  0  4.029004  0  0  -0.009652  -0.071597  0  3.991643  0
C  C73  1  0.86654000  0.72805529  0.00146899  1  0  -0.105905  0  3.769194  0  0  -0.078313  0  4.006472  0  0  -0.088981  0  4.028964  0  0  -0.009656  -0.071603  0  3.991604  0
C  C74  1  0.63346098  0.72805522  0.50146708  1  0  -0.106  0  3.769365  0  0  -0.078358  0  4.006579  0  0  -0.089026  0  4.029072  0  0  -0.009643  -0.071646  0  3.991711  0
C  C75  1  0.13346152  0.27194493  0.99853122  1  0  -0.106032  0  3.76944  0  0  -0.078334  0  4.006597  0  0  -0.089003  0  4.029091  0  0  -0.009651  -0.071621  0  3.991725  0
C  C76  1  0.50504491  0.29305840  0.45232269  1  0  -0.019618  0  3.684085  0  0  -0.048378  0  3.928673  0  0  -0.043509  0  3.946236  0  0  -0.061185  -0.051261  0  3.916802  0
C  C77  1  0.00504530  0.70694373  0.04767680  1  0  -0.019667  0  3.684018  0  0  -0.048416  0  3.928636  0  0  -0.043546  0  3.946199  0  0  -0.061212  -0.051304  0  3.916773  0
C  C78  1  0.49495536  0.70694182  0.54767520  1  0  -0.019602  0  3.683989  0  0  -0.048357  0  3.928569  0  0  -0.043486  0  3.946131  0  0  -0.061178  -0.051228  0  3.916671  0
C  C79  1  0.99495497  0.29305542  0.95232331  1  0  -0.01966  0  3.684014  0  0  -0.048446  0  3.928625  0  0  -0.043575  0  3.946188  0  0  -0.061222  -0.051325  0  3.916726  0
C  C80  1  0.64956848  0.35123677  0.48909313  1  0  -0.104437  0  3.692079  0  0  -0.113816  0  3.942101  0  0  -0.121278  0  3.962355  0  0  -0.081693  -0.109163  0  3.929116  0
C  C81  1  0.14956884  0.64876334  0.01090671  1  0  -0.104387  0  3.692036  0  0  -0.113789  0  3.942072  0  0  -0.121249  0  3.962325  0  0  -0.081694  -0.109134  0  3.929086  0
C  C82  1  0.35043179  0.64876238  0.51090582  1  0  -0.104527  0  3.69216  0  0  -0.113966  0  3.942198  0  0  -0.121426  0  3.962446  0  0  -0.08176  -0.109302  0  3.929191  0
C  C83  1  0.85043143  0.35123473  0.98909330  1  0  -0.10438  0  3.692026  0  0  -0.113827  0  3.942059  0  0  -0.121287  0  3.962304  0  0  -0.081695  -0.109164  0  3.929048  0
C  C84  1  0.65021760  0.39101800  0.57062021  1  0  0.130367  0  3.696078  0  0  0.097225  0  3.947976  0  0  0.105628  0  3.965067  0  0  0.043963  0.091235  0  3.937343  0
C  C85  1  0.15021616  0.60898108  0.92937973  1  0  0.13028  0  3.696126  0  0  0.097142  0  3.948014  0  0  0.105547  0  3.965106  0  0  0.043941  0.091152  0  3.937379  0
C  C86  1  0.34978392  0.60898223  0.42937826  1  0  0.130342  0  3.696288  0  0  0.097233  0  3.948131  0  0  0.105638  0  3.965224  0  0  0.043959  0.09124  0  3.937505  0
C  C87  1  0.84978411  0.39101699  0.07062086  1  0  0.130195  0  3.696264  0  0  0.097068  0  3.94815  0  0  0.105474  0  3.965244  0  0  0.043883  0.091066  0  3.937538  0
C  C88  1  0.20404279  0.22273023  0.46118628  1  0  0.501966  0  3.815493  0  0  0.442777  0  4.108028  0  0  0.472971  0  4.108311  0  0  0.250249  0.422385  0  4.1075  0
C  C89  1  0.70404352  0.77726993  0.03881413  1  0  0.502016  0  3.815511  0  0  0.442856  0  4.108008  0  0  0.473054  0  4.108285  0  0  0.250286  0.422463  0  4.107488  0
C  C90  1  0.79595623  0.77727000  0.53881277  1  0  0.501951  0  3.815481  0  0  0.442776  0  4.107987  0  0  0.472971  0  4.10827  0  0  0.250243  0.422382  0  4.107464  0
C  C91  1  0.29595925  0.22273243  0.96118628  1  0  0.501999  0  3.81558  0  0  0.442825  0  4.108046  0  0  0.473019  0  4.10833  0  0  0.250262  0.422433  0  4.107516  0
C  C92  1  0.04493028  0.06462452  0.36319883  1  0  0.051206  0  3.640279  0  0  -0.003928  0  3.89692  0  0  0.002198  0  3.908105  0  0  -0.064354  -0.007855  0  3.8889  0
C  C93  1  0.54492860  0.93537551  0.13680161  1  0  0.051291  0  3.640028  0  0  -0.00393  0  3.896799  0  0  0.002215  0  3.907965  0  0  -0.064354  -0.007855  0  3.888786  0
C  C94  1  0.95506999  0.93537571  0.63680138  1  0  0.051257  0  3.639963  0  0  -0.004  0  3.89677  0  0  0.002146  0  3.907932  0  0  -0.064397  -0.007935  0  3.888756  0
C  C95  1  0.45507167  0.06462472  0.86319801  1  0  0.051362  0  3.639857  0  0  -0.003973  0  3.89674  0  0  0.002179  0  3.907895  0  0  -0.064375  -0.007912  0  3.888738  0
C  C96  1  0.91264657  0.98762265  0.40369979  1  0  -0.306346  0  3.679613  0  0  -0.385067  0  3.924433  0  0  -0.38802  0  3.934565  0  0  -0.247816  -0.382904  0  3.917522  0
C  C97  1  0.41264601  0.01237877  0.09630069  1  0  -0.30646  0  3.679576  0  0  -0.385162  0  3.92441  0  0  -0.38812  0  3.934535  0  0  -0.247862  -0.382998  0  3.917493  0
C  C98  1  0.08735371  0.01237865  0.59629994  1  0  -0.306331  0  3.679492  0  0  -0.385012  0  3.924337  0  0  -0.387962  0  3.934468  0  0  -0.247801  -0.382859  0  3.917411  0
C  C99  1  0.58735426  0.98762145  0.90369952  1  0  -0.306376  0  3.679508  0  0  -0.385048  0  3.924374  0  0  -0.388006  0  3.934498  0  0  -0.247817  -0.382881  0  3.917463  0
C  C100  1  0.32794878  0.99017838  0.40039145  1  0  0.0552  0  3.659426  0  0  -0.002139  0  3.923452  0  0  0.002998  0  3.936382  0  0  -0.061433  -0.00527  0  3.914264  0
C  C101  1  0.82794845  0.00982295  0.09961020  1  0  0.055223  0  3.659504  0  0  -0.002094  0  3.923486  0  0  0.003044  0  3.936416  0  0  -0.061418  -0.005223  0  3.914287  0
C  C102  1  0.67204901  0.00982398  0.59960896  1  0  0.055295  0  3.659345  0  0  -0.002013  0  3.923324  0  0  0.003125  0  3.936255  0  0  -0.061398  -0.005149  0  3.914138  0
C  C103  1  0.17205058  0.99017834  0.90039011  1  0  0.055252  0  3.65945  0  0  -0.002127  0  3.923519  0  0  0.00301  0  3.936449  0  0  -0.061432  -0.005252  0  3.914327  0
C  C104  1  0.42489425  0.98148774  0.32397790  1  0  -0.321814  0  3.699975  0  0  -0.402805  0  3.950414  0  0  -0.405412  0  3.960508  0  0  -0.255584  -0.400749  0  3.943112  0
C  C105  1  0.92489135  0.01851476  0.17602383  1  0  -0.321846  0  3.700117  0  0  -0.402855  0  3.95054  0  0  -0.40546  0  3.960634  0  0  -0.25558  -0.400793  0  3.943226  0
C  C106  1  0.57510478  0.01851356  0.67602241  1  0  -0.321903  0  3.700086  0  0  -0.4029  0  3.950501  0  0  -0.405509  0  3.960599  0  0  -0.255604  -0.400845  0  3.943197  0
C  C107  1  0.07510768  0.98148654  0.82397590  1  0  -0.321904  0  3.700127  0  0  -0.402875  0  3.950555  0  0  -0.40548  0  3.960652  0  0  -0.255585  -0.400805  0  3.943214  0
N  N108  1  0.51557570  0.37551715  0.61498084  1  0  -0.335595  0  3.284197  0  0  -0.258051  0  3.547324  0  0  -0.279305  0  3.568386  0  0  -0.328858  -0.243389  0  3.532928  0
N  N109  1  0.01557558  0.62447967  0.88502008  1  0  -0.335551  0  3.284242  0  0  -0.258002  0  3.547359  0  0  -0.279256  0  3.568419  0  0  -0.328873  -0.24334  0  3.532957  0
N  N110  1  0.48442457  0.62448415  0.38501831  1  0  -0.335569  0  3.284418  0  0  -0.258035  0  3.547551  0  0  -0.27929  0  3.568611  0  0  -0.328847  -0.243376  0  3.533167  0
N  N111  1  0.98442470  0.37551733  0.11498157  1  0  -0.335468  0  3.284238  0  0  -0.257914  0  3.547371  0  0  -0.27917  0  3.568434  0  0  -0.328805  -0.243259  0  3.532997  0
N  N112  1  0.19637513  0.09966703  0.41044601  1  0  -0.198807  0  3.393062  0  0  -0.109657  0  3.626488  0  0  -0.131396  0  3.649081  0  0  -0.265424  -0.095002  0  3.610663  0
N  N113  1  0.69637470  0.90033313  0.08955382  1  0  -0.198893  0  3.393078  0  0  -0.109727  0  3.62652  0  0  -0.131472  0  3.649105  0  0  -0.265446  -0.095073  0  3.610699  0
N  N114  1  0.80362390  0.90033427  0.58955314  1  0  -0.198843  0  3.392829  0  0  -0.109683  0  3.626297  0  0  -0.131429  0  3.648887  0  0  -0.265416  -0.095012  0  3.610471  0
N  N115  1  0.30362433  0.09966817  0.91044532  1  0  -0.198812  0  3.392893  0  0  -0.109595  0  3.626349  0  0  -0.131339  0  3.648935  0  0  -0.265385  -0.094938  0  3.610525  0
Cl  Cl116  1  0.25500731  0.32364757  0.76959209  1  0  -0.571985  0  0.947886  0  0  -0.505973  0  1.225387  0  0  -0.525139  0  1.2055  0  0  -0.28926  -0.491709  0  1.238426  0
Cl  Cl117  1  0.75500269  0.67635160  0.73040782  1  0  -0.571981  0  0.947902  0  0  -0.505952  0  1.225372  0  0  -0.525118  0  1.205486  0  0  -0.289255  -0.491703  0  1.238433  0
Cl  Cl118  1  0.74499671  0.67635480  0.23040716  1  0  -0.571983  0  0.947851  0  0  -0.50595  0  1.225312  0  0  -0.525115  0  1.205424  0  0  -0.289228  -0.491689  0  1.238403  0
Cl  Cl119  1  0.24499509  0.32364541  0.26959093  1  0  -0.571982  0  0.94785  0  0  -0.505956  0  1.225323  0  0  -0.525123  0  1.205438  0  0  -0.289255  -0.491715  0  1.238407  0
Cl  Cl120  1  0.80032289  0.31866880  0.75792231  1  0  -0.582564  0  0.916403  0  0  -0.5148  0  1.187051  0  0  -0.534659  0  1.167002  0  0  -0.306319  -0.5005  0  1.200722  0
Cl  Cl121  1  0.30031803  0.68132934  0.74207807  1  0  -0.582532  0  0.916341  0  0  -0.514797  0  1.187024  0  0  -0.534656  0  1.166977  0  0  -0.306292  -0.500467  0  1.200687  0
Cl  Cl122  1  0.19967863  0.68132928  0.24207654  1  0  -0.582554  0  0.916383  0  0  -0.514806  0  1.187056  0  0  -0.534665  0  1.167007  0  0  -0.306282  -0.500464  0  1.200723  0
Cl  Cl123  1  0.69967477  0.31867516  0.25792659  1  0  -0.58254  0  0.916351  0  0  -0.514811  0  1.187051  0  0  -0.534668  0  1.167  0  0  -0.306282  -0.500471  0  1.200715  0
O  O124  1  0.53533151  0.50339335  0.89022670  1  0  -0.846275  0  1.934703  0  0  -0.786617  0  2.139157  0  0  -0.807968  0  2.105295  0  0  -0.598353  -0.771369  0  2.162268  0
O  O125  1  0.03533156  0.49660670  0.60977335  1  0  -0.846279  0  1.934662  0  0  -0.786619  0  2.13912  0  0  -0.807969  0  2.105258  0  0  -0.598349  -0.771366  0  2.162234  0
O  O126  1  0.46466876  0.49660687  0.10977351  1  0  -0.84626  0  1.934738  0  0  -0.7866  0  2.139178  0  0  -0.807952  0  2.105314  0  0  -0.598353  -0.771313  0  2.162227  0
O  O127  1  0.96466996  0.50339245  0.39022618  1  0  -0.846287  0  1.934763  0  0  -0.786624  0  2.13921  0  0  -0.807974  0  2.105353  0  0  -0.598353  -0.771339  0  2.162262  0
O  O128  1  0.07725174  0.30299537  0.47648204  1  0  -0.603911  0  2.021645  0  0  -0.538131  0  2.243358  0  0  -0.562929  0  2.236075  0  0  -0.297085  -0.520747  0  2.247766  0
O  O129  1  0.57725114  0.69700575  0.02351791  1  0  -0.603911  0  2.021642  0  0  -0.538153  0  2.243363  0  0  -0.562951  0  2.236078  0  0  -0.297077  -0.520766  0  2.247774  0
O  O130  1  0.92274853  0.69700593  0.52351769  1  0  -0.60388  0  2.021653  0  0  -0.538112  0  2.243376  0  0  -0.562908  0  2.236091  0  0  -0.297065  -0.520723  0  2.247787  0
O  O131  1  0.42275038  0.30299447  0.97648230  1  0  -0.603907  0  2.021668  0  0  -0.538174  0  2.243419  0  0  -0.562969  0  2.236133  0  0  -0.297106  -0.520791  0  2.247827  0
