# generated using pymatgen
data_MnH(CO)5
_symmetry_space_group_name_H-M   'P 1'
_cell_length_a   7.03511686
_cell_length_b   15.35872478
_cell_length_c   15.36139320
_cell_angle_alpha   117.69784476
_cell_angle_beta   98.79242561
_cell_angle_gamma   98.77516309
_symmetry_Int_Tables_number   1
_chemical_formula_structural   MnH(CO)5
_chemical_formula_sum   'Mn6 H6 C30 O30'
_cell_volume   1404.11699830
_cell_formula_units_Z   6
loop_
 _symmetry_equiv_pos_site_id
 _symmetry_equiv_pos_as_xyz
  1  'x, y, z'
loop_
 _atom_site_type_symbol
 _atom_site_label
 _atom_site_symmetry_multiplicity
 _atom_site_fract_x
 _atom_site_fract_y
 _atom_site_fract_z
 _atom_site_occupancy
 _atom_site_hle17_ddec_charge
 _atom_site_hle17_ddec_spin_density
 _atom_site_hle17_ddec_sum_bond_order
 _atom_site_hle17_magmom
 _atom_site_hse06_10hf_ddec_charge
 _atom_site_hse06_10hf_ddec_spin_density
 _atom_site_hse06_10hf_ddec_sum_bond_order
 _atom_site_hse06_10hf_magmom
 _atom_site_hse06_ddec_charge
 _atom_site_hse06_ddec_spin_density
 _atom_site_hse06_ddec_sum_bond_order
 _atom_site_hse06_magmom
 _atom_site_pbe_cm5_charge
 _atom_site_pbe_ddec_charge
 _atom_site_pbe_ddec_spin_density
 _atom_site_pbe_ddec_sum_bond_order
 _atom_site_pbe_magmom
Mn  Mn0  1  0.47222915  0.26078162  0.58775908  1  1.215831  4.778536  1.765144  4.65  1.063613  4.708798  2.260043  4.514  1.127422  4.754752  2.183303  4.583  0.616691  1.013681  4.659621  2.316345  4.444
Mn  Mn1  1  0.21153962  0.32697885  0.73920571  1  1.21525  4.77339  1.766221  4.651  1.062951  4.702811  2.260918  4.514  1.12673  4.74853  2.184319  4.583  0.616333  1.013046  4.654272  2.316887  4.445
Mn  Mn2  1  0.88450999  0.41228527  0.67312269  1  1.216129  4.769441  1.765648  4.65  1.063873  4.699778  2.260479  4.514  1.127575  4.745596  2.183819  4.583  0.616561  1.014055  4.650762  2.316612  4.444
Mn  Mn3  1  0.52777547  0.73921777  0.41223972  1  1.21584  4.778537  1.765202  4.65  1.063585  4.708798  2.260119  4.514  1.127396  4.754754  2.183381  4.583  0.616666  1.013655  4.659614  2.316407  4.444
Mn  Mn4  1  0.78846365  0.67302358  0.26079701  1  1.215294  4.77339  1.766179  4.651  1.06298  4.702805  2.260912  4.514  1.126757  4.748526  2.184316  4.583  0.61636  1.01307  4.654269  2.316913  4.445
Mn  Mn5  1  0.11549358  0.58771488  0.32687703  1  1.216143  4.769439  1.765669  4.65  1.063886  4.699776  2.260498  4.514  1.127593  4.745594  2.183836  4.583  0.616566  1.014072  4.650759  2.316628  4.444
H  H6  1  0.80306317  0.44223066  0.46553962  1  0.124606  -0.000787  0.951874  0.0  0.131502  -0.000404  1.018345  0.0  0.135687  -0.000525  1.015403  0.0  0.107153  0.128528  -0.00026  1.020441  0.0
H  H7  1  0.36079909  0.02318458  0.55766761  1  0.124918  -0.000797  0.952174  0.0  0.13133  -0.000404  1.019034  0.0  0.135597  -0.000524  1.016018  0.0  0.106836  0.128318  -0.000261  1.021147  0.0
H  H8  1  0.33752765  0.53436943  0.97673689  1  0.124997  -0.000784  0.9526  0.0  0.131334  -0.000407  1.019616  0.0  0.135603  -0.000527  1.016602  0.0  0.10669  0.128302  -0.000267  1.021772  0.0
H  H9  1  0.19693532  0.55776797  0.53445904  1  0.124578  -0.000766  0.951894  0.0  0.131467  -0.000403  1.018383  0.0  0.135652  -0.000526  1.015442  0.0  0.10714  0.12849  -0.00026  1.020477  0.0
H  H10  1  0.63920236  0.97681708  0.44233463  1  0.12488  -0.000775  0.952189  0.0  0.1313  -0.000404  1.019055  0.0  0.135566  -0.000524  1.016038  0.0  0.10683  0.128291  -0.000261  1.021166  0.0
H  H11  1  0.66247380  0.46563224  0.02326274  1  0.125026  -0.000759  0.952598  0.0  0.131344  -0.000407  1.01962  0.0  0.135612  -0.000527  1.016607  0.0  0.106696  0.128313  -0.000266  1.021781  0.0
C  C12  1  0.25869454  0.43689005  0.60752213  1  0.714153  0.011255  3.79901  0.012  0.664436  0.021262  4.080833  0.019  0.704588  0.015397  4.068848  0.015  0.238137  0.635417  0.028256  4.089047  0.025
C  C13  1  0.82175139  0.17065364  0.56313071  1  0.712476  0.011197  3.801533  0.012  0.662774  0.021202  4.083098  0.019  0.702823  0.015378  4.071246  0.015  0.2373  0.633868  0.028098  4.091145  0.024
C  C14  1  0.65106633  0.39252725  0.82938991  1  0.713457  0.01129  3.801316  0.012  0.664004  0.021264  4.082097  0.019  0.70408  0.015413  4.07023  0.015  0.238057  0.635091  0.028234  4.090214  0.024
C  C15  1  0.74130289  0.56310933  0.39247747  1  0.714145  0.01127  3.798966  0.012  0.664419  0.02126  4.080794  0.019  0.704576  0.015401  4.068808  0.015  0.238104  0.635399  0.028258  4.089008  0.025
C  C16  1  0.17825149  0.82934802  0.43687033  1  0.712472  0.011237  3.801606  0.012  0.662777  0.021199  4.083146  0.019  0.702826  0.015382  4.071295  0.015  0.237333  0.633869  0.028098  4.091191  0.024
C  C17  1  0.34893474  0.60747366  0.17060934  1  0.713384  0.011293  3.801392  0.012  0.663936  0.021264  4.082171  0.019  0.704013  0.015412  4.070304  0.015  0.237998  0.63502  0.028233  4.090287  0.024
C  C18  1  0.38527944  0.46613650  0.55177930  1  -0.174338  0.005868  3.749503  0.006  -0.161591  0.008995  3.995856  0.007  -0.172118  0.00583  4.018124  0.005  -0.03383  -0.154728  0.013327  3.981546  0.01
C  C19  1  0.91918607  0.08565579  0.53388546  1  -0.173501  0.005856  3.750396  0.006  -0.160121  0.008902  3.995946  0.007  -0.170708  0.005799  4.018392  0.005  -0.033378  -0.153195  0.01312  3.981475  0.01
C  C20  1  0.83346947  0.44823555  0.91434471  1  -0.173209  0.005824  3.752174  0.006  -0.159406  0.008962  3.996437  0.007  -0.170038  0.005823  4.018925  0.005  -0.033571  -0.152607  0.013205  3.982161  0.01
C  C21  1  0.61472049  0.53386213  0.44821946  1  -0.17431  0.005814  3.749498  0.006  -0.161526  0.009001  3.995805  0.007  -0.172063  0.005827  4.018088  0.005  -0.033795  -0.154661  0.013326  3.981496  0.01
C  C22  1  0.08081280  0.91434360  0.46611488  1  -0.173515  0.005799  3.750476  0.006  -0.160159  0.008905  3.996051  0.007  -0.170746  0.005801  4.018499  0.005  -0.033375  -0.153228  0.013122  3.981575  0.01
C  C23  1  0.16652872  0.55176536  0.08565434  1  -0.173249  0.005833  3.752294  0.006  -0.159446  0.008962  3.996507  0.007  -0.170085  0.005824  4.019005  0.005  -0.033562  -0.152619  0.013205  3.982196  0.01
C  C24  1  0.56031623  0.43198375  0.53185621  1  0.326294  0.007294  3.863186  0.007  0.308661  0.013728  4.12655  0.012  0.321545  0.010043  4.147942  0.01  0.074642  0.29889  0.018012  4.111378  0.015
C  C25  1  0.12835315  0.09986446  0.56801142  1  0.326792  0.00728  3.863407  0.007  0.308619  0.013697  4.127482  0.012  0.321516  0.010007  4.148922  0.01  0.074786  0.298859  0.017959  4.112252  0.015
C  C26  1  0.02844913  0.46807795  0.90014916  1  0.326777  0.007343  3.86279  0.007  0.308879  0.013711  4.125877  0.012  0.321799  0.010033  4.147277  0.01  0.075144  0.299146  0.017933  4.110731  0.015
C  C27  1  0.43968225  0.56801488  0.46814245  1  0.326294  0.007358  3.86298  0.007  0.308623  0.013724  4.126365  0.012  0.321518  0.010039  4.147757  0.01  0.074577  0.298852  0.018013  4.111193  0.015
C  C28  1  0.87164753  0.90013568  0.43198941  1  0.326875  0.007327  3.863405  0.007  0.308704  0.013697  4.127484  0.012  0.321602  0.010001  4.14892  0.01  0.074806  0.298942  0.017958  4.112257  0.015
C  C29  1  0.97155087  0.53192372  0.09985037  1  0.326774  0.007348  3.862999  0.007  0.308942  0.01371  4.125973  0.012  0.321866  0.010036  4.14737  0.01  0.075179  0.2992  0.017932  4.110826  0.015
C  C30  1  0.66929289  0.46755007  0.48063171  1  -0.191184  0.006693  3.73833  0.006  -0.22389  0.008086  3.999205  0.007  -0.228295  0.00558  4.020017  0.005  -0.107073  -0.220307  0.010986  3.984995  0.009
C  C31  1  0.20171887  0.01303019  0.53238640  1  -0.192014  0.006725  3.739564  0.006  -0.224266  0.008094  4.000424  0.007  -0.228806  0.005602  4.021321  0.005  -0.106672  -0.220586  0.010945  3.986121  0.008
C  C32  1  0.18864672  0.51928054  0.98695590  1  -0.19262  0.006662  3.741076  0.006  -0.225365  0.008108  4.001756  0.007  -0.229833  0.005587  4.022602  0.005  -0.106861  -0.221754  0.011054  3.987605  0.009
C  C33  1  0.33070560  0.53244856  0.51936630  1  -0.191092  0.006614  3.738213  0.006  -0.223782  0.00809  3.999103  0.007  -0.228189  0.005578  4.019907  0.005  -0.106994  -0.220204  0.010985  3.984906  0.009
C  C34  1  0.79828258  0.98697148  0.46761584  1  -0.191981  0.006622  3.739491  0.006  -0.224245  0.008094  4.000341  0.007  -0.228784  0.005602  4.021239  0.005  -0.106666  -0.220566  0.010944  3.986041  0.008
C  C35  1  0.81135329  0.48072113  0.01304298  1  -0.192706  0.006634  3.741232  0.006  -0.225442  0.008107  4.00191  0.007  -0.229911  0.005586  4.022751  0.005  -0.106884  -0.221825  0.011053  3.987772  0.009
C  C36  1  0.28044995  0.06651910  0.35282553  1  0.829934  0.002685  3.771253  0.003  0.764613  0.00491  4.08897  0.005  0.809172  0.003102  4.073319  0.004  0.384741  0.733788  0.006934  4.10001  0.007
C  C37  1  0.21438166  0.28620063  0.93342088  1  0.83097  0.002702  3.768199  0.003  0.765916  0.004909  4.0858  0.005  0.810467  0.003105  4.070126  0.004  0.385327  0.735099  0.006939  4.096878  0.007
C  C38  1  0.92814996  0.64716070  0.71373389  1  0.829306  0.002719  3.769136  0.003  0.764093  0.004933  4.086833  0.005  0.808642  0.003122  4.071161  0.004  0.384082  0.733279  0.006966  4.097892  0.007
C  C39  1  0.71954664  0.93347572  0.64717189  1  0.829753  0.002717  3.771252  0.003  0.764416  0.00491  4.088994  0.005  0.808974  0.003104  4.07335  0.004  0.384581  0.73359  0.006935  4.100031  0.007
C  C40  1  0.78562055  0.71380255  0.06658277  1  0.831038  0.002695  3.768001  0.003  0.765964  0.00491  4.085609  0.005  0.810514  0.003105  4.069935  0.004  0.385346  0.735147  0.006939  4.096685  0.007
C  C41  1  0.07184164  0.35283564  0.28626843  1  0.829309  0.002715  3.769185  0.003  0.76412  0.004933  4.086854  0.005  0.808671  0.003121  4.071175  0.004  0.384056  0.733308  0.006965  4.097915  0.007
O  O42  1  0.30815703  0.37777868  0.64021107  1  -0.690828  0.06485  2.183118  0.044  -0.60925  0.080324  2.463378  0.055  -0.645537  0.071563  2.444672  0.047  -0.299448  -0.581743  0.088874  2.475521  0.063
O  O43  1  0.93019706  0.26242565  0.62220483  1  -0.689893  0.064818  2.184035  0.044  -0.607952  0.080268  2.463685  0.055  -0.644067  0.071484  2.444908  0.047  -0.2984  -0.580497  0.088842  2.475792  0.063
O  O44  1  0.66779776  0.35971371  0.73759947  1  -0.690575  0.064789  2.182453  0.044  -0.609129  0.080264  2.46234  0.055  -0.645255  0.071491  2.443539  0.047  -0.298967  -0.581662  0.088815  2.474457  0.063
O  O45  1  0.69184222  0.62222147  0.35978836  1  -0.690841  0.064851  2.183084  0.044  -0.609265  0.08033  2.46337  0.055  -0.645551  0.071565  2.44466  0.047  -0.29944  -0.581756  0.08888  2.475512  0.063
O  O46  1  0.06980507  0.73757449  0.37779479  1  -0.689898  0.064815  2.184032  0.044  -0.607947  0.08027  2.46367  0.055  -0.644063  0.071484  2.444892  0.047  -0.298415  -0.580491  0.088845  2.475776  0.063
O  O47  1  0.33220293  0.64028643  0.26240071  1  -0.690543  0.064788  2.18243  0.044  -0.609105  0.080265  2.462335  0.055  -0.645228  0.071492  2.443528  0.047  -0.298961  -0.581648  0.088815  2.474461  0.063
O  O48  1  0.10489830  0.47063200  0.62260674  1  -0.650066  0.037422  2.019447  0.025  -0.587482  0.046798  2.285251  0.03  -0.619645  0.040492  2.269084  0.024  -0.306743  -0.563519  0.053429  2.295943  0.036
O  O49  1  0.63422256  0.15197604  0.52936125  1  -0.649355  0.037364  2.019057  0.025  -0.586841  0.046667  2.284786  0.03  -0.619051  0.040393  2.268712  0.024  -0.306845  -0.562817  0.053221  2.295388  0.036
O  O50  1  0.48223274  0.37757843  0.84809230  1  -0.650097  0.03741  2.021532  0.025  -0.587346  0.046754  2.286791  0.03  -0.61948  0.040445  2.27062  0.024  -0.306951  -0.563353  0.053369  2.297354  0.036
O  O51  1  0.89509913  0.52936739  0.37739090  1  -0.650035  0.037417  2.019407  0.025  -0.587464  0.046796  2.285232  0.03  -0.619626  0.040491  2.269061  0.024  -0.306711  -0.5635  0.053428  2.295922  0.036
O  O52  1  0.36577995  0.84802487  0.47064006  1  -0.649394  0.037339  2.019127  0.024  -0.586843  0.046666  2.284818  0.03  -0.619053  0.040393  2.268746  0.024  -0.306864  -0.562821  0.053219  2.295415  0.036
O  O53  1  0.51776726  0.62242324  0.15190723  1  -0.650065  0.037411  2.021616  0.025  -0.587322  0.046754  2.286868  0.03  -0.619465  0.040448  2.270717  0.024  -0.306909  -0.563328  0.053369  2.297435  0.036
O  O54  1  0.62786081  0.36897682  0.55995925  1  -0.715157  0.080352  2.181775  0.056  -0.632396  0.0926  2.481227  0.061  -0.672231  0.081364  2.469525  0.05  -0.355905  -0.600176  0.103561  2.487024  0.072
O  O55  1  0.25886921  0.19092277  0.63107236  1  -0.71464  0.080249  2.181217  0.056  -0.632175  0.092538  2.481431  0.061  -0.672023  0.081307  2.469748  0.05  -0.355718  -0.599963  0.103475  2.487202  0.072
O  O56  1  0.06787972  0.44003437  0.80907996  1  -0.714516  0.080418  2.180128  0.056  -0.632117  0.092736  2.480247  0.061  -0.671886  0.081463  2.468454  0.05  -0.356115  -0.599979  0.103766  2.486074  0.072
O  O57  1  0.37213881  0.63102409  0.44004120  1  -0.7152  0.080333  2.181699  0.056  -0.632386  0.092604  2.481109  0.061  -0.672242  0.081368  2.469422  0.05  -0.355879  -0.600171  0.103561  2.486905  0.072
O  O58  1  0.74113224  0.80907890  0.36892988  1  -0.714647  0.080242  2.181286  0.056  -0.632172  0.092541  2.481498  0.061  -0.672018  0.081307  2.469814  0.05  -0.355702  -0.599961  0.103475  2.48727  0.072
O  O59  1  0.93211991  0.55996654  0.19091985  1  -0.714519  0.080409  2.18011  0.056  -0.632157  0.092737  2.480224  0.061  -0.671921  0.08146  2.46842  0.05  -0.356152  -0.60002  0.103766  2.486058  0.072
O  O60  1  0.29285773  0.98340886  0.30221549  1  -0.374731  0.001259  1.954233  0.002  -0.342424  0.003181  2.132406  0.004  -0.362806  0.002402  2.123598  0.003  -0.160759  -0.328936  0.004007  2.138664  0.005
O  O61  1  0.30974922  0.31871548  0.01656085  1  -0.375578  0.001258  1.951714  0.002  -0.3433  0.003185  2.129775  0.004  -0.36368  0.002405  2.120939  0.003  -0.16124  -0.329824  0.004012  2.136062  0.005
O  O62  1  0.99107622  0.69769582  0.68113171  1  -0.374367  0.001252  1.951587  0.002  -0.34212  0.003187  2.129842  0.004  -0.362498  0.002405  2.121027  0.003  -0.16054  -0.328654  0.004013  2.136114  0.005
O  O63  1  0.70714105  0.01658749  0.69778213  1  -0.374653  0.001244  1.95418  0.002  -0.34234  0.003182  2.132356  0.004  -0.362721  0.002402  2.123549  0.003  -0.16069  -0.328855  0.004008  2.138614  0.005
O  O64  1  0.69025404  0.68128694  0.98344187  1  -0.37559  0.001259  1.951531  0.002  -0.343307  0.003186  2.1296  0.004  -0.363685  0.002405  2.120765  0.003  -0.161255  -0.329832  0.004012  2.135883  0.005
O  O65  1  0.00891872  0.30230432  0.31887327  1  -0.374373  0.001257  1.951678  0.002  -0.342133  0.003186  2.12992  0.004  -0.362511  0.002405  2.121101  0.003  -0.160517  -0.328666  0.004013  2.136192  0.005
O  O66  1  0.26608161  0.15028094  0.40202714  1  -0.415288  0.009418  2.023328  0.0  -0.376507  0.016836  2.236873  0.004  -0.398472  0.015208  2.221685  0.004  -0.157946  -0.361697  0.018243  2.247895  0.004
O  O67  1  0.11631585  0.25162789  0.84964730  1  -0.415226  0.009396  2.022811  0.0  -0.37686  0.016846  2.236552  0.004  -0.3988  0.015212  2.221353  0.004  -0.158143  -0.362097  0.018257  2.247583  0.004
O  O68  1  0.86467351  0.59802182  0.74838601  1  -0.414713  0.009417  2.023676  0.0  -0.376089  0.016868  2.237284  0.004  -0.398037  0.015237  2.222071  0.004  -0.157419  -0.361302  0.018276  2.24832  0.004
O  O69  1  0.73391210  0.84971389  0.59797073  1  -0.415184  0.0094  2.023368  0.0  -0.376389  0.016837  2.236915  0.004  -0.398352  0.015206  2.221734  0.004  -0.157861  -0.36158  0.018243  2.247931  0.004
O  O70  1  0.88368636  0.74837530  0.15035699  1  -0.415294  0.009404  2.022807  0.0  -0.376905  0.016847  2.236548  0.004  -0.398844  0.015213  2.221346  0.004  -0.15815  -0.36214  0.018258  2.247582  0.004
O  O71  1  0.13531982  0.40197224  0.25161148  1  -0.414707  0.009414  2.023639  0.0  -0.376104  0.016868  2.237247  0.004  -0.398054  0.015236  2.22203  0.004  -0.157409  -0.361314  0.018276  2.248287  0.004
