# generated using pymatgen
data_ZnH9C16N3O8
_symmetry_space_group_name_H-M   'P 1'
_cell_length_a   9.77227038
_cell_length_b   11.03863695
_cell_length_c   17.21818973
_cell_angle_alpha   93.67379397
_cell_angle_beta   98.90500947
_cell_angle_gamma   86.53710388
_symmetry_Int_Tables_number   1
_chemical_formula_structural   ZnH9C16N3O8
_chemical_formula_sum   'Zn2 H18 C32 N6 O16'
_cell_volume   1828.80878774
_cell_formula_units_Z   2
loop_
 _symmetry_equiv_pos_site_id
 _symmetry_equiv_pos_as_xyz
  1  'x, y, z'
loop_
 _atom_site_type_symbol
 _atom_site_label
 _atom_site_symmetry_multiplicity
 _atom_site_fract_x
 _atom_site_fract_y
 _atom_site_fract_z
 _atom_site_occupancy
 _atom_site_pbe_bader_charge
 _atom_site_pbe_bader_spin_density
 _atom_site_pbe_cm5_charge
 _atom_site_pbe_ddec_charge
 _atom_site_pbe_ddec_spin_density
 _atom_site_pbe_ddec_sum_bond_order
 _atom_site_pbe_magmom
Zn  Zn0  1  0.63546931  0.48935887  0.50411999  1  1.285419  0  0.669506  0.820437  0  2.404156  0
Zn  Zn1  1  0.34417741  0.50826925  0.49456891  1  1.289588  0  0.673676  0.828697  0  2.419368  0
H  H2  1  0.62995119  0.31455915  0.26541814  1  0.137251  0  0.123348  0.1398  0  0.977687  0
H  H3  1  0.23395750  0.51174206  0.23307752  1  0.157884  0  0.122403  0.136499  0  0.985923  0
H  H4  1  0.32472853  0.40200895  0.97053565  1  0.098771  0  0.112612  0.122675  0  1.0012  0
H  H5  1  0.71570434  0.30103583  0.87291494  1  0.10061  0  0.116497  0.12102  0  0.971447  0
H  H6  1  0.71279674  0.36009404  0.73644133  1  0.120084  0  0.108352  0.109973  0  1.020327  0
H  H7  1  0.64306217  0.37189733  0.00918235  1  0.096308  0  0.112379  0.112791  0  0.986545  0
H  H8  1  0.36966699  0.55751509  0.89570104  1  0.142988  0  0.118927  0.138427  0  0.990971  0
H  H9  1  0.28660251  0.12221436  0.43716203  1  0.104716  0  0.106079  0.112715  0  0.993135  0
H  H10  1  0.28190939  0.89686097  0.43019102  1  0.082224  0  0.10693  0.110097  0  0.990557  0
H  H11  1  0.74569673  0.87557019  0.63669905  1  0.082766  0  0.113966  0.136626  0  0.957238  0
H  H12  1  0.82717880  0.86489533  0.54987283  1  0.058083  0  0.105163  0.123156  0  0.971911  0
H  H13  1  0.83069605  0.09397408  0.55582720  1  0.104054  0  0.12624  0.10508  0  0.953902  0
H  H14  1  0.07630028  0.56033753  0.38259026  1  0.140155  0  0.136839  0.121426  0  0.968598  0
H  H15  1  0.82015330  0.54847914  0.38403919  1  0.136044  0  0.136586  0.119652  0  0.966136  0
H  H16  1  0.91629469  0.49049418  0.68470620  1  0.113277  0  0.116757  0.147796  0  0.957021  0
H  H17  1  0.92321209  0.33483749  0.64903738  1  0.12458  0  0.106254  0.135909  0  1.023264  0
H  H18  1  0.17175043  0.49906245  0.68427084  1  0.129501  0  0.105969  0.133386  0  1.029349  0
H  H19  1  0.18119019  0.34431394  0.64680340  1  0.097881  0  0.117148  0.143615  0  0.950067  0
C  C20  1  0.49476137  0.26414798  0.50591138  1  1.552013  0  0.21367  0.595924  0  4.185745  0
C  C21  1  0.53234344  0.51358645  0.65282261  1  1.605397  0  0.218407  0.60003  0  4.199692  0
C  C22  1  0.48336681  0.73214355  0.49002182  1  1.584549  0  0.219516  0.607222  0  4.171423  0
C  C23  1  0.45114200  0.45521415  0.34598140  1  1.608752  0  0.216597  0.593148  0  4.183762  0
C  C24  1  0.54340271  0.49302476  0.73896830  1  0.058165  0  0.000303  -0.058478  0  3.929102  0
C  C25  1  0.44894959  0.54695575  0.78603887  1  0.176252  0  0.082903  0.054522  0  3.945328  0
C  C26  1  0.44359877  0.51110252  0.86118245  1  0.016178  0  -0.07131  -0.170966  0  3.903561  0
C  C27  1  0.53992785  0.42105603  0.89368746  1  -0.017285  0  0.001534  0.125622  0  4.01552  0
C  C28  1  0.63969920  0.37042846  0.84864998  1  -0.020093  0  -0.067232  -0.104067  0  3.911316  0
C  C29  1  0.63941248  0.40446361  0.77209053  1  -0.055236  0  -0.073298  -0.074216  0  3.953314  0
C  C30  1  0.52765824  0.32905254  0.14627650  1  0.203886  0  0.083639  0.031824  0  3.884499  0
C  C31  1  0.54045336  0.35232627  0.22713765  1  0.012069  0  -0.060865  -0.119488  0  3.923171  0
C  C32  1  0.31928293  0.46258426  0.20908515  1  0.101204  0  -0.062296  -0.120466  0  3.935334  0
C  C33  1  0.31482233  0.44576234  0.12803078  1  0.121615  0  0.085177  0.031355  0  3.876035  0
C  C34  1  0.42129809  0.38309485  0.09196084  1  0.078093  0  0.020744  0.054853  0  3.961907  0
C  C35  1  0.54058691  0.38819757  0.97472540  1  -0.005118  0  -0.069482  -0.089025  0  3.921552  0
C  C36  1  0.42415327  0.38623316  0.00776528  1  -0.036538  0  -0.089825  -0.133297  0  3.995998  0
C  C37  1  0.43664940  0.42226809  0.25929108  1  -0.004488  0  -0.00816  -0.003682  0  3.958338  0
C  C38  1  0.60440953  0.05447166  0.53373120  1  -0.02191  0  -0.010556  -0.001679  0  3.936592  0
C  C39  1  0.49289805  0.12898346  0.50148288  1  0.038255  0  -0.007602  -0.049548  0  3.967222  0
C  C40  1  0.37663192  0.06776956  0.46346893  1  -0.054625  0  -0.080182  -0.095771  0  3.963127  0
C  C41  1  0.37445954  0.94101383  0.45931972  1  0.028429  0  -0.076285  -0.088194  0  3.962575  0
C  C42  1  0.48847023  0.86705632  0.49224374  1  -0.00814  0  -0.004417  -0.054716  0  3.944894  0
C  C43  1  0.60315086  0.92830877  0.52963194  1  -0.00336  0  0.00237  0.075504  0  3.889476  0
C  C44  1  0.74528019  0.91232052  0.57887628  1  0.00629  0  -0.134011  -0.225802  0  3.813521  0
C  C45  1  0.74770315  0.05610537  0.58114187  1  0.192527  0  0.018716  -0.028296  0  3.747035  0
C  C46  1  0.08241358  0.47233825  0.55903490  1  0.531902  0  0.150779  0.206091  0  3.84202  0
C  C47  1  0.03743865  0.53331288  0.43456769  1  0.445632  0  0.062677  0.036397  0  3.881202  0
C  C48  1  0.89570098  0.52662982  0.43530682  1  0.482841  0  0.062906  0.042285  0  3.879358  0
C  C49  1  0.94013399  0.46622225  0.55980821  1  0.582238  0  0.149579  0.204162  0  3.85648  0
C  C50  1  0.95929769  0.42544084  0.64280417  1  -0.046243  0  -0.140382  -0.231325  0  3.803418  0
C  C51  1  0.12098518  0.43137876  0.64192518  1  -0.038144  0  -0.139717  -0.225296  0  3.808829  0
N  N52  1  0.13474127  0.50561761  0.49737476  1  -1.202947  0  -0.287591  -0.184  0  3.463287  0
N  N53  1  0.84399118  0.49209165  0.49906912  1  -1.235958  0  -0.290592  -0.188559  0  3.473658  0
N  N54  1  0.35709608  0.65117339  0.75818926  1  0.406412  0  0.058051  0.519372  0  4.212653  0
N  N55  1  0.19177582  0.50353155  0.08054041  1  0.374389  0  0.059369  0.521132  0  4.201353  0
N  N56  1  0.75459249  0.11440795  0.66357579  1  0.449211  0  0.05737  0.533681  0  4.160569  0
N  N57  1  0.63028234  0.23847734  0.11885870  1  0.409616  0  0.056391  0.51297  0  4.228639  0
O  O58  1  0.61321471  0.30985548  0.52400116  1  -1.161688  0  -0.319623  -0.543505  0  2.287744  0
O  O59  1  0.37860549  0.32273143  0.49054318  1  -1.173571  0  -0.31569  -0.549059  0  2.334366  0
O  O60  1  0.64392991  0.52155973  0.62488876  1  -1.157783  0  -0.30967  -0.532708  0  2.303168  0
O  O61  1  0.41000049  0.51258705  0.61452075  1  -1.165804  0  -0.311261  -0.550446  0  2.346311  0
O  O62  1  0.59838991  0.67134911  0.48902707  1  -1.164177  0  -0.318713  -0.554377  0  2.310915  0
O  O63  1  0.36555758  0.68917967  0.49011294  1  -1.156759  0  -0.31567  -0.537589  0  2.307766  0
O  O64  1  0.57292073  0.44356176  0.38463250  1  -1.171936  0  -0.315086  -0.554489  0  2.311637  0
O  O65  1  0.34148156  0.49318955  0.37290128  1  -1.169248  0  -0.315397  -0.54372  0  2.299384  0
O  O66  1  0.23607437  0.65545104  0.77281978  1  -0.481549  0  -0.143765  -0.349115  0  1.88317  0
O  O67  1  0.40716196  0.72849935  0.72361378  1  -0.433813  0  -0.126301  -0.315014  0  1.876511  0
O  O68  1  0.20905481  0.56112442  0.02360407  1  -0.439767  0  -0.127448  -0.326959  0  1.896386  0
O  O69  1  0.07870086  0.49169210  0.10252474  1  -0.423949  0  -0.133251  -0.327568  0  1.851653  0
O  O70  1  0.86352064  0.16371990  0.69216093  1  -0.475754  0  -0.14247  -0.359521  0  1.912393  0
O  O71  1  0.65360475  0.10777651  0.69780815  1  -0.451684  0  -0.119874  -0.319237  0  1.885765  0
O  O72  1  0.75384841  0.24994761  0.14702211  1  -0.46341  0  -0.140902  -0.337348  0  1.852446  0
O  O73  1  0.58455390  0.15535605  0.07232333  1  -0.427127  0  -0.127405  -0.318339  0  1.866833  0
