# generated using pymatgen
data_Zn4H32C34N8O5
_symmetry_space_group_name_H-M   'P 1'
_cell_length_a   11.55061638
_cell_length_b   11.55060877
_cell_length_c   34.78106376
_cell_angle_alpha   89.99995658
_cell_angle_beta   89.99997736
_cell_angle_gamma   90.00002722
_symmetry_Int_Tables_number   1
_chemical_formula_structural   Zn4H32C34N8O5
_chemical_formula_sum   'Zn8 H64 C68 N16 O10'
_cell_volume   4640.37304187
_cell_formula_units_Z   2
loop_
 _symmetry_equiv_pos_site_id
 _symmetry_equiv_pos_as_xyz
  1  'x, y, z'
loop_
 _atom_site_type_symbol
 _atom_site_label
 _atom_site_symmetry_multiplicity
 _atom_site_fract_x
 _atom_site_fract_y
 _atom_site_fract_z
 _atom_site_occupancy
 _atom_site_pbe_bader_charge
 _atom_site_pbe_bader_spin_density
 _atom_site_pbe_cm5_charge
 _atom_site_pbe_ddec_charge
 _atom_site_pbe_ddec_spin_density
 _atom_site_pbe_ddec_sum_bond_order
 _atom_site_pbe_magmom
Zn  Zn0  1  0.90130850  0.09869173  0.21819768  1  1.2311  0  0.684338  0.762552  0  2.514311  0
Zn  Zn1  1  0.09869179  0.90130811  0.21819735  1  1.231102  0  0.684385  0.762632  0  2.514185  0
Zn  Zn2  1  0.90130840  0.90130860  0.71819695  1  1.231097  0  0.684357  0.762598  0  2.514259  0
Zn  Zn3  1  0.09869216  0.09869184  0.71819711  1  1.231104  0  0.684371  0.762637  0  2.514171  0
Zn  Zn4  1  0.09869242  0.09869234  0.28180189  1  1.2311  0  0.684331  0.762562  0  2.51429  0
Zn  Zn5  1  0.90130779  0.90130823  0.28180231  1  1.231095  0  0.684322  0.762546  0  2.514309  0
Zn  Zn6  1  0.09869232  0.90130747  0.78180230  1  1.231098  0  0.684333  0.762566  0  2.514291  0
Zn  Zn7  1  0.90130730  0.09869196  0.78180207  1  1.231105  0  0.684333  0.762551  0  2.514302  0
H  H8  1  0.85142466  0.31467000  0.17304953  1  0.05045  0  0.093761  0.130275  0  1.01159  0
H  H9  1  0.14857568  0.68533082  0.17304981  1  0.050447  0  0.093769  0.130296  0  1.011562  0
H  H10  1  0.68533033  0.85142465  0.67304884  1  0.050424  0  0.093762  0.130266  0  1.011539  0
H  H11  1  0.31466855  0.14857590  0.67304953  1  0.047792  0  0.093754  0.130269  0  1.011556  0
H  H12  1  0.14857637  0.31466966  0.32695085  1  0.050437  0  0.093771  0.130272  0  1.011574  0
H  H13  1  0.85142379  0.68533081  0.32695133  1  0.050418  0  0.093758  0.130264  0  1.011531  0
H  H14  1  0.31466863  0.85142266  0.82695043  1  0.047786  0  0.09375  0.130264  0  1.011608  0
H  H15  1  0.68533093  0.14857581  0.82695049  1  0.050436  0  0.093748  0.130258  0  1.011574  0
H  H16  1  0.14857616  0.68533181  0.82695075  1  0.050424  0  0.093791  0.130288  0  1.011522  0
H  H17  1  0.85142341  0.31466926  0.82695046  1  0.047795  0  0.093754  0.130263  0  1.011589  0
H  H18  1  0.31466876  0.14857629  0.32695115  1  0.047775  0  0.093781  0.130292  0  1.011543  0
H  H19  1  0.68533140  0.85142245  0.32695046  1  0.047783  0  0.093745  0.130258  0  1.011609  0
H  H20  1  0.85142272  0.68533128  0.67304972  1  0.04779  0  0.093752  0.130263  0  1.011594  0
H  H21  1  0.14857529  0.31467013  0.67304895  1  0.050434  0  0.093771  0.130285  0  1.011523  0
H  H22  1  0.68533046  0.14857569  0.17304956  1  0.047803  0  0.093766  0.130275  0  1.011572  0
H  H23  1  0.31466902  0.85142340  0.17304950  1  0.047791  0  0.093768  0.130276  0  1.011533  0
H  H24  1  0.90059091  0.46059565  0.17382004  1  0.036172  0  0.095642  0.134476  0  0.997149  0
H  H25  1  0.09940944  0.53940516  0.17382037  1  0.03635  0  0.095638  0.134466  0  0.997149  0
H  H26  1  0.53940479  0.90059086  0.67381938  1  0.036173  0  0.095645  0.134466  0  0.997157  0
H  H27  1  0.46059495  0.09940969  0.67381977  1  0.036266  0  0.095625  0.134448  0  0.997161  0
H  H28  1  0.09940933  0.46059529  0.32618001  1  0.036333  0  0.095622  0.134436  0  0.997172  0
H  H29  1  0.90059083  0.53940431  0.32618081  1  0.036161  0  0.095643  0.134458  0  0.997146  0
H  H30  1  0.46059505  0.90058980  0.82618016  1  0.03627  0  0.095611  0.134422  0  0.997156  0
H  H31  1  0.53940538  0.09940954  0.82618026  1  0.036179  0  0.095629  0.134459  0  0.997182  0
H  H32  1  0.09940905  0.53940529  0.82618023  1  0.036183  0  0.095627  0.134458  0  0.997163  0
H  H33  1  0.90058965  0.46059491  0.82618019  1  0.036263  0  0.095625  0.134443  0  0.997162  0
H  H34  1  0.46059516  0.09940922  0.32618090  1  0.036171  0  0.095648  0.134467  0  0.997168  0
H  H35  1  0.53940586  0.90058952  0.32618021  1  0.036275  0  0.095603  0.134413  0  0.997203  0
H  H36  1  0.90058976  0.53940565  0.67381998  1  0.036278  0  0.095618  0.134437  0  0.997182  0
H  H37  1  0.09940999  0.46059576  0.67381946  1  0.036098  0  0.095651  0.134471  0  0.997142  0
H  H38  1  0.53940490  0.09940941  0.17381982  1  0.036171  0  0.095635  0.134461  0  0.997174  0
H  H39  1  0.46059458  0.90059054  0.17381973  1  0.036269  0  0.095631  0.134453  0  0.997158  0
H  H40  1  0.77838615  0.42048948  0.20135803  1  0.019962  0  0.094178  0.130979  0  0.989747  0
H  H41  1  0.22161330  0.57951041  0.20135833  1  0.019983  0  0.094171  0.13096  0  0.989754  0
H  H42  1  0.57950996  0.77838515  0.70135737  1  0.019955  0  0.094173  0.130976  0  0.989756  0
H  H43  1  0.42048975  0.22161533  0.70135773  1  0.019946  0  0.094179  0.130957  0  0.989704  0
H  H44  1  0.22161407  0.42049010  0.29864203  1  0.01996  0  0.094172  0.130963  0  0.989756  0
H  H45  1  0.77838526  0.57951043  0.29864284  1  0.019968  0  0.094177  0.130983  0  0.989751  0
H  H46  1  0.42048896  0.77838414  0.79864221  1  0.019943  0  0.094189  0.131003  0  0.989707  0
H  H47  1  0.57951064  0.22161352  0.79864198  1  0.019979  0  0.094169  0.130953  0  0.989711  0
H  H48  1  0.22161467  0.57951059  0.79864225  1  0.019954  0  0.094176  0.130973  0  0.989711  0
H  H49  1  0.77838406  0.42048880  0.79864194  1  0.019934  0  0.094174  0.130964  0  0.989704  0
H  H50  1  0.42049085  0.22161492  0.29864262  1  0.019951  0  0.094166  0.130956  0  0.989769  0
H  H51  1  0.57951021  0.77838475  0.29864225  1  0.019934  0  0.094195  0.130995  0  0.989716  0
H  H52  1  0.77838502  0.57951084  0.70135795  1  0.019946  0  0.094196  0.131001  0  0.989726  0
H  H53  1  0.22161469  0.42048965  0.70135743  1  0.019964  0  0.094174  0.130977  0  0.989756  0
H  H54  1  0.57951013  0.22161420  0.20135778  1  0.019955  0  0.094171  0.130949  0  0.989764  0
H  H55  1  0.42048931  0.77838568  0.20135801  1  0.019965  0  0.094168  0.130953  0  0.989752  0
H  H56  1  0.86877872  0.13122088  0.09833849  1  0.054202  0  0.103919  0.106315  0  1.003179  0
H  H57  1  0.13121912  0.86878183  0.09833931  1  0.054321  0  0.103921  0.10631  0  1.003197  0
H  H58  1  0.86878206  0.86878231  0.59833892  1  0.054336  0  0.103939  0.106354  0  1.00317  0
H  H59  1  0.13122038  0.13122014  0.59833791  1  0.054136  0  0.103931  0.106333  0  1.003202  0
H  H60  1  0.13121963  0.13121950  0.40166107  1  0.054312  0  0.103919  0.106341  0  1.003178  0
H  H61  1  0.86878044  0.86877993  0.40166150  1  0.054309  0  0.103921  0.106335  0  1.003174  0
H  H62  1  0.13122037  0.86878006  0.90166149  1  0.054226  0  0.103919  0.106331  0  1.003175  0
H  H63  1  0.86878083  0.13121911  0.90166125  1  0.054321  0  0.103904  0.106331  0  1.003202  0
H  H64  1  0.86767233  0.13232740  0.02772335  1  0.013222  0  0.100236  0.09803  0  1.019418  0
H  H65  1  0.13232560  0.86767461  0.02772445  1  0.024103  0  0.100265  0.098097  0  1.0194  0
H  H66  1  0.86767393  0.86767422  0.52772406  1  0.024091  0  0.100258  0.098073  0  1.019404  0
H  H67  1  0.13232772  0.13232839  0.52772305  1  0.013206  0  0.10023  0.098027  0  1.019429  0
H  H68  1  0.13232602  0.13232672  0.47227593  1  0.024096  0  0.100265  0.098083  0  1.01939  0
H  H69  1  0.86767397  0.86767255  0.47227607  1  0.013254  0  0.100264  0.098079  0  1.019388  0
H  H70  1  0.13232676  0.86767354  0.97227635  1  0.013236  0  0.100252  0.098057  0  1.019404  0
H  H71  1  0.86767349  0.13232633  0.97227611  1  0.024097  0  0.100264  0.098085  0  1.019386  0
C  C72  1  0.94151075  0.36224148  0.22447664  1  0.451079  0  0.085171  0.201683  0  4.040374  0
C  C73  1  0.05848867  0.63775835  0.22447666  1  0.451065  0  0.085155  0.20165  0  4.040415  0
C  C74  1  0.63775883  0.94151074  0.72447624  1  0.451165  0  0.085151  0.201706  0  4.040402  0
C  C75  1  0.36224172  0.05848882  0.72447666  1  0.451066  0  0.08515  0.20169  0  4.040389  0
C  C76  1  0.05848944  0.36224208  0.27552373  1  0.45117  0  0.08514  0.201665  0  4.040412  0
C  C77  1  0.94151078  0.63775850  0.27552392  1  0.451159  0  0.085146  0.201699  0  4.040426  0
C  C78  1  0.36224190  0.94150975  0.77552358  1  0.451167  0  0.085122  0.201644  0  4.040405  0
C  C79  1  0.63775859  0.05848796  0.77552338  1  0.451066  0  0.085159  0.201681  0  4.040423  0
C  C80  1  0.05848921  0.63775859  0.77552335  1  0.451174  0  0.085152  0.201658  0  4.040397  0
C  C81  1  0.94151042  0.36224172  0.77552333  1  0.451177  0  0.085119  0.201621  0  4.040425  0
C  C82  1  0.36224199  0.05848933  0.27552374  1  0.45118  0  0.085123  0.20161  0  4.040452  0
C  C83  1  0.63775823  0.94150952  0.27552333  1  0.451168  0  0.085106  0.201625  0  4.040442  0
C  C84  1  0.94150965  0.63775886  0.72447684  1  0.451185  0  0.085135  0.201659  0  4.040418  0
C  C85  1  0.05848917  0.36224157  0.72447635  1  0.451065  0  0.085151  0.201694  0  4.040447  0
C  C86  1  0.63775805  0.05848859  0.22447670  1  0.451073  0  0.085161  0.201695  0  4.040333  0
C  C87  1  0.36224136  0.94151125  0.22447660  1  0.45107  0  0.085156  0.201671  0  4.040414  0
C  C88  1  0.99999995  0.43665809  0.25000035  1  -0.043916  0  -0.044513  -0.13947  0  4.065308  0
C  C89  1  0.99999998  0.56334318  0.25000062  1  0.09896  0  -0.044467  -0.1394  0  4.065247  0
C  C90  1  0.56334289  0.99999939  0.74999990  1  0.09896  0  -0.044497  -0.139425  0  4.065244  0
C  C91  1  0.43665787  0.99999936  0.75000020  1  -0.043916  0  -0.044504  -0.139485  0  4.065288  0
C  C92  1  1.00000000  0.56334285  0.75000021  1  0.098849  0  -0.044496  -0.139431  0  4.065311  0
C  C93  1  0.99999910  0.43665776  0.74999994  1  -0.043915  0  -0.044477  -0.139424  0  4.065274  0
C  C94  1  0.43665817  0.99999993  0.25000025  1  -0.043928  0  -0.044505  -0.139414  0  4.065334  0
C  C95  1  0.56334232  0.99999909  0.25000024  1  0.098944  0  -0.044497  -0.139473  0  4.065341  0
C  C96  1  0.86393742  0.39081575  0.19150784  1  -0.035971  0  -0.232366  -0.41794  0  3.99326  0
C  C97  1  0.13606290  0.60918502  0.19150815  1  -0.035988  0  -0.23235  -0.417907  0  3.993269  0
C  C98  1  0.60918546  0.86393651  0.69150774  1  -0.035962  0  -0.232354  -0.417921  0  3.993302  0
C  C99  1  0.39081513  0.13606313  0.69150813  1  -0.03588  0  -0.232333  -0.417867  0  3.993189  0
C  C100  1  0.13606364  0.39081545  0.30849223  1  -0.035978  0  -0.232342  -0.417865  0  3.993302  0
C  C101  1  0.86393654  0.60918506  0.30849244  1  -0.035956  0  -0.232366  -0.41793  0  3.993278  0
C  C102  1  0.39081436  0.86393546  0.80849210  1  -0.035894  0  -0.232316  -0.417872  0  3.993275  0
C  C103  1  0.60918522  0.13606219  0.80849218  1  -0.035961  0  -0.232323  -0.417867  0  3.993226  0
C  C104  1  0.13606340  0.60918519  0.80849215  1  -0.035953  0  -0.232384  -0.417932  0  3.993165  0
C  C105  1  0.86393619  0.39081505  0.80849213  1  -0.035883  0  -0.232316  -0.417842  0  3.993213  0
C  C106  1  0.39081536  0.13606357  0.30849253  1  -0.035963  0  -0.232347  -0.417877  0  3.993276  0
C  C107  1  0.60918569  0.86393521  0.30849214  1  -0.035893  0  -0.232319  -0.417858  0  3.99331  0
C  C108  1  0.86393544  0.60918549  0.69150804  1  -0.035894  0  -0.232327  -0.417878  0  3.993276  0
C  C109  1  0.13606341  0.39081501  0.69150783  1  -0.035892  0  -0.232364  -0.417931  0  3.99328  0
C  C110  1  0.60918386  0.13606289  0.19150789  1  -0.035964  0  -0.232346  -0.417877  0  3.993245  0
C  C111  1  0.39081473  0.86393702  0.19150810  1  -0.035887  0  -0.232339  -0.417876  0  3.993221  0
C  C112  1  0.00000102  0.99999907  0.14597614  1  1.480894  0  0.222104  0.597404  0  4.166762  0
C  C113  1  0.00000135  0.00000100  0.64597564  1  1.480924  0  0.222125  0.597432  0  4.166761  0
C  C114  1  0.99999947  0.99999994  0.35402348  1  1.480931  0  0.222123  0.597425  0  4.16689  0
C  C115  1  0.00000059  0.99999914  0.85402321  1  1.480914  0  0.222114  0.597445  0  4.16674  0
C  C116  1  0.99999852  0.00000099  0.10301921  1  0.079993  0  -0.021365  -0.041442  0  3.98548  0
C  C117  1  0.00000224  0.00000191  0.60301893  1  0.079932  0  -0.021335  -0.041414  0  3.985462  0
C  C118  1  0.99999945  0.99999989  0.39698077  1  0.079987  0  -0.02135  -0.041381  0  3.985555  0
C  C119  1  0.99999970  0.99999909  0.89698078  1  0.079969  0  -0.021354  -0.041394  0  3.985427  0
C  C120  1  0.92627261  0.07372698  0.08245486  1  -0.060269  0  -0.084643  -0.086882  0  3.997164  0
C  C121  1  0.07372524  0.92627491  0.08245480  1  -0.060302  0  -0.08468  -0.086878  0  3.997173  0
C  C122  1  0.92627425  0.92627541  0.58245469  1  -0.060277  0  -0.084711  -0.086955  0  3.997157  0
C  C123  1  0.07372734  0.07372794  0.58245457  1  -0.060185  0  -0.084692  -0.086932  0  3.997192  0
C  C124  1  0.07372484  0.07372553  0.41754501  1  -0.060356  0  -0.084701  -0.086992  0  3.997235  0
C  C125  1  0.92627435  0.92627473  0.41754484  1  -0.060353  0  -0.084675  -0.086946  0  3.997245  0
C  C126  1  0.07372561  0.92627396  0.91754513  1  -0.060239  0  -0.084654  -0.086905  0  3.997149  0
C  C127  1  0.92627385  0.07372430  0.91754518  1  -0.060332  0  -0.084661  -0.086975  0  3.997215  0
C  C128  1  0.92641808  0.07358158  0.04250151  1  0.024954  0  -0.091582  -0.134025  0  3.986084  0
C  C129  1  0.07358155  0.92641867  0.04250174  1  0.024896  0  -0.091661  -0.134194  0  3.986231  0
C  C130  1  0.92641799  0.92641831  0.54250163  1  0.024918  0  -0.091625  -0.134114  0  3.986146  0
C  C131  1  0.07358191  0.07358254  0.54250151  1  0.02494  0  -0.091609  -0.134065  0  3.98612  0
C  C132  1  0.07358110  0.07358177  0.45749778  1  0.024939  0  -0.091612  -0.134073  0  3.986125  0
C  C133  1  0.92641977  0.92641927  0.45749819  1  0.024937  0  -0.091628  -0.134092  0  3.986146  0
C  C134  1  0.07358187  0.92641850  0.95749848  1  0.024913  0  -0.091615  -0.134082  0  3.986131  0
C  C135  1  0.92641840  0.07358054  0.95749796  1  0.02494  0  -0.091628  -0.134082  0  3.986139  0
C  C136  1  0.00000109  0.99999922  0.02131118  1  -0.068217  0  -0.003047  0.073386  0  3.985311  0
C  C137  1  0.99999969  0.00000027  0.52131097  1  -0.068206  0  -0.003039  0.073396  0  3.985271  0
C  C138  1  0.99999940  0.99999980  0.47868873  1  0.082004  0  -0.003054  0.073352  0  3.985327  0
C  C139  1  0.00000052  0.99999900  0.97868874  1  0.082014  0  -0.003053  0.07336  0  3.985313  0
N  N140  1  0.96404544  0.25152783  0.23431016  1  -0.823705  0  -0.285346  -0.259961  0  3.590423  0
N  N141  1  0.03595483  0.74847198  0.23431045  1  -0.8237  0  -0.285371  -0.260028  0  3.590429  0
N  N142  1  0.74847154  0.96404464  0.73431003  1  -0.804917  0  -0.285395  -0.260083  0  3.590512  0
N  N143  1  0.25152814  0.03595577  0.73431018  1  -0.804894  0  -0.285383  -0.260074  0  3.590442  0
N  N144  1  0.03595642  0.25152758  0.26568994  1  -0.804904  0  -0.285377  -0.260077  0  3.590467  0
N  N145  1  0.96404468  0.74847217  0.26569011  1  -0.804911  0  -0.285384  -0.260067  0  3.590462  0
N  N146  1  0.25152834  0.96404448  0.76568978  1  -0.823706  0  -0.285364  -0.260017  0  3.590433  0
N  N147  1  0.74847216  0.03595326  0.76568958  1  -0.823712  0  -0.285335  -0.259992  0  3.590526  0
N  N148  1  0.03595451  0.74847224  0.76568983  1  -0.823726  0  -0.285368  -0.260004  0  3.590474  0
N  N149  1  0.96404426  0.25152809  0.76568983  1  -0.804889  0  -0.285357  -0.259992  0  3.590438  0
N  N150  1  0.25152842  0.03595544  0.26568996  1  -0.804893  0  -0.285381  -0.260056  0  3.590481  0
N  N151  1  0.74847182  0.96404430  0.26568981  1  -0.8049  0  -0.285365  -0.260013  0  3.590439  0
N  N152  1  0.96404440  0.74847250  0.73431033  1  -0.804904  0  -0.28537  -0.260056  0  3.590469  0
N  N153  1  0.03595528  0.25152877  0.73430988  1  -0.823712  0  -0.285385  -0.260092  0  3.590479  0
N  N154  1  0.74847161  0.03595473  0.23431020  1  -0.823704  0  -0.285364  -0.260037  0  3.590437  0
N  N155  1  0.25152779  0.96404509  0.23431012  1  -0.823715  0  -0.285359  -0.26002  0  3.590455  0
O  O156  1  0.99999930  0.99999995  0.25000005  1  -1.252074  0  -0.590542  -0.872948  0  2.445916  0
O  O157  1  0.00000042  0.00000001  0.74999978  1  -1.252059  0  -0.59054  -0.872993  0  2.445982  0
O  O158  1  0.93014682  0.06985263  0.16246333  1  -1.179382  0  -0.320939  -0.541821  0  2.36035  0
O  O159  1  0.06985354  0.93014648  0.16246328  1  -1.179435  0  -0.320967  -0.541848  0  2.360321  0
O  O160  1  0.93014845  0.93014698  0.66246317  1  -1.179379  0  -0.320923  -0.541799  0  2.360397  0
O  O161  1  0.06985563  0.06985446  0.66246276  1  -1.17947  0  -0.320996  -0.541877  0  2.360274  0
O  O162  1  0.06985323  0.06985136  0.33753682  1  -1.179412  0  -0.320959  -0.54182  0  2.3604  0
O  O163  1  0.93014778  0.93014735  0.33753665  1  -1.179435  0  -0.320957  -0.541852  0  2.360441  0
O  O164  1  0.06985314  0.93014658  0.83753665  1  -1.179437  0  -0.320974  -0.541879  0  2.360367  0
O  O165  1  0.93014728  0.06985273  0.83753671  1  -1.179394  0  -0.320939  -0.541819  0  2.360323  0
