# generated using pymatgen
data_Cu2H29C25(NO3)3
_symmetry_space_group_name_H-M   'P 1'
_cell_length_a   6.73783950
_cell_length_b   13.75089345
_cell_length_c   14.39486551
_cell_angle_alpha   77.02015715
_cell_angle_beta   88.99013181
_cell_angle_gamma   85.27570236
_symmetry_Int_Tables_number   1
_chemical_formula_structural   Cu2H29C25(NO3)3
_chemical_formula_sum   'Cu4 H58 C50 N6 O18'
_cell_volume   1295.20999412
_cell_formula_units_Z   2
loop_
 _symmetry_equiv_pos_site_id
 _symmetry_equiv_pos_as_xyz
  1  'x, y, z'
loop_
 _atom_site_type_symbol
 _atom_site_label
 _atom_site_symmetry_multiplicity
 _atom_site_fract_x
 _atom_site_fract_y
 _atom_site_fract_z
 _atom_site_occupancy
 _atom_site_pbe_bader_charge
 _atom_site_pbe_bader_spin_density
 _atom_site_pbe_cm5_charge
 _atom_site_pbe_ddec_charge
 _atom_site_pbe_ddec_spin_density
 _atom_site_pbe_ddec_sum_bond_order
 _atom_site_pbe_magmom
Cu  Cu0  1  0.06678342  0.00214088  0.91446355  1  1.059259  0.530616  0.675239  0.744316  0.67981  2.362057  0.528
Cu  Cu1  1  0.93322374  0.99786179  0.08553714  1  1.058946  -0.53063  0.67521  0.74418  -0.679828  2.362439  -0.528
Cu  Cu2  1  0.44959299  0.41639453  0.55330592  1  1.063284  0.522271  0.675325  0.761617  0.671288  2.347163  0.52
Cu  Cu3  1  0.55039449  0.58360139  0.44669633  1  1.062768  -0.522286  0.675236  0.761352  -0.671301  2.347244  -0.52
H  H4  1  0.76123551  0.08791421  0.75004141  1  0.50606  9.4e-05  0.30636  0.278559  0.000154  1.006337  0.0
H  H5  1  0.23876959  0.91209222  0.24995502  1  0.506107  -9.4e-05  0.306344  0.27858  -0.000154  1.006314  0.0
H  H6  1  0.43589545  0.07871506  0.81625285  1  0.12443  -9e-05  0.113579  0.090424  -6.9e-05  1.053945  0.0
H  H7  1  0.56409739  0.92129359  0.18374597  1  0.124532  9e-05  0.113568  0.090428  6.9e-05  1.053837  0.0
H  H8  1  0.61483520  0.92024260  0.59801168  1  0.103342  5e-06  0.113749  0.123273  -2e-06  1.023161  0.0
H  H9  1  0.38517627  0.07976081  0.40199230  1  0.103159  -5e-06  0.113739  0.123305  2e-06  1.023138  0.0
H  H10  1  0.30384830  0.83256384  0.63158876  1  0.088355  2e-06  0.106936  0.109607  -2e-06  1.025283  0.0
H  H11  1  0.69616382  0.16743584  0.36841184  1  0.088885  -2e-06  0.106936  0.109619  2e-06  1.025249  0.0
H  H12  1  0.06678855  0.87550780  0.75698573  1  0.121894  -4e-05  0.111547  0.084572  -1.1e-05  1.020212  0.0
H  H13  1  0.93321581  0.12449413  0.24301027  1  0.121847  4e-05  0.111577  0.084605  1.1e-05  1.020226  0.0
H  H14  1  0.13581839  0.34400373  0.70086358  1  0.091427  -7.9e-05  0.11281  0.078066  -7.6e-05  1.042884  0.0
H  H15  1  0.86419463  0.65598995  0.29914663  1  0.091455  7.9e-05  0.112788  0.078034  7.6e-05  1.042926  0.0
H  H16  1  0.84788855  0.24172367  0.70506274  1  0.112838  0.000143  0.111205  0.121198  0.000149  1.016723  0.0
H  H17  1  0.15211658  0.75827299  0.29494549  1  0.112812  -0.000143  0.111224  0.121156  -0.000149  1.0168  0.0
H  H18  1  0.17935864  0.07979400  0.52066165  1  0.142835  -1.6e-05  0.110403  0.126425  -9e-06  1.046367  0.0
H  H19  1  0.82063746  0.92021317  0.47933191  1  0.14288  1.6e-05  0.110395  0.126393  9e-06  1.046467  0.0
H  H20  1  0.45368717  0.19521178  0.52022369  1  0.109529  -4.1e-05  0.115196  0.090203  -1.8e-05  1.000733  0.0
H  H21  1  0.54630804  0.80479164  0.47977344  1  0.109539  4.1e-05  0.11516  0.090156  1.8e-05  1.00072  0.0
H  H22  1  0.47878032  0.19911529  0.84175931  1  0.086062  -0.000622  0.104285  0.127575  -0.000264  1.020841  0.0
H  H23  1  0.52122189  0.80088139  0.15824130  1  0.085572  0.000622  0.104266  0.127548  0.000264  1.02087  0.0
H  H24  1  0.65768688  0.28554331  0.83260925  1  0.082826  -0.000911  0.106049  0.133604  -0.000397  0.979329  -0.001
H  H25  1  0.34231021  0.71445787  0.16738348  1  0.08289  0.000911  0.106021  0.133573  0.000397  0.97924  0.001
H  H26  1  0.48363794  0.16783231  0.08709015  1  0.117714  0.000518  0.106902  0.140469  0.000229  1.003698  0.0
H  H27  1  0.51638003  0.83216814  0.91290539  1  0.117517  -0.000518  0.106908  0.140469  -0.000229  1.003723  0.0
H  H28  1  0.27962555  0.25723942  0.08089293  1  0.020246  0.001219  0.100439  0.1185  0.000587  0.996124  0.001
H  H29  1  0.72039387  0.74276102  0.91910607  1  0.020172  -0.001219  0.100447  0.118529  -0.000587  0.996061  -0.001
H  H30  1  0.19030337  0.30699791  0.86928734  1  0.034454  -5.3e-05  0.086802  0.124519  -2.4e-05  1.013668  0.0
H  H31  1  0.80969823  0.69300251  0.13071387  1  0.0344  5.3e-05  0.086776  0.124485  2.4e-05  1.013706  0.0
H  H32  1  0.36138447  0.40001905  0.83298421  1  0.035727  -7.3e-05  0.088798  0.126868  -5.4e-05  1.014186  0.0
H  H33  1  0.63860950  0.59998288  0.16701256  1  0.035778  7.3e-05  0.088788  0.126839  5.4e-05  1.014207  0.0
H  H34  1  0.21732639  0.39766338  0.93837234  1  0.015362  0.000401  0.084136  0.115059  0.000205  1.011305  0.0
H  H35  1  0.78268289  0.60233556  0.06162705  1  0.01538  -0.000401  0.084162  0.115117  -0.000205  1.011347  0.0
H  H36  1  0.51796545  0.38475493  0.04436216  1  0.001762  0.000106  0.084756  0.115343  7.7e-05  1.010321  0.0
H  H37  1  0.48205626  0.61525001  0.95563032  1  0.001596  -0.000106  0.084749  0.115278  -7.7e-05  1.010402  0.0
H  H38  1  0.66635790  0.39876814  0.93962350  1  0.011976  -0.000593  0.082873  0.11117  -0.000316  1.020342  0.0
H  H39  1  0.33365268  0.60123231  0.06036722  1  0.012164  0.000593  0.08286  0.111168  0.000316  1.020344  0.0
H  H40  1  0.72191401  0.29570326  0.03785396  1  0.037397  3e-06  0.088409  0.12924  -4e-06  1.008638  0.0
H  H41  1  0.27810819  0.70429869  0.96213915  1  0.037595  -3e-06  0.088413  0.129218  4e-06  1.008646  0.0
H  H42  1  0.20810575  0.50263389  0.21485332  1  0.007209  0.001452  0.097028  0.110322  0.000718  0.992083  0.001
H  H43  1  0.79189362  0.49735306  0.78514660  1  0.007249  -0.001453  0.097024  0.110315  -0.000718  0.99203  -0.001
H  H44  1  0.00416117  0.53931245  0.28074641  1  0.091068  0.000274  0.102479  0.123537  4.8e-05  1.033891  0.0
H  H45  1  0.99583831  0.46068351  0.71924117  1  0.091017  -0.000273  0.102489  0.12358  -4.8e-05  1.033782  0.0
H  H46  1  0.88464963  0.26653853  0.38479527  1  0.037454  -0.001158  0.097814  0.115225  -0.000558  1.010383  -0.001
H  H47  1  0.11535288  0.73345589  0.61521485  1  0.037544  0.001158  0.097845  0.115284  0.000558  1.010383  0.001
H  H48  1  0.05052669  0.32356850  0.44378275  1  0.100058  -0.000348  0.106578  0.138758  -0.000128  1.02612  0.0
H  H49  1  0.94946364  0.67643715  0.55622019  1  0.100071  0.000347  0.106566  0.138792  0.000128  1.026086  0.0
H  H50  1  0.76951173  0.44209100  0.21457377  1  0.032371  2.7e-05  0.086449  0.122758  6e-06  1.024036  0.0
H  H51  1  0.23047858  0.55790567  0.78543108  1  0.032642  -2.7e-05  0.086483  0.122813  -6e-06  1.023991  0.0
H  H52  1  0.84256142  0.31653367  0.20790854  1  0.011942  -0.000405  0.085216  0.115998  -0.000206  1.024372  0.0
H  H53  1  0.15741737  0.68346074  0.79209895  1  0.011612  0.000405  0.08527  0.116048  0.000206  1.024422  0.0
H  H54  1  0.96949952  0.41647408  0.13911363  1  0.014432  7.2e-05  0.082341  0.11123  5.6e-05  1.010274  0.0
H  H55  1  0.03048521  0.58351135  0.86089225  1  0.014079  -7.2e-05  0.082304  0.111209  -5.6e-05  1.010268  0.0
H  H56  1  0.29701151  0.32544032  0.21385808  1  0.015674  0.000512  0.082268  0.11152  0.000284  1.023195  0.0
H  H57  1  0.70297150  0.67454661  0.78614542  1  0.016005  -0.000512  0.082239  0.111515  -0.000284  1.023392  0.0
H  H58  1  0.16301347  0.22848900  0.28264028  1  0.006087  -9.2e-05  0.084539  0.117836  -7.4e-05  1.019533  0.0
H  H59  1  0.83696765  0.77150017  0.71736900  1  0.00597  9.2e-05  0.084522  0.117862  7.4e-05  1.019597  0.0
H  H60  1  0.32492083  0.29256834  0.33996148  1  0.035996  -1.5e-05  0.087373  0.127221  -9e-06  1.018208  0.0
H  H61  1  0.67506735  0.70742308  0.66004659  1  0.036082  1.5e-05  0.087397  0.127219  9e-06  1.018232  0.0
C  C62  1  0.41155645  0.02507486  0.77318402  1  0.500558  -0.000526  0.040931  -0.00554  -0.000348  3.918553  0.0
C  C63  1  0.58844431  0.97493081  0.22681330  1  0.50049  0.000526  0.040828  -0.005662  0.000348  3.918393  0.0
C  C64  1  0.55103071  0.00712993  0.70427937  1  0.40774  0.000138  0.10509  0.208075  0.000112  4.024559  0.0
C  C65  1  0.44896834  0.99287724  0.29571694  1  0.407814  -0.000138  0.105152  0.208279  -0.000112  4.024534  0.0
C  C66  1  0.51191203  0.93603958  0.65239969  1  -0.066481  -0.0004  -0.069198  -0.123713  -0.000251  3.91037  0.0
C  C67  1  0.48809033  0.06396534  0.34759847  1  -0.066267  0.000399  -0.069241  -0.123922  0.00025  3.910422  0.0
C  C68  1  0.33784003  0.88730957  0.67177796  1  0.036207  0.000173  -0.079667  -0.09836  0.000122  3.991589  0.0
C  C69  1  0.66216418  0.11269310  0.32822136  1  0.035559  -0.000173  -0.079617  -0.098282  -0.000123  3.991434  0.0
C  C70  1  0.20582229  0.91105206  0.74023905  1  0.448577  -0.000447  0.033278  0.062338  -0.000299  3.964711  0.0
C  C71  1  0.79417885  0.08895136  0.25975804  1  0.448613  0.000447  0.033228  0.062279  0.000299  3.964702  0.0
C  C72  1  0.14061519  0.28414279  0.66249129  1  0.477939  -0.000802  0.044516  0.099601  -0.000547  3.942053  0.0
C  C73  1  0.85938937  0.71585763  0.33751059  1  0.477927  0.000802  0.044455  0.099494  0.000547  3.94209  0.0
C  C74  1  0.98097089  0.22560452  0.66567325  1  0.026313  0.000359  -0.07608  -0.129207  0.000272  3.920182  0.0
C  C75  1  0.01903367  0.77439590  0.33432793  1  0.02644  -0.000359  -0.076009  -0.129016  -0.000272  3.920178  0.0
C  C76  1  0.99379309  0.15050529  0.61417891  1  -0.074018  -0.000647  0.00736  0.019543  -0.000406  3.954853  0.0
C  C77  1  0.00620681  0.84949664  0.38581782  1  -0.074217  0.000647  0.007345  0.019503  0.000406  3.954913  0.0
C  C78  1  0.16633353  0.13818834  0.56112395  1  -0.008316  0.000173  -0.077267  -0.153282  9.9e-05  3.933279  0.0
C  C79  1  0.83366476  0.86181433  0.43887333  1  -0.008368  -0.000173  -0.077227  -0.153303  -9.9e-05  3.933278  0.0
C  C80  1  0.31762240  0.20118020  0.56150861  1  0.439841  -0.000806  0.041734  0.091784  -0.000538  3.955792  -0.001
C  C81  1  0.68237968  0.79881723  0.43849323  1  0.439815  0.000806  0.041794  0.09186  0.000538  3.955615  0.001
C  C82  1  0.82774234  0.08567599  0.60989739  1  1.396431  -1.5e-05  0.247253  0.477487  7e-06  4.103677  0.0
C  C83  1  0.17225648  0.91432370  0.39009565  1  1.396366  1.5e-05  0.247257  0.477633  -7e-06  4.103426  0.0
C  C84  1  0.73735166  0.14373676  0.92435659  1  1.515214  -3.6e-05  0.221249  0.643658  -0.000288  4.07961  0.0
C  C85  1  0.26265488  0.85626965  0.07564540  1  1.515042  3.5e-05  0.22129  0.643545  0.000287  4.079741  0.0
C  C86  1  0.58241216  0.22870721  0.88445604  1  -0.061977  -0.000718  -0.157814  -0.352902  -0.000265  3.818606  -0.001
C  C87  1  0.41758909  0.77129546  0.11554261  1  -0.061563  0.000717  -0.157817  -0.352839  0.000264  3.818557  0.001
C  C88  1  0.46222088  0.28093577  0.95427841  1  0.070858  -0.000998  -0.012979  0.290325  -0.000653  3.748007  -0.001
C  C89  1  0.53778742  0.71906915  0.04571972  1  0.070994  0.000999  -0.012867  0.290383  0.000654  3.747957  0.001
C  C90  1  0.36660956  0.21085363  0.03914767  1  -0.030907  -0.000883  -0.160484  -0.353369  -0.000926  3.82469  -0.001
C  C91  1  0.63339949  0.78914681  0.96085002  1  -0.030616  0.000882  -0.160533  -0.353379  0.000926  3.824567  0.001
C  C92  1  0.23014330  0.13362437  0.02249321  1  1.531799  0.000124  0.219103  0.645212  9e-05  4.072641  0.001
C  C93  1  0.76985803  0.86637754  0.97751046  1  1.531853  -0.000123  0.218992  0.645094  -9e-05  4.072698  -0.001
C  C94  1  0.29791634  0.35064532  0.89524997  1  -0.079644  0.000664  -0.245207  -0.425806  0.000457  3.885985  0.0
C  C95  1  0.70208801  0.64935661  0.10474742  1  -0.079681  -0.000664  -0.245203  -0.425792  -0.000456  3.886154  0.0
C  C96  1  0.60050444  0.34356463  0.99669986  1  -0.046759  -0.000897  -0.243511  -0.41691  -0.000631  3.887796  -0.001
C  C97  1  0.39951601  0.65643881  0.00329502  1  -0.047009  0.000897  -0.243524  -0.41685  0.000631  3.88785  0.001
C  C98  1  0.26783339  0.49507286  0.36096165  1  1.552539  0.001028  0.21735  0.643453  0.001045  4.084573  0.002
C  C99  1  0.73215301  0.50492980  0.63903848  1  1.55218  -0.001029  0.217154  0.64299  -0.001045  4.085246  -0.002
C  C100  1  0.12860670  0.48217994  0.28309240  1  -0.021145  0.00022  -0.157559  -0.340701  -8.2e-05  3.827281  0.0
C  C101  1  0.87137751  0.51780926  0.71690226  1  -0.021082  -0.000218  -0.157521  -0.340563  8.2e-05  3.827055  0.0
C  C102  1  0.04505157  0.37950017  0.29106785  1  0.099296  0.000307  -0.014286  0.288409  0.00019  3.751527  0.0
C  C103  1  0.95493328  0.62049349  0.70893837  1  0.099258  -0.000306  -0.014306  0.288432  -0.000189  3.751241  0.0
C  C104  1  0.93988727  0.33910036  0.38627261  1  -0.033584  0.000136  -0.162822  -0.352112  0.000331  3.817349  0.0
C  C105  1  0.06009671  0.66089854  0.61373529  1  -0.033355  -0.000133  -0.162745  -0.352177  -0.00033  3.817174  0.0
C  C106  1  0.77120533  0.40083678  0.42275313  1  1.535406  -2.5e-05  0.217593  0.646197  -1e-06  4.079183  0.0
C  C107  1  0.22877980  0.59916438  0.57724941  1  1.535642  2.5e-05  0.217625  0.646292  0.0  4.079188  0.0
C  C108  1  0.89798090  0.38940386  0.20841057  1  -0.074505  -0.000684  -0.245387  -0.420697  -0.000476  3.893313  0.0
C  C109  1  0.10200704  0.61058906  0.79159510  1  -0.074032  0.000684  -0.245472  -0.420837  0.000476  3.893428  0.0
C  C110  1  0.21751969  0.30190541  0.28155586  1  -0.056619  0.000718  -0.245688  -0.420845  0.000501  3.88679  0.0
C  C111  1  0.78247010  0.69808526  0.71845166  1  -0.057043  -0.000717  -0.24569  -0.420933  -0.0005  3.887233  0.0
N  N112  1  0.30589000  0.27390993  0.61088094  1  -1.212224  -0.001445  -0.337922  -0.261733  -0.000698  3.480333  0.0
N  N113  1  0.69411517  0.72608675  0.38912173  1  -1.212139  0.001445  -0.337904  -0.261655  0.000698  3.480312  0.0
N  N114  1  0.24273150  0.97958252  0.79009446  1  -1.243355  -0.000922  -0.339431  -0.235385  -0.000307  3.57243  0.0
N  N115  1  0.75727113  0.02042091  0.20990054  1  -1.243358  0.000922  -0.339384  -0.23532  0.000307  3.572304  0.0
N  N116  1  0.71985465  0.06148925  0.69214058  1  -1.260074  0.000234  -0.395303  -0.379773  0.000134  3.580974  0.0
N  N117  1  0.28014440  0.93851792  0.30785505  1  -1.260129  -0.000234  -0.395221  -0.379798  -0.000134  3.580731  0.0
O  O118  1  0.84799483  0.10986926  0.86331112  1  -1.134106  0.07363  -0.314986  -0.548811  0.048105  2.407971  0.067
O  O119  1  0.15199580  0.89013490  0.13668589  1  -1.134021  -0.073626  -0.314982  -0.548753  -0.048103  2.408144  -0.067
O  O120  1  0.74857733  0.11118938  0.01362834  1  -1.099401  -0.072232  -0.298648  -0.50654  -0.047059  2.412236  -0.066
O  O121  1  0.25145607  0.88881631  0.98637155  1  -1.099346  0.072242  -0.29871  -0.506541  0.047068  2.412224  0.066
O  O122  1  0.12301349  0.09860293  0.09432725  1  -1.114002  -0.096334  -0.31794  -0.523149  -0.062481  2.347341  -0.087
O  O123  1  0.87699156  0.90139450  0.90567457  1  -1.113963  0.096339  -0.317891  -0.523081  0.062483  2.347166  0.087
O  O124  1  0.23313075  0.10756366  0.94283759  1  -1.116334  0.075997  -0.309357  -0.522552  0.049719  2.352543  0.069
O  O125  1  0.76687085  0.89244574  0.05716310  1  -1.116455  -0.076001  -0.309263  -0.522493  -0.04972  2.352645  -0.069
O  O126  1  0.27757571  0.42843027  0.43821375  1  -1.12231  0.072922  -0.306868  -0.525276  0.047678  2.412815  0.066
O  O127  1  0.72244025  0.57156418  0.56178585  1  -1.122453  -0.072912  -0.306816  -0.525082  -0.047669  2.412869  -0.066
O  O128  1  0.36310677  0.57361703  0.34256252  1  -1.12356  -0.084238  -0.319478  -0.53437  -0.054732  2.314316  -0.076
O  O129  1  0.63686426  0.42638860  0.65744055  1  -1.123136  0.084247  -0.319343  -0.534134  0.05474  2.314352  0.076
O  O130  1  0.66581220  0.35015344  0.48775280  1  -1.115889  0.085473  -0.31904  -0.534451  0.05578  2.352703  0.077
O  O131  1  0.33417883  0.64984771  0.51225457  1  -1.116241  -0.085478  -0.319041  -0.534387  -0.05578  2.352703  -0.077
O  O132  1  0.75113532  0.49544074  0.39123956  1  -1.122552  -0.077906  -0.308344  -0.5224  -0.0508  2.356074  -0.071
O  O133  1  0.24885627  0.50455821  0.60874535  1  -1.122651  0.077904  -0.308485  -0.522614  0.050801  2.356271  0.071
O  O134  1  0.79368201  0.05790464  0.53600369  1  -1.139646  -1e-05  -0.277996  -0.473043  -3e-06  2.175267  0.0
O  O135  1  0.20632470  0.94209205  0.46399202  1  -1.139519  1.1e-05  -0.278088  -0.473206  3e-06  2.175173  0.0
