# generated using pymatgen
data_Zn2H28C57N4(O5F4)3
_symmetry_space_group_name_H-M   'P 1'
_cell_length_a   9.54318426
_cell_length_b   10.78986036
_cell_length_c   28.04297558
_cell_angle_alpha   89.27294319
_cell_angle_beta   89.70242364
_cell_angle_gamma   90.50339036
_symmetry_Int_Tables_number   1
_chemical_formula_structural   Zn2H28C57N4(O5F4)3
_chemical_formula_sum   'Zn2 H28 C57 N4 O15 F12'
_cell_volume   2887.19013449
_cell_formula_units_Z   1
loop_
 _symmetry_equiv_pos_site_id
 _symmetry_equiv_pos_as_xyz
  1  'x, y, z'
loop_
 _atom_site_type_symbol
 _atom_site_label
 _atom_site_symmetry_multiplicity
 _atom_site_fract_x
 _atom_site_fract_y
 _atom_site_fract_z
 _atom_site_occupancy
 _atom_site_pbe_bader_charge
 _atom_site_pbe_bader_spin_density
 _atom_site_pbe_cm5_charge
 _atom_site_pbe_ddec_charge
 _atom_site_pbe_ddec_spin_density
 _atom_site_pbe_ddec_sum_bond_order
 _atom_site_pbe_magmom
Zn  Zn0  1  0.35171059  0.49465930  0.50026839  1  1.272318  0  0.675625  0.820626  0  2.368452  0
Zn  Zn1  1  0.64391252  0.50320630  0.49999522  1  1.279872  0  0.677963  0.823323  0  2.403616  0
H  H2  1  0.28751376  0.46621967  0.65191741  1  0.136779  0  0.112625  0.113365  0  1.005287  0
H  H3  1  0.50728075  0.80287494  0.87120959  1  0.179752  0  0.119901  0.128477  0  0.986584  0
H  H4  1  0.74566188  0.57821437  0.26187638  1  0.124372  0  0.12697  0.158735  0  0.952695  0
H  H5  1  0.49780542  0.81634335  0.95795813  1  0.130051  0  0.109387  0.123686  0  1.021593  0
H  H6  1  0.73432753  0.48970509  0.74083000  1  0.124776  0  0.128048  0.161411  0  0.951747  0
H  H7  1  0.29521746  0.48133544  0.34472178  1  0.116502  0  0.118664  0.143562  0  0.97851  0
H  H8  1  0.49806628  0.18635197  0.97205861  1  0.146586  0  0.110026  0.124452  0  1.024062  0
H  H9  1  0.28417603  0.88080282  0.53459179  1  0.079598  0  0.100505  0.051091  0  0.964484  0
H  H10  1  0.66979014  0.90718411  0.45542895  1  0.070761  0  0.102601  0.054995  0  0.959569  0
H  H11  1  0.26892779  0.11467784  0.48880952  1  0.092892  0  0.104178  0.128215  0  0.983999  0
H  H12  1  0.45234423  0.09086298  0.42531214  1  0.097037  0  0.110488  0.135922  0  0.951605  0
H  H13  1  0.31612570  0.09335618  0.54896390  1  0.050351  0  0.102511  0.121542  0  0.964347  0
H  H14  1  0.63215135  0.11953064  0.43790963  1  0.068444  0  0.101173  0.118817  0  0.967207  0
H  H15  1  0.51038929  0.90462546  0.57514905  1  0.075798  0  0.112774  0.143752  0  0.946307  0
H  H16  1  0.67019523  0.87799439  0.54421838  1  0.09797  0  0.109268  0.14162  0  0.965184  0
H  H17  1  0.86298037  0.58472146  0.56915351  1  0.094629  0  0.114734  0.116824  0  0.990061  0
H  H18  1  0.10381899  0.52957444  0.57469959  1  0.088091  0  0.115297  0.108764  0  0.969587  0
H  H19  1  0.89433504  0.68633769  0.51985731  1  0.066063  0  0.117071  0.107812  0  0.955111  0
H  H20  1  0.13688664  0.66443612  0.53929846  1  0.098478  0  0.117179  0.113555  0  0.974479  0
H  H21  1  0.88794926  0.45534317  0.42899688  1  0.089774  0  0.115529  0.108227  0  0.964701  0
H  H22  1  0.13377647  0.49893348  0.42620750  1  0.095584  0  0.116643  0.111138  0  0.972829  0
H  H23  1  0.86762784  0.61454656  0.43945084  1  0.105912  0  0.121882  0.121365  0  0.954784  0
H  H24  1  0.11341650  0.64476175  0.45309591  1  0.090015  0  0.125078  0.124001  0  0.944188  0
H  H25  1  0.85581863  0.30694169  0.49408399  1  0.130134  0  0.12246  0.076326  0  0.967409  0
H  H26  1  0.10098567  0.31809810  0.47577312  1  0.113121  0  0.127251  0.073422  0  0.941077  0
H  H27  1  0.38965630  0.14110525  0.85008637  1  0.115349  0  0.115391  0.063111  0  0.965886  0
H  H28  1  0.15366995  0.45758806  0.71928942  1  0.043483  0  0.098727  0.027466  0  0.957741  0
H  H29  1  0.30854100  0.84594328  0.14467463  1  0.094001  0  0.111204  0.052818  0  0.946918  0
C  C30  1  0.49027223  0.73671150  0.49881881  1  1.575162  0  0.223474  0.607936  0  4.118997  0
C  C31  1  0.50392964  0.49253756  0.59249094  1  1.582696  0  0.216986  0.612493  0  4.173487  0
C  C32  1  0.49428989  0.26182277  0.49914404  1  1.60759  0  0.224709  0.613546  0  4.101837  0
C  C33  1  0.50599130  0.51043209  0.40703474  1  1.602916  0  0.218975  0.614652  0  4.16519  0
C  C34  1  0.50603052  0.60089002  0.81772996  1  1.367698  0  0.246781  0.451207  0  4.095291  0
C  C35  1  0.50811408  0.36903335  0.82267538  1  1.373322  0  0.248274  0.450852  0  4.105181  0
C  C36  1  0.63510576  0.48471818  0.72189292  1  0.075826  0  -0.08049  -0.272647  0  3.93515  0
C  C37  1  0.63433277  0.48778171  0.67219959  1  0.483981  0  0.131112  0.327621  0  3.981508  0
C  C38  1  0.38500816  0.47217240  0.67199047  1  -0.037247  0  -0.057752  -0.067787  0  3.930908  0
C  C39  1  0.38105759  0.46933883  0.72183545  1  -0.028937  0  -0.017357  -0.075181  0  3.988007  0
C  C40  1  0.50918097  0.47722734  0.74646791  1  0.389268  0  0.118465  0.233195  0  3.970561  0
C  C41  1  0.50329079  0.49280678  0.89787486  1  0.051835  0  0.008888  0.040616  0  3.981326  0
C  C42  1  0.50528386  0.60403538  0.87029597  1  -0.079971  0  -0.003691  -0.061763  0  3.974865  0
C  C43  1  0.50522279  0.71792426  0.89269041  1  -0.02636  0  -0.056748  -0.048426  0  3.922302  0
C  C44  1  0.49779444  0.37602821  0.87513419  1  -0.033525  0  0.004706  -0.086135  0  3.935861  0
C  C45  1  0.50977096  0.48337069  0.64585195  1  0.059896  0  -0.016342  -0.139468  0  3.938469  0
C  C46  1  0.51478083  0.52269492  0.35373470  1  0.095797  0  -0.013378  -0.105132  0  3.944648  0
C  C47  1  0.48674995  0.62056739  0.02340874  1  0.021968  0  0.000689  -0.059223  0  3.962181  0
C  C48  1  0.53960059  0.39544885  0.02719178  1  0.074458  0  0.000226  -0.048712  0  3.986517  0
C  C49  1  0.51666466  0.51087040  0.05074542  1  -0.011444  0  0.005861  0.020979  0  3.942348  0
C  C50  1  0.45004131  0.72615124  0.04926021  1  0.501144  0  0.11631  0.217554  0  3.985786  0
C  C51  1  0.44910793  0.73233208  0.09907029  1  -0.010282  0  -0.004085  -0.073817  0  3.958385  0
C  C52  1  0.48865093  0.62732617  0.12498249  1  0.015619  0  -0.005505  -0.084624  0  3.989056  0
C  C53  1  0.52357920  0.51596089  0.10162464  1  0.052248  0  0.00072  0.037363  0  4.02115  0
C  C54  1  0.56563617  0.41098293  0.12925861  1  0.013258  0  -0.017145  -0.17167  0  4.002184  0
C  C55  1  0.57153692  0.41511185  0.18182698  1  1.37578  0  0.243575  0.461708  0  4.081929  0
C  C56  1  0.49259299  0.63630564  0.17727458  1  1.362573  0  0.245272  0.442279  0  4.106024  0
C  C57  1  0.64667332  0.55643043  0.27966506  1  0.066545  0  -0.082895  -0.24897  0  3.964003  0
C  C58  1  0.63944252  0.55122042  0.32910163  1  0.445176  0  0.109727  0.282894  0  4.022045  0
C  C59  1  0.39399973  0.50205080  0.32662697  1  0.060451  0  -0.082237  -0.18061  0  3.967931  0
C  C60  1  0.40104077  0.50603943  0.27736000  1  0.510236  0  0.102078  0.211656  0  4.055756  0
C  C61  1  0.52662731  0.53208918  0.25338395  1  0.349068  0  0.09023  0.116766  0  4.056931  0
C  C62  1  0.49669263  0.61767344  0.97130054  1  0.016126  0  0.005835  0.055915  0  3.958238  0
C  C63  1  0.50503029  0.49944709  0.94882233  1  -0.050147  0  0.009057  0.003664  0  3.902299  0
C  C64  1  0.51594684  0.38682990  0.97590985  1  -0.002132  0  0.006213  0.064153  0  3.97327  0
C  C65  1  0.49940206  0.72482752  0.94240110  1  0.008801  0  -0.07159  -0.110467  0  3.917231  0
C  C66  1  0.48718359  0.26729191  0.90274326  1  0.002634  0  0.002347  0.033389  0  3.944604  0
C  C67  1  0.58517281  0.29629896  0.05535686  1  0.51633  0  0.108809  0.142122  0  4.020352  0
C  C68  1  0.60026365  0.30352769  0.10516500  1  0.57467  0  0.12246  0.198632  0  4.056157  0
C  C69  1  0.50116050  0.27389647  0.95247429  1  -0.016197  0  -0.070914  -0.145338  0  3.900932  0
C  C70  1  0.33687767  0.92929055  0.50474098  1  0.450026  0  0.020987  0.207467  0  3.814325  0
C  C71  1  0.55830212  0.93149668  0.45376207  1  0.501356  0  0.024732  0.206451  0  3.812928  0
C  C72  1  0.34484574  0.06942008  0.51226660  1  -0.029121  0  -0.166766  -0.271205  0  3.885943  0
C  C73  1  0.53695032  0.07193998  0.45072726  1  -0.060702  0  -0.157677  -0.256879  0  3.856713  0
C  C74  1  0.56889750  0.92482012  0.54206327  1  -0.044876  0  -0.155858  -0.332034  0  3.852527  0
C  C75  1  0.48491246  0.87785979  0.49862009  1  0.05382  0  -0.023215  -0.09625  0  3.807844  0
C  C76  1  0.49242513  0.12036625  0.50025947  1  0.03384  0  -0.02032  -0.087338  0  3.810182  0
C  C77  1  0.59295502  0.06483120  0.53744045  1  1.030125  0  0.198474  0.495274  0  3.83258  0
C  C78  1  0.91938361  0.59523982  0.53525797  1  0.257093  0  -0.069653  -0.089476  0  3.803036  0
C  C79  1  0.07833348  0.57667535  0.54103878  1  0.200877  0  -0.069266  -0.090719  0  3.809065  0
C  C80  1  0.91200705  0.37633413  0.51520126  1  0.820056  0  0.113733  0.187131  0  3.835093  0
C  C81  1  0.07342340  0.37068991  0.50779308  1  0.798835  0  0.116627  0.194494  0  3.852059  0
C  C82  1  0.91952508  0.53075504  0.45265021  1  0.229034  0  -0.067049  -0.097405  0  3.824099  0
C  C83  1  0.08012065  0.54721042  0.45512159  1  0.199071  0  -0.064493  -0.089635  0  3.802088  0
C  C84  1  0.45433675  0.14210469  0.88272554  1  0.954274  0  0.109839  0.281128  0  3.919982  0
C  C85  1  0.24233509  0.45970748  0.74524795  1  0.951642  0  0.101646  0.292182  0  3.974918  0
C  C86  1  0.40579993  0.85170685  0.12278177  1  0.996008  0  0.107292  0.304966  0  3.956767  0
N  N87  1  0.51137139  0.48200416  0.79765102  1  -1.214535  0  -0.23368  -0.233071  0  3.621965  0
N  N88  1  0.53112459  0.52931332  0.20229216  1  -1.196632  0  -0.232504  -0.213421  0  3.610111  0
N  N89  1  0.86266949  0.50172474  0.50126276  1  -0.996371  0  -0.339248  -0.167758  0  3.449955  0
N  N90  1  0.13175246  0.49705637  0.50175128  1  -0.99066  0  -0.338595  -0.168977  0  3.460768  0
O  O91  1  0.37848050  0.67875065  0.51028893  1  -1.167721  0  -0.309742  -0.543473  0  2.379697  0
O  O92  1  0.60792058  0.68957646  0.48884096  1  -1.167869  0  -0.311703  -0.542718  0  2.329716  0
O  O93  1  0.38831411  0.46380769  0.57302130  1  -1.167297  0  -0.313111  -0.544366  0  2.311968  0
O  O94  1  0.61403389  0.53054660  0.57100431  1  -1.157141  0  -0.315345  -0.545958  0  2.371404  0
O  O95  1  0.38068959  0.31345735  0.48671194  1  -1.167522  0  -0.314743  -0.538876  0  2.363602  0
O  O96  1  0.60783218  0.31639899  0.50936458  1  -1.163125  0  -0.308981  -0.547901  0  2.395753  0
O  O97  1  0.38751789  0.52871276  0.42647595  1  -1.171669  0  -0.311956  -0.548411  0  2.298392  0
O  O98  1  0.61802715  0.47980362  0.42839026  1  -1.158001  0  -0.318952  -0.553683  0  2.356177  0
O  O99  1  0.50449340  0.69368791  0.79186674  1  -1.090495  0  -0.277789  -0.434031  0  2.047995  0
O  O100  1  0.46335767  0.73245748  0.19841894  1  -1.075492  0  -0.254347  -0.411871  0  2.082348  0
O  O101  1  0.51691630  0.27063701  0.80095612  1  -1.089124  0  -0.266782  -0.432499  0  2.079657  0
O  O102  1  0.60710549  0.32892255  0.20775327  1  -1.072916  0  -0.265431  -0.412673  0  2.070545  0
O  O103  1  0.48991083  0.04576528  0.90276670  1  -1.083275  0  -0.258688  -0.353482  0  2.111162  0
O  O104  1  0.21918227  0.45399917  0.78826284  1  -1.059503  0  -0.272997  -0.365049  0  2.105366  0
O  O105  1  0.46848252  0.94902280  0.11546311  1  -1.056337  0  -0.261435  -0.34948  0  2.116029  0
F  F106  1  0.61992419  0.18673466  0.03611833  1  -0.607605  0  -0.065563  -0.086279  0  1.401669  0
F  F107  1  0.64750553  0.20238369  0.12742336  1  -0.594652  0  -0.058063  -0.068885  0  1.412298  0
F  F108  1  0.28392521  0.48293468  0.25137626  1  -0.626817  0  -0.106681  -0.140724  0  1.312954  0
F  F109  1  0.25409371  0.90419021  0.46394120  1  -0.627926  0  -0.159639  -0.215666  0  1.223819  0
F  F110  1  0.50638228  0.87533001  0.41214259  1  -0.618958  0  -0.151453  -0.200287  0  1.228248  0
F  F111  1  0.57469968  0.12002489  0.58145358  1  -0.618928  0  -0.126708  -0.20709  0  1.241787  0
F  F112  1  0.73283502  0.08685256  0.52458967  1  -0.614179  0  -0.129909  -0.218815  0  1.259191  0
F  F113  1  0.87854005  0.35613774  0.56262850  1  -0.601424  0  -0.104206  -0.141276  0  1.338725  0
F  F114  1  0.13429571  0.31328438  0.54675176  1  -0.615819  0  -0.107004  -0.149233  0  1.339372  0
F  F115  1  0.75977910  0.57690684  0.35299926  1  -0.632658  0  -0.098643  -0.143816  0  1.355534  0
F  F116  1  0.40759502  0.82963700  0.02563207  1  -0.623073  0  -0.072537  -0.109658  0  1.391061  0
F  F117  1  0.76100511  0.49513135  0.65050530  1  -0.618963  0  -0.085396  -0.128369  0  1.361429  0
