# generated using pymatgen
data_MgH14C12(NO4)2
_symmetry_space_group_name_H-M   'P 1'
_cell_length_a   6.23830319
_cell_length_b   8.20712969
_cell_length_c   13.59822299
_cell_angle_alpha   90.00007659
_cell_angle_beta   90.00002185
_cell_angle_gamma   90.00007954
_symmetry_Int_Tables_number   1
_chemical_formula_structural   MgH14C12(NO4)2
_chemical_formula_sum   'Mg2 H28 C24 N4 O16'
_cell_volume   696.20948043
_cell_formula_units_Z   2
loop_
 _symmetry_equiv_pos_site_id
 _symmetry_equiv_pos_as_xyz
  1  'x, y, z'
loop_
 _atom_site_type_symbol
 _atom_site_label
 _atom_site_symmetry_multiplicity
 _atom_site_fract_x
 _atom_site_fract_y
 _atom_site_fract_z
 _atom_site_occupancy
 _atom_site_hle17_bader_spin_density
 _atom_site_hle17_ddec_charge
 _atom_site_hle17_ddec_spin_density
 _atom_site_hle17_ddec_sum_bond_order
 _atom_site_hle17_magmom
 _atom_site_hse06_10hf_bader_spin_density
 _atom_site_hse06_10hf_ddec_charge
 _atom_site_hse06_10hf_ddec_spin_density
 _atom_site_hse06_10hf_ddec_sum_bond_order
 _atom_site_hse06_10hf_magmom
 _atom_site_hse06_bader_spin_density
 _atom_site_hse06_ddec_charge
 _atom_site_hse06_ddec_spin_density
 _atom_site_hse06_ddec_sum_bond_order
 _atom_site_hse06_magmom
 _atom_site_pbe_bader_spin_density
 _atom_site_pbe_cm5_charge
 _atom_site_pbe_ddec_charge
 _atom_site_pbe_ddec_spin_density
 _atom_site_pbe_ddec_sum_bond_order
 _atom_site_pbe_magmom
Mg  Mg0  1  0.99999899  0.95876502  0.49999962  1  0  1.55352  0  1.024159  0  0  1.448039  0  1.27482  0  0  1.471364  0  1.237612  0  0  0.790274  1.431417  0  1.301063  0
Mg  Mg1  1  0.49999978  0.04123514  0.00000006  1  0  1.553542  0  1.024111  0  0  1.448026  0  1.274833  0  0  1.471348  0  1.237626  0  0  0.790289  1.431407  0  1.301075  0
H  H2  1  0.32260638  0.83137918  0.58929648  1  0  0.418456  0  0.886332  0  0  0.384737  0  0.954146  0  0  0.396116  0  0.937299  0  0  0.293296  0.376728  0  0.965992  0
H  H3  1  0.67739027  0.83137917  0.41070332  1  0  0.418437  0  0.886354  0  0  0.384721  0  0.954165  0  0  0.396101  0  0.937316  0  0  0.293293  0.37671  0  0.966016  0
H  H4  1  0.17739138  0.16862065  0.08929631  1  0  0.418433  0  0.886356  0  0  0.384708  0  0.954183  0  0  0.396087  0  0.937335  0  0  0.293292  0.376698  0  0.96603  0
H  H5  1  0.82260726  0.16862068  0.91070369  1  0  0.41846  0  0.886326  0  0  0.384748  0  0.954128  0  0  0.396126  0  0.937282  0  0  0.293304  0.376738  0  0.965978  0
H  H6  1  0.26422975  0.67882634  0.51436089  1  0  0.400368  0  0.917269  0  0  0.353886  0  1.006059  0  0  0.365696  0  0.989234  0  0  0.28254  0.345638  0  1.017778  0
H  H7  1  0.73576982  0.67882655  0.48563879  1  0  0.400337  0  0.917314  0  0  0.353856  0  1.006101  0  0  0.365666  0  0.989276  0  0  0.282531  0.345609  0  1.01782  0
H  H8  1  0.23576954  0.32117211  0.01436085  1  0  0.400328  0  0.917324  0  0  0.353847  0  1.006108  0  0  0.365658  0  0.989284  0  0  0.282526  0.345601  0  1.017826  0
H  H9  1  0.76423098  0.32117346  0.98563854  1  0  0.400319  0  0.917342  0  0  0.353836  0  1.00613  0  0  0.365646  0  0.989308  0  0  0.282521  0.345591  0  1.017848  0
H  H10  1  0.30182190  0.96195805  0.35338997  1  0  0.424354  0  0.885305  0  0  0.389163  0  0.955368  0  0  0.399944  0  0.939719  0  0  0.291184  0.381611  0  0.966306  0
H  H11  1  0.69817500  0.96195858  0.64660993  1  0  0.42441  0  0.885217  0  0  0.389242  0  0.955263  0  0  0.400025  0  0.939612  0  0  0.291205  0.381689  0  0.966203  0
H  H12  1  0.19817610  0.03804236  0.85339021  1  0  0.424428  0  0.885196  0  0  0.389254  0  0.955252  0  0  0.400037  0  0.939601  0  0  0.291207  0.381703  0  0.96619  0
H  H13  1  0.80182391  0.03804190  0.14661041  1  0  0.424409  0  0.88522  0  0  0.389235  0  0.955277  0  0  0.400018  0  0.939627  0  0  0.291206  0.381684  0  0.966215  0
H  H14  1  0.08530949  0.98762702  0.29680169  1  0  0.431294  0  0.856607  0  0  0.40101  0  0.922634  0  0  0.410432  0  0.908761  0  0  0.301285  0.394354  0  0.932438  0
H  H15  1  0.91468745  0.98762669  0.70319824  1  0  0.431306  0  0.856602  0  0  0.401032  0  0.922602  0  0  0.410454  0  0.908729  0  0  0.301294  0.394373  0  0.932411  0
H  H16  1  0.41468845  0.01237205  0.79680195  1  0  0.431224  0  0.856659  0  0  0.40091  0  0.922746  0  0  0.410341  0  0.908867  0  0  0.301241  0.394254  0  0.93255  0
H  H17  1  0.58531151  0.01237270  0.20319866  1  0  0.431205  0  0.856656  0  0  0.400888  0  0.922775  0  0  0.41032  0  0.908895  0  0  0.301224  0.394236  0  0.932574  0
H  H18  1  0.64475116  0.19201228  0.76320941  1  0  0.098685  0  0.977975  0  0  0.10604  0  1.046673  0  0  0.109596  0  1.042855  0  0  0.113003  0.103411  0  1.049479  0
H  H19  1  0.35524752  0.19201033  0.23679134  1  0  0.09865  0  0.977945  0  0  0.106032  0  1.046621  0  0  0.109587  0  1.042802  0  0  0.113004  0.103402  0  1.049432  0
H  H20  1  0.85524945  0.80798846  0.26320979  1  0  0.098686  0  0.977967  0  0  0.10602  0  1.046702  0  0  0.109577  0  1.042883  0  0  0.112996  0.10339  0  1.049512  0
H  H21  1  0.14474876  0.80798739  0.73679073  1  0  0.098683  0  0.978034  0  0  0.106026  0  1.046738  0  0  0.109581  0  1.04292  0  0  0.113007  0.103397  0  1.049544  0
H  H22  1  0.89725594  0.42383039  0.78181710  1  0  0.100916  0  0.972574  0  0  0.108899  0  1.035289  0  0  0.110929  0  1.037239  0  0  0.1042  0.107373  0  1.034199  0
H  H23  1  0.10274477  0.42383178  0.21818310  1  0  0.100914  0  0.972603  0  0  0.108902  0  1.035289  0  0  0.110965  0  1.037204  0  0  0.104201  0.107379  0  1.034195  0
H  H24  1  0.60274629  0.57616674  0.28181799  1  0  0.100898  0  0.972573  0  0  0.108874  0  1.035289  0  0  0.110912  0  1.037231  0  0  0.104183  0.107351  0  1.034196  0
H  H25  1  0.39724990  0.57617199  0.71818087  1  0  0.100888  0  0.972652  0  0  0.108903  0  1.035314  0  0  0.110959  0  1.037236  0  0  0.104168  0.107377  0  1.034225  0
H  H26  1  0.91750196  0.63211866  0.64463603  1  0  0.083444  0  0.971215  0  0  0.08977  0  1.040348  0  0  0.092362  0  1.03784  0  0  0.115781  0.0878  0  1.042222  0
H  H27  1  0.08250074  0.63211912  0.35536361  1  0  0.083426  0  0.971223  0  0  0.089744  0  1.040368  0  0  0.092336  0  1.037858  0  0  0.115759  0.087796  0  1.042221  0
H  H28  1  0.58250175  0.36788060  0.14463601  1  0  0.083432  0  0.971216  0  0  0.08975  0  1.040361  0  0  0.092341  0  1.037853  0  0  0.115762  0.087803  0  1.042213  0
H  H29  1  0.41750047  0.36788130  0.85536121  1  0  0.083442  0  0.971273  0  0  0.089804  0  1.040358  0  0  0.092394  0  1.037851  0  0  0.115785  0.087823  0  1.042244  0
C  C30  1  0.38507144  0.12351909  0.60832663  1  0  0.687719  0  3.850703  0  0  0.630068  0  4.149867  0  0  0.664294  0  4.142067  0  0  0.226921  0.606934  0  4.154535  0
C  C31  1  0.61492551  0.12351775  0.39167407  1  0  0.687596  0  3.850751  0  0  0.629956  0  4.149911  0  0  0.664182  0  4.142113  0  0  0.226864  0.606824  0  4.15458  0
C  C32  1  0.11492794  0.87648322  0.10832628  1  0  0.687643  0  3.850742  0  0  0.629987  0  4.149917  0  0  0.664213  0  4.142122  0  0  0.226886  0.606856  0  4.154589  0
C  C33  1  0.88507200  0.87648084  0.89167355  1  0  0.687717  0  3.850655  0  0  0.63009  0  4.149792  0  0  0.664311  0  4.141994  0  0  0.226936  0.606957  0  4.154462  0
C  C34  1  0.55940272  0.38776497  0.54747836  1  0  0.200546  0  3.717786  0  0  0.183742  0  3.971735  0  0  0.193184  0  3.987051  0  0  0.140627  0.177572  0  3.961349  0
C  C35  1  0.44059793  0.38776480  0.45252182  1  0  0.200543  0  3.717832  0  0  0.183733  0  3.971787  0  0  0.193175  0  3.987102  0  0  0.140623  0.177567  0  3.961402  0
C  C36  1  0.94059930  0.61223530  0.04747859  1  0  0.200523  0  3.717889  0  0  0.183723  0  3.971838  0  0  0.193161  0  3.987154  0  0  0.140609  0.177556  0  3.961455  0
C  C37  1  0.05940175  0.61223461  0.95252177  1  0  0.200545  0  3.717774  0  0  0.183744  0  3.971735  0  0  0.193184  0  3.987046  0  0  0.140656  0.177573  0  3.961353  0
C  C38  1  0.53329939  0.26755004  0.62021281  1  0  -0.144215  0  3.691029  0  0  -0.126425  0  3.931551  0  0  -0.138089  0  3.952477  0  0  -0.008014  -0.119159  0  3.917778  0
C  C39  1  0.46669783  0.26754974  0.37978801  1  0  -0.144204  0  3.691066  0  0  -0.126406  0  3.93158  0  0  -0.138067  0  3.952501  0  0  -0.008007  -0.119139  0  3.917809  0
C  C40  1  0.96669949  0.73245038  0.12021241  1  0  -0.14417  0  3.691094  0  0  -0.126375  0  3.931601  0  0  -0.138033  0  3.952522  0  0  -0.007984  -0.119108  0  3.91783  0
C  C41  1  0.03330018  0.73245073  0.87978805  1  0  -0.144174  0  3.690979  0  0  -0.126402  0  3.931509  0  0  -0.138044  0  3.952407  0  0  -0.007997  -0.119136  0  3.91774  0
C  C42  1  0.65916700  0.28166598  0.70488050  1  0  -0.010689  0  3.717226  0  0  -0.041332  0  3.970125  0  0  -0.03547  0  3.985451  0  0  -0.061782  -0.044862  0  3.959764  0
C  C43  1  0.34083185  0.28166780  0.29512032  1  0  -0.010658  0  3.717174  0  0  -0.041334  0  3.970073  0  0  -0.035473  0  3.985404  0  0  -0.061799  -0.044867  0  3.959724  0
C  C44  1  0.84083356  0.71833341  0.20488081  1  0  -0.010676  0  3.717305  0  0  -0.041306  0  3.970177  0  0  -0.035447  0  3.9855  0  0  -0.06177  -0.044838  0  3.959826  0
C  C45  1  0.15916609  0.71833614  0.79511964  1  0  -0.010758  0  3.717245  0  0  -0.041395  0  3.970166  0  0  -0.035542  0  3.985496  0  0  -0.061816  -0.044926  0  3.959806  0
C  C46  1  0.80030325  0.41139230  0.71575920  1  0  -0.115155  0  3.724978  0  0  -0.126492  0  3.976908  0  0  -0.134044  0  3.998391  0  0  -0.082455  -0.12175  0  3.962576  0
C  C47  1  0.19969744  0.41139394  0.28424100  1  0  -0.115169  0  3.72505  0  0  -0.126485  0  3.97695  0  0  -0.134063  0  3.998417  0  0  -0.082429  -0.121745  0  3.962632  0
C  C48  1  0.69970052  0.58860590  0.21575937  1  0  -0.115177  0  3.725094  0  0  -0.126495  0  3.977004  0  0  -0.134053  0  3.998487  0  0  -0.082441  -0.121755  0  3.962685  0
C  C49  1  0.30030370  0.58860632  0.78423876  1  0  -0.115014  0  3.724984  0  0  -0.126364  0  3.976864  0  0  -0.133935  0  3.998336  0  0  -0.082368  -0.121621  0  3.962529  0
C  C50  1  0.81202927  0.52632156  0.64084210  1  0  0.14232  0  3.6824  0  0  0.111046  0  3.933881  0  0  0.119024  0  3.949189  0  0  0.054036  0.106016  0  3.923459  0
C  C51  1  0.18797323  0.52632214  0.35915819  1  0  0.142375  0  3.68241  0  0  0.111101  0  3.933899  0  0  0.119077  0  3.949215  0  0  0.05407  0.106053  0  3.923474  0
C  C52  1  0.68797443  0.47367769  0.14084218  1  0  0.142354  0  3.682415  0  0  0.111085  0  3.933901  0  0  0.119059  0  3.949214  0  0  0.05406  0.106037  0  3.923478  0
C  C53  1  0.31202958  0.47367950  0.85915733  1  0  0.142224  0  3.682522  0  0  0.110931  0  3.933993  0  0  0.118908  0  3.949312  0  0  0.054027  0.105909  0  3.923573  0
N  N54  1  0.69267145  0.51499833  0.55897404  1  0  -0.329597  0  3.128696  0  0  -0.273051  0  3.377263  0  0  -0.28745  0  3.389747  0  0  -0.298456  -0.263424  0  3.368735  0
N  N55  1  0.30732943  0.51499799  0.44102624  1  0  -0.329616  0  3.128706  0  0  -0.273072  0  3.377278  0  0  -0.28747  0  3.389761  0  0  -0.298464  -0.263445  0  3.36876  0
N  N56  1  0.80733058  0.48500074  0.05897414  1  0  -0.329582  0  3.128685  0  0  -0.273041  0  3.377252  0  0  -0.287434  0  3.389733  0  0  -0.298443  -0.263414  0  3.368736  0
N  N57  1  0.19267185  0.48500261  0.94102537  1  0  -0.329572  0  3.12867  0  0  -0.273043  0  3.377251  0  0  -0.287447  0  3.389742  0  0  -0.298515  -0.263413  0  3.36872  0
O  O58  1  0.22369421  0.13459590  0.55283554  1  0  -0.669724  0  1.968652  0  0  -0.613125  0  2.198904  0  0  -0.636731  0  2.189536  0  0  -0.322301  -0.596799  0  2.204969  0
O  O59  1  0.77630597  0.13459485  0.44716443  1  0  -0.669688  0  1.968639  0  0  -0.613094  0  2.19889  0  0  -0.636699  0  2.18952  0  0  -0.322296  -0.596767  0  2.204955  0
O  O60  1  0.27630672  0.86540629  0.05283448  1  0  -0.669743  0  1.968658  0  0  -0.613127  0  2.198916  0  0  -0.636739  0  2.189548  0  0  -0.322328  -0.596801  0  2.204984  0
O  O61  1  0.72369320  0.86540508  0.94716461  1  0  -0.669745  0  1.968637  0  0  -0.613127  0  2.198874  0  0  -0.636739  0  2.189507  0  0  -0.322315  -0.596801  0  2.20494  0
O  O62  1  0.43740220  0.99344450  0.65632149  1  0  -0.66845  0  1.989521  0  0  -0.590962  0  2.196354  0  0  -0.61747  0  2.18448  0  0  -0.311639  -0.572487  0  2.204119  0
O  O63  1  0.56259475  0.99344422  0.34367844  1  0  -0.668343  0  1.989453  0  0  -0.590869  0  2.196292  0  0  -0.617378  0  2.184419  0  0  -0.311594  -0.572393  0  2.204048  0
O  O64  1  0.06259562  0.00655548  0.15632117  1  0  -0.66838  0  1.989522  0  0  -0.590902  0  2.196383  0  0  -0.617411  0  2.184507  0  0  -0.311605  -0.572427  0  2.204148  0
O  O65  1  0.93740432  0.00655426  0.84367796  1  0  -0.668458  0  1.989488  0  0  -0.591003  0  2.196343  0  0  -0.617513  0  2.184467  0  0  -0.31165  -0.572525  0  2.204106  0
O  O66  1  0.20963489  0.77953634  0.54901619  1  0  -0.914004  0  1.894946  0  0  -0.850946  0  2.098515  0  0  -0.869741  0  2.063707  0  0  -0.621616  -0.837589  0  2.122567  0
O  O67  1  0.79036167  0.77953532  0.45098284  1  0  -0.913968  0  1.895022  0  0  -0.85091  0  2.098587  0  0  -0.8697  0  2.063765  0  0  -0.621613  -0.837555  0  2.122638  0
O  O68  1  0.29036284  0.22046462  0.04901608  1  0  -0.913954  0  1.894993  0  0  -0.850887  0  2.098581  0  0  -0.869685  0  2.063759  0  0  -0.621606  -0.837533  0  2.122638  0
O  O69  1  0.70963750  0.22046461  0.95098396  1  0  -0.913973  0  1.894993  0  0  -0.850913  0  2.098577  0  0  -0.869707  0  2.063756  0  0  -0.621612  -0.837559  0  2.122627  0
O  O70  1  0.14269048  0.95105648  0.36036734  1  0  -0.913046  0  1.871446  0  0  -0.860054  0  2.067687  0  0  -0.878285  0  2.036553  0  0  -0.611747  -0.847089  0  2.089306  0
O  O71  1  0.85730800  0.95105595  0.63963256  1  0  -0.913095  0  1.871347  0  0  -0.860141  0  2.067513  0  0  -0.87837  0  2.036376  0  0  -0.611784  -0.847174  0  2.089133  0
O  O72  1  0.35730752  0.04894273  0.86036835  1  0  -0.913013  0  1.871324  0  0  -0.860027  0  2.067681  0  0  -0.878242  0  2.036467  0  0  -0.61172  -0.847061  0  2.089291  0
O  O73  1  0.64269250  0.04894330  0.13963229  1  0  -0.912988  0  1.871333  0  0  -0.860002  0  2.067693  0  0  -0.87822  0  2.036485  0  0  -0.611707  -0.847039  0  2.089307  0
