# generated using pymatgen
data_Zn2H27C37N4O11
_symmetry_space_group_name_H-M   'P 1'
_cell_length_a   15.00858074
_cell_length_b   15.00872286
_cell_length_c   20.93441939
_cell_angle_alpha   83.71939666
_cell_angle_beta   83.71960005
_cell_angle_gamma   67.50803358
_symmetry_Int_Tables_number   1
_chemical_formula_structural   Zn2H27C37N4O11
_chemical_formula_sum   'Zn8 H108 C148 N16 O44'
_cell_volume   4319.09383701
_cell_formula_units_Z   4
loop_
 _symmetry_equiv_pos_site_id
 _symmetry_equiv_pos_as_xyz
  1  'x, y, z'
loop_
 _atom_site_type_symbol
 _atom_site_label
 _atom_site_symmetry_multiplicity
 _atom_site_fract_x
 _atom_site_fract_y
 _atom_site_fract_z
 _atom_site_occupancy
 _atom_site_pbe_bader_charge
 _atom_site_pbe_bader_spin_density
 _atom_site_pbe_cm5_charge
 _atom_site_pbe_ddec_charge
 _atom_site_pbe_ddec_spin_density
 _atom_site_pbe_ddec_sum_bond_order
 _atom_site_pbe_magmom
Zn  Zn0  1  0.00822452  0.01460834  0.68137858  1  1.32312  0  0.664849  0.899123  0  2.335808  0
Zn  Zn1  1  0.98539590  0.99177833  0.81863326  1  1.325154  0  0.664847  0.899073  0  2.335912  0
Zn  Zn2  1  0.99178169  0.98539823  0.31862769  1  1.3245  0  0.664862  0.89914  0  2.335691  0
Zn  Zn3  1  0.01461812  0.00821714  0.18137326  1  1.324051  0  0.66485  0.899091  0  2.335757  0
Zn  Zn4  1  0.95086719  0.43410072  0.00641464  1  1.299146  0  0.674376  0.82835  0  2.396528  0
Zn  Zn5  1  0.56590556  0.04913421  0.49358104  1  1.299178  0  0.674368  0.828385  0  2.396283  0
Zn  Zn6  1  0.04913825  0.56590150  0.99357865  1  1.299671  0  0.674401  0.828409  0  2.396417  0
Zn  Zn7  1  0.43409255  0.95086684  0.50641720  1  1.299791  0  0.674365  0.828342  0  2.396407  0
H  H8  1  0.68139018  0.10554174  0.84447551  1  0.079328  0  0.100469  0.101174  0  1.007518  0
H  H9  1  0.89446119  0.31859817  0.65554231  1  0.079655  0  0.100436  0.101135  0  1.007629  0
H  H10  1  0.31861096  0.89446745  0.15553954  1  0.079793  0  0.100427  0.101087  0  1.007692  0
H  H11  1  0.10553870  0.68138336  0.34447352  1  0.079444  0  0.100486  0.101211  0  1.007634  0
H  H12  1  0.50240467  0.15372175  0.84769068  1  0.044322  0  0.102707  0.116786  0  1.005386  0
H  H13  1  0.84625631  0.49758555  0.65232472  1  0.044733  0  0.102749  0.116952  0  1.005499  0
H  H14  1  0.49760025  0.84625516  0.15231844  1  0.044958  0  0.102741  0.116932  0  1.005314  0
H  H15  1  0.15372837  0.50239927  0.34768439  1  0.044533  0  0.102749  0.116853  0  1.0054  0
H  H16  1  0.52599062  0.11786879  0.64427861  1  0.134285  0  0.104641  0.131484  0  1.044137  0
H  H17  1  0.88209602  0.47400699  0.85573686  1  0.133961  0  0.104661  0.131584  0  1.044061  0
H  H18  1  0.47403052  0.88211853  0.35572991  1  0.134603  0  0.104613  0.131442  0  1.043881  0
H  H19  1  0.11787815  0.52599939  0.14426854  1  0.134195  0  0.10472  0.131669  0  1.043939  0
H  H20  1  0.70515714  0.06815893  0.64199610  1  0.09922  0  0.103114  0.105475  0  1.014867  0
H  H21  1  0.93183634  0.29483958  0.85801939  1  0.098756  0  0.103065  0.105325  0  1.014881  0
H  H22  1  0.29486238  0.93185917  0.35801400  1  0.09942  0  0.103077  0.10535  0  1.014779  0
H  H23  1  0.06815607  0.70516969  0.14199346  1  0.098775  0  0.103058  0.105373  0  1.014891  0
H  H24  1  0.26822662  0.41978042  0.86328961  1  0.105181  0  0.102323  0.108073  0  1.001407  0
H  H25  1  0.58019814  0.73178519  0.63670607  1  0.105368  0  0.102297  0.107973  0  1.001295  0
H  H26  1  0.73179757  0.58021114  0.13669780  1  0.10544  0  0.102351  0.108058  0  1.001348  0
H  H27  1  0.41978287  0.26823595  0.36329528  1  0.104905  0  0.102262  0.10799  0  1.001266  0
H  H28  1  0.40498928  0.31712781  0.79131014  1  0.071767  0  0.105753  0.121043  0  0.997513  0
H  H29  1  0.68282782  0.59501426  0.70869311  1  0.071785  0  0.105811  0.120994  0  0.997654  0
H  H30  1  0.59503011  0.68284280  0.20868641  1  0.071907  0  0.105846  0.121057  0  0.99769  0
H  H31  1  0.31714062  0.40499639  0.29130667  1  0.071535  0  0.10574  0.120939  0  0.997607  0
H  H32  1  0.25555871  0.12500886  0.78403209  1  0.081363  0  0.103764  0.121145  0  1.025116  0
H  H33  1  0.87498836  0.74439798  0.71596351  1  0.081228  0  0.103781  0.121147  0  1.025281  0
H  H34  1  0.74442340  0.87499309  0.21596587  1  0.081431  0  0.10375  0.121167  0  1.025202  0
H  H35  1  0.12500796  0.25558370  0.28402776  1  0.081447  0  0.103742  0.121161  0  1.025131  0
H  H36  1  0.11773032  0.22958673  0.85481930  1  0.080452  0  0.105539  0.104374  0  1.024848  0
H  H37  1  0.77043571  0.88223423  0.64516955  1  0.080606  0  0.105714  0.104584  0  1.024685  0
H  H38  1  0.88225945  0.77043437  0.14517374  1  0.080239  0  0.105583  0.104431  0  1.024704  0
H  H39  1  0.22956945  0.11775336  0.35482250  1  0.080489  0  0.105658  0.104442  0  1.024756  0
H  H40  1  0.11041697  0.55362889  0.61091438  1  0.065866  0  0.104534  0.11911  0  0.998171  0
H  H41  1  0.44638872  0.88958456  0.88908052  1  0.06587  0  0.104603  0.119176  0  0.998348  0
H  H42  1  0.88959728  0.44637792  0.38908218  1  0.06584  0  0.104554  0.11917  0  0.998203  0
H  H43  1  0.55362187  0.11042035  0.11090834  1  0.065806  0  0.104558  0.119034  0  0.998543  0
H  H44  1  0.08134879  0.72679590  0.62252755  1  0.051266  0  0.101706  0.1012  0  1.015792  0
H  H45  1  0.27321948  0.91864396  0.87748316  1  0.051218  0  0.101737  0.10125  0  1.015796  0
H  H46  1  0.91865673  0.27321163  0.37747297  1  0.051342  0  0.101654  0.101153  0  1.015782  0
H  H47  1  0.72679740  0.08134775  0.12251053  1  0.050842  0  0.101739  0.10128  0  1.015653  0
H  H48  1  0.03187829  0.68362719  0.82768087  1  0.106493  0  0.102846  0.104156  0  1.039038  0
H  H49  1  0.31635094  0.96811903  0.67232516  1  0.106919  0  0.10286  0.104424  0  1.0388  0
H  H50  1  0.96811315  0.31636709  0.17231601  1  0.106369  0  0.102784  0.104197  0  1.03897  0
H  H51  1  0.68364379  0.03189477  0.32766519  1  0.106778  0  0.102922  0.104482  0  1.038853  0
H  H52  1  0.06046145  0.51207078  0.81646914  1  0.11365  0  0.108984  0.129558  0  1.025619  0
H  H53  1  0.48791583  0.93954347  0.68352166  1  0.11632  0  0.10896  0.129537  0  1.025513  0
H  H54  1  0.93953662  0.48792696  0.18352266  1  0.116225  0  0.108953  0.129551  0  1.025553  0
H  H55  1  0.51208195  0.06047719  0.31646603  1  0.11371  0  0.10892  0.129436  0  1.025669  0
H  H56  1  0.20287679  0.13596934  0.63475947  1  0.096501  0  0.102444  0.102733  0  1.026361  0
H  H57  1  0.86403613  0.79710368  0.86524073  1  0.096565  0  0.102389  0.102613  0  1.026615  0
H  H58  1  0.79709808  0.86403477  0.36523888  1  0.096612  0  0.102408  0.102767  0  1.026533  0
H  H59  1  0.13597640  0.20288840  0.13475088  1  0.096648  0  0.102483  0.102787  0  1.026431  0
H  H60  1  0.08028670  0.27286420  0.69282635  1  0.121619  0  0.10211  0.118787  0  1.042554  0
H  H61  1  0.72714946  0.91969560  0.80716358  1  0.121598  0  0.102024  0.118686  0  1.042766  0
H  H62  1  0.91968911  0.72714963  0.30716354  1  0.121654  0  0.102081  0.118769  0  1.042778  0
H  H63  1  0.27286675  0.08029906  0.19282946  1  0.121958  0  0.102057  0.118781  0  1.042497  0
H  H64  1  0.26493451  0.43523225  0.65133805  1  0.077728  0  0.10152  0.115041  0  1.019241  0
H  H65  1  0.56475790  0.73506384  0.84866491  1  0.078122  0  0.101528  0.115097  0  1.019116  0
H  H66  1  0.73505848  0.56476680  0.34865644  1  0.077732  0  0.101587  0.115135  0  1.019141  0
H  H67  1  0.43524045  0.26494919  0.15132905  1  0.078509  0  0.101476  0.115041  0  1.019201  0
H  H68  1  0.38496144  0.30054043  0.59281535  1  0.070868  0  0.099589  0.095749  0  1.036823  0
H  H69  1  0.69944645  0.61504228  0.90719408  1  0.071336  0  0.099639  0.095832  0  1.036696  0
H  H70  1  0.61503068  0.69945157  0.40718308  1  0.07116  0  0.099568  0.095689  0  1.036719  0
H  H71  1  0.30054451  0.38496624  0.09280796  1  0.071007  0  0.099547  0.095757  0  1.036984  0
H  H72  1  0.94620831  0.24754423  0.07924111  1  0.107181  0  0.127595  0.101892  0  0.99278  0
H  H73  1  0.75246978  0.05379932  0.42075810  1  0.106933  0  0.127583  0.101846  0  0.99291  0
H  H74  1  0.05379704  0.75245466  0.92075913  1  0.106944  0  0.12759  0.101842  0  0.992883  0
H  H75  1  0.24754355  0.94619843  0.57924926  1  0.107198  0  0.127567  0.101858  0  0.992997  0
H  H76  1  0.81913249  0.18235655  0.12106623  1  0.167846  0  0.113443  0.134214  0  1.034777  0
H  H77  1  0.81765502  0.18087569  0.37894114  1  0.167982  0  0.113395  0.134166  0  1.034723  0
H  H78  1  0.18086852  0.81764402  0.87893660  1  0.167885  0  0.113401  0.134143  0  1.03487  0
H  H79  1  0.18236123  0.81912422  0.62107729  1  0.167799  0  0.11345  0.134229  0  1.034712  0
H  H80  1  0.64724571  0.27695252  0.09212775  1  0.117521  0  0.112111  0.107133  0  1.01497  0
H  H81  1  0.72306151  0.35275709  0.40788227  1  0.117457  0  0.112161  0.107257  0  1.014866  0
H  H82  1  0.35275610  0.72305176  0.90787234  1  0.117437  0  0.112126  0.107147  0  1.01499  0
H  H83  1  0.27694456  0.64724347  0.59213355  1  0.117555  0  0.11214  0.107151  0  1.014958  0
H  H84  1  0.74983218  0.48584700  0.98374144  1  0.190257  0  0.125224  0.098425  0  1.041029  0
H  H85  1  0.51416361  0.25016277  0.51625806  1  0.190461  0  0.125297  0.098455  0  1.040941  0
H  H86  1  0.25017110  0.51415804  0.01626279  1  0.19028  0  0.125272  0.098486  0  1.040969  0
H  H87  1  0.48582936  0.74983494  0.48373652  1  0.190426  0  0.125298  0.098472  0  1.040891  0
H  H88  1  0.03812509  0.17455920  0.59799574  1  0.115691  0  0.127488  0.058687  0  1.021044  0
H  H89  1  0.82544255  0.96185277  0.90200079  1  0.115484  0  0.127467  0.05865  0  1.021139  0
H  H90  1  0.96187820  0.82544586  0.40200036  1  0.115752  0  0.127463  0.058563  0  1.021162  0
H  H91  1  0.17455966  0.03813263  0.09799069  1  0.115766  0  0.127411  0.058598  0  1.021031  0
H  H92  1  0.07031449  0.25995008  0.44469871  1  0.071682  0  0.10342  0.117738  0  0.998913  0
H  H93  1  0.74002974  0.92966437  0.05529336  1  0.072063  0  0.103308  0.117632  0  0.999162  0
H  H94  1  0.92969052  0.74002952  0.55529443  1  0.071366  0  0.103335  0.117688  0  0.999148  0
H  H95  1  0.25994045  0.07032217  0.94469619  1  0.071778  0  0.103407  0.117748  0  0.998908  0
H  H96  1  0.18522222  0.20071253  0.47735752  1  0.08921  0  0.108454  0.132432  0  0.9938  0
H  H97  1  0.79928517  0.81476407  0.02263863  1  0.089079  0  0.108429  0.132458  0  0.993641  0
H  H98  1  0.81478662  0.79927762  0.52263882  1  0.089626  0  0.10848  0.132457  0  0.993785  0
H  H99  1  0.20069970  0.18522878  0.97735266  1  0.089082  0  0.108459  0.132485  0  0.993706  0
H  H100  1  0.08312006  0.26801792  0.52803242  1  0.086584  0  0.108426  0.119618  0  1.001165  0
H  H101  1  0.73197938  0.91685337  0.97196280  1  0.086316  0  0.108575  0.11964  0  1.00126  0
H  H102  1  0.91687870  0.73197820  0.47196233  1  0.086374  0  0.108461  0.119599  0  1.001048  0
H  H103  1  0.26800457  0.08312912  0.02802887  1  0.08704  0  0.108453  0.119678  0  1.001248  0
H  H104  1  0.08220906  0.10278636  0.41075081  1  0.094268  0  0.109685  0.133916  0  0.992619  0
H  H105  1  0.89717514  0.91781702  0.08925365  1  0.093634  0  0.109646  0.133925  0  0.992702  0
H  H106  1  0.91780670  0.89718564  0.58925547  1  0.093752  0  0.109649  0.133802  0  0.992687  0
H  H107  1  0.10277963  0.08220299  0.91074598  1  0.093981  0  0.109714  0.133934  0  0.992606  0
H  H108  1  0.07271527  0.01361146  0.47165572  1  0.131566  0  0.110222  0.13281  0  1.016106  0
H  H109  1  0.98635403  0.92731606  0.02835198  1  0.131633  0  0.110257  0.13279  0  1.016192  0
H  H110  1  0.92732159  0.98636031  0.52835421  1  0.131436  0  0.110247  0.132718  0  1.01615  0
H  H111  1  0.01360443  0.07270719  0.97165142  1  0.13135  0  0.110203  0.132733  0  1.016141  0
H  H112  1  0.18708598  0.02598245  0.45057702  1  0.111721  0  0.106848  0.12698  0  1.00231  0
H  H113  1  0.97400131  0.81293533  0.04943786  1  0.11214  0  0.106767  0.126859  0  1.002419  0
H  H114  1  0.81293746  0.97401068  0.54942609  1  0.112205  0  0.106733  0.126731  0  1.002455  0
H  H115  1  0.02596799  0.18708366  0.95056933  1  0.112452  0  0.106773  0.126828  0  1.002466  0
C  C116  1  0.70470766  0.08327129  0.74328766  1  -0.042546  0  -0.032184  -0.07234  0  4.004185  0
C  C117  1  0.91672676  0.29528969  0.75672467  1  -0.04217  0  -0.032287  -0.072683  0  4.0049  0
C  C118  1  0.29529738  0.91675114  0.25671939  1  -0.04275  0  -0.032326  -0.072766  0  4.004763  0
C  C119  1  0.08328437  0.70470823  0.24328809  1  -0.041924  0  -0.032203  -0.072524  0  4.0043  0
C  C120  1  0.64654998  0.10894115  0.80077512  1  -0.050496  0  -0.087758  -0.072727  0  4.016354  0
C  C121  1  0.89105833  0.35343960  0.69923851  1  -0.051189  0  -0.087779  -0.072645  0  4.016908  0
C  C122  1  0.35345325  0.89106254  0.19923494  1  -0.051353  0  -0.08763  -0.072314  0  4.016627  0
C  C123  1  0.10894387  0.64654840  0.30077426  1  -0.051307  0  -0.087775  -0.072677  0  4.01664  0
C  C124  1  0.54683478  0.13627076  0.80261916  1  0.015875  0  -0.110436  -0.221676  0  4.030682  0
C  C125  1  0.86370964  0.45315664  0.69739511  1  0.014972  0  -0.110364  -0.221739  0  4.031003  0
C  C126  1  0.45316603  0.86371982  0.19738780  1  0.015219  0  -0.110575  -0.221999  0  4.030797  0
C  C127  1  0.13627875  0.54683209  0.30261532  1  0.015689  0  -0.110515  -0.221802  0  4.030791  0
C  C128  1  0.50464267  0.13863779  0.74569617  1  0.424431  0  0.089813  0.270457  0  4.032699  0
C  C129  1  0.86133149  0.49534757  0.75431658  1  0.42561  0  0.089725  0.270482  0  4.033059  0
C  C130  1  0.49536601  0.86134502  0.25430886  1  0.424748  0  0.089727  0.270157  0  4.033089  0
C  C131  1  0.13865348  0.50465191  0.24568565  1  0.424798  0  0.089828  0.270503  0  4.03266  0
C  C132  1  0.56094683  0.11541955  0.68770572  1  -0.086743  0  -0.103767  -0.197407  0  3.961237  0
C  C133  1  0.88455014  0.43905064  0.81231135  1  -0.086727  0  -0.103802  -0.197558  0  3.961392  0
C  C134  1  0.43906344  0.88457002  0.31230011  1  -0.087129  0  -0.103746  -0.197268  0  3.961164  0
C  C135  1  0.11543275  0.56095499  0.18769630  1  -0.086794  0  -0.103894  -0.197696  0  3.961214  0
C  C136  1  0.66055079  0.08790647  0.68675318  1  0.03743  0  -0.080975  -0.060341  0  3.978577  0
C  C137  1  0.91207787  0.33944297  0.81326087  1  0.037723  0  -0.080838  -0.059949  0  3.978397  0
C  C138  1  0.33946406  0.91209471  0.31325379  1  0.037184  0  -0.080923  -0.060041  0  3.978716  0
C  C139  1  0.08791089  0.66056572  0.18674992  1  0.037703  0  -0.080858  -0.060049  0  3.978095  0
C  C140  1  0.81204278  0.04803508  0.74348048  1  1.543145  0  0.210994  0.590861  0  4.185297  0
C  C141  1  0.95200798  0.18795223  0.75652833  1  1.543114  0  0.211092  0.590772  0  4.185572  0
C  C142  1  0.18796845  0.95200574  0.25651895  1  1.543384  0  0.211119  0.590932  0  4.185552  0
C  C143  1  0.04801846  0.81204640  0.24348368  1  1.54323  0  0.211185  0.590929  0  4.185269  0
C  C144  1  0.18598461  0.32955814  0.86504321  1  0.055826  0  -0.031237  -0.071008  0  4.003378  0
C  C145  1  0.67042678  0.81400944  0.63495861  1  0.054838  0  -0.03131  -0.070868  0  4.003595  0
C  C146  1  0.81400978  0.67043833  0.13495662  1  0.055403  0  -0.031175  -0.070614  0  4.003488  0
C  C147  1  0.32955829  0.18599536  0.36504368  1  0.055436  0  -0.031248  -0.070858  0  4.003646  0
C  C148  1  0.26667669  0.35443217  0.84620959  1  -0.097749  0  -0.085848  -0.068756  0  3.99645  0
C  C149  1  0.64554787  0.73333201  0.65379396  1  -0.097615  0  -0.085936  -0.068857  0  3.996544  0
C  C150  1  0.73333372  0.64556407  0.15378998  1  -0.098029  0  -0.085904  -0.068988  0  3.996601  0
C  C151  1  0.35443437  0.26667790  0.34621437  1  -0.097907  0  -0.085758  -0.068681  0  3.996332  0
C  C152  1  0.34278379  0.29737717  0.80641656  1  -0.00221  0  -0.106965  -0.218437  0  4.024835  0
C  C153  1  0.70258707  0.65721284  0.69359222  1  -0.002676  0  -0.10706  -0.21847  0  4.024562  0
C  C154  1  0.65721915  0.70260925  0.19358529  1  -0.002835  0  -0.107007  -0.218359  0  4.024504  0
C  C155  1  0.29739213  0.34279022  0.30641400  1  -0.002586  0  -0.107004  -0.218366  0  4.024578  0
C  C156  1  0.33832503  0.21379398  0.78552841  1  0.405817  0  0.090554  0.269953  0  4.035257  0
C  C157  1  0.78617680  0.66166612  0.71447850  1  0.405781  0  0.09086  0.2705  0  4.035125  0
C  C158  1  0.66168569  0.78618066  0.21447662  1  0.406679  0  0.090698  0.270358  0  4.035441  0
C  C159  1  0.21381325  0.33833140  0.28551680  1  0.406286  0  0.090663  0.270092  0  4.035171  0
C  C160  1  0.25752079  0.18914583  0.80255770  1  0.062802  0  -0.100732  -0.194733  0  3.980913  0
C  C161  1  0.81084146  0.74245789  0.69744261  1  0.062082  0  -0.100755  -0.195036  0  3.981182  0
C  C162  1  0.74247011  0.81085805  0.19743897  1  0.06359  0  -0.10067  -0.194917  0  3.980684  0
C  C163  1  0.18914710  0.25753819  0.30255388  1  0.063133  0  -0.10077  -0.194929  0  3.980756  0
C  C164  1  0.18157589  0.24729457  0.84185416  1  -0.097817  0  -0.08022  -0.067122  0  3.984113  0
C  C165  1  0.75270838  0.81840153  0.65813957  1  -0.095552  0  -0.080361  -0.0672  0  3.984031  0
C  C166  1  0.81842662  0.75270680  0.15813560  1  -0.097736  0  -0.080307  -0.067249  0  3.983635  0
C  C167  1  0.24729107  0.18159231  0.34185577  1  -0.097422  0  -0.080302  -0.067108  0  3.983977  0
C  C168  1  0.10768084  0.38983519  0.91016980  1  1.534045  0  0.209626  0.57895  0  4.190846  0
C  C169  1  0.61017065  0.89231255  0.58982642  1  1.53311  0  0.209622  0.578858  0  4.190723  0
C  C170  1  0.89232126  0.61018375  0.08982341  1  1.5321  0  0.209591  0.578875  0  4.190568  0
C  C171  1  0.38983115  0.10769042  0.41016996  1  1.53433  0  0.209594  0.578716  0  4.190933  0
C  C172  1  0.08912064  0.52244166  0.71367526  1  0.358296  0  0.091133  0.268268  0  4.028371  0
C  C173  1  0.47755999  0.91086994  0.78633128  1  0.357562  0  0.09097  0.268062  0  4.028668  0
C  C174  1  0.91087184  0.47756898  0.28631981  1  0.357946  0  0.091118  0.268247  0  4.028482  0
C  C175  1  0.52245196  0.08913106  0.21366733  1  0.357449  0  0.090929  0.267982  0  4.028784  0
C  C176  1  0.09519554  0.58205982  0.65833422  1  -0.020618  0  -0.107064  -0.219462  0  4.021831  0
C  C177  1  0.41795065  0.90480556  0.84167171  1  -0.02037  0  -0.10708  -0.219463  0  4.02223  0
C  C178  1  0.90480418  0.41794866  0.34166285  1  -0.020357  0  -0.107122  -0.219645  0  4.021853  0
C  C179  1  0.58205996  0.09520068  0.15832135  1  -0.020085  0  -0.106969  -0.219189  0  4.022405  0
C  C180  1  0.07913609  0.67847687  0.66499551  1  -0.004983  0  -0.090234  -0.08701  0  4.021606  0
C  C181  1  0.32153906  0.92085396  0.83502021  1  -0.005168  0  -0.090101  -0.086745  0  4.021179  0
C  C182  1  0.92086211  0.32152883  0.33500332  1  -0.004935  0  -0.090143  -0.086931  0  4.021444  0
C  C183  1  0.67847428  0.07914380  0.16497950  1  -0.00499  0  -0.090142  -0.086944  0  4.021321  0
C  C184  1  0.05728136  0.71606039  0.72587253  1  -0.025005  0  -0.031186  -0.070462  0  4.004327  0
C  C185  1  0.28394480  0.94270038  0.77414503  1  -0.024923  0  -0.031333  -0.070537  0  4.003323  0
C  C186  1  0.94270507  0.28393919  0.27413006  1  -0.024832  0  -0.031184  -0.070242  0  4.004043  0
C  C187  1  0.71606051  0.05729585  0.22585398  1  -0.025362  0  -0.031147  -0.070137  0  4.003373  0
C  C188  1  0.05106686  0.65505613  0.78038710  1  -0.068282  0  -0.079391  -0.060619  0  3.96329  0
C  C189  1  0.34494453  0.94892752  0.71961943  1  -0.068331  0  -0.079491  -0.061198  0  3.962856  0
C  C190  1  0.94892684  0.34494262  0.21961261  1  -0.068129  0  -0.079438  -0.060934  0  3.96316  0
C  C191  1  0.65506109  0.05108468  0.28037499  1  -0.068  0  -0.079573  -0.061346  0  3.963224  0
C  C192  1  0.06667790  0.55901317  0.77441745  1  0.078133  0  -0.094809  -0.177314  0  3.961023  0
C  C193  1  0.44099315  0.93331646  0.72558978  1  0.075611  0  -0.094754  -0.177211  0  3.961302  0
C  C194  1  0.93331005  0.44098984  0.22558141  1  0.07571  0  -0.0947  -0.177203  0  3.961034  0
C  C195  1  0.55901664  0.06668539  0.27440751  1  0.078439  0  -0.094771  -0.177052  0  3.961368  0
C  C196  1  0.03716367  0.82025683  0.73241911  1  1.549194  0  0.211659  0.586395  0  4.185114  0
C  C197  1  0.17973520  0.96282356  0.76758737  1  1.548988  0  0.211684  0.586249  0  4.185221  0
C  C198  1  0.96282143  0.17974996  0.26758589  1  1.548574  0  0.211567  0.586142  0  4.185178  0
C  C199  1  0.82027214  0.03716319  0.23240266  1  1.547903  0  0.211676  0.586084  0  4.185116  0
C  C200  1  0.30121311  0.20983047  0.60861477  1  -0.035477  0  -0.031813  -0.069516  0  4.000215  0
C  C201  1  0.79016802  0.69877885  0.89139038  1  -0.035837  0  -0.031828  -0.069588  0  4.001111  0
C  C202  1  0.69878328  0.79015715  0.39139370  1  -0.034853  0  -0.031845  -0.06972  0  4.000613  0
C  C203  1  0.20983251  0.30123401  0.10860294  1  -0.027159  0  -0.03177  -0.069475  0  4.001032  0
C  C204  1  0.21478540  0.20272934  0.63691388  1  0.003441  0  -0.08516  -0.074444  0  4.001026  0
C  C205  1  0.79728542  0.78519334  0.86308900  1  0.003713  0  -0.084954  -0.074049  0  4.000585  0
C  C206  1  0.78520479  0.79727615  0.36308558  1  0.003831  0  -0.085124  -0.074367  0  4.000746  0
C  C207  1  0.20272599  0.21481661  0.13690180  1  0.004557  0  -0.085256  -0.07449  0  4.001058  0
C  C208  1  0.14642267  0.27832046  0.66918376  1  -0.047621  0  -0.106149  -0.205862  0  3.99724  0
C  C209  1  0.72168655  0.85356163  0.83080758  1  -0.047452  0  -0.106065  -0.205924  0  3.997102  0
C  C210  1  0.85356816  0.72167945  0.33080796  1  -0.047894  0  -0.106098  -0.205961  0  3.997284  0
C  C211  1  0.27831755  0.14644716  0.16918339  1  -0.048425  0  -0.105862  -0.205708  0  3.996799  0
C  C212  1  0.16412211  0.36232097  0.67418621  1  0.365039  0  0.090747  0.271524  0  4.035758  0
C  C213  1  0.63767894  0.83587223  0.82581340  1  0.364853  0  0.090509  0.271235  0  4.035382  0
C  C214  1  0.83586725  0.63767948  0.32581418  1  0.365081  0  0.090707  0.271535  0  4.035676  0
C  C215  1  0.36232818  0.16414207  0.17418074  1  0.365024  0  0.090514  0.27134  0  4.035357  0
C  C216  1  0.24992197  0.37096746  0.64642486  1  -0.011746  0  -0.110232  -0.223782  0  4.011538  0
C  C217  1  0.62904423  0.75006145  0.85357911  1  -0.01189  0  -0.110086  -0.223733  0  4.01141  0
C  C218  1  0.75006746  0.62903632  0.35357240  1  -0.012021  0  -0.110265  -0.223837  0  4.01171  0
C  C219  1  0.37096207  0.24994846  0.14641878  1  -0.007738  0  -0.11017  -0.223776  0  4.011646  0
C  C220  1  0.31765199  0.29456070  0.61385376  1  0.016623  0  -0.083156  -0.058612  0  3.982328  0
C  C221  1  0.70544247  0.68234709  0.88615516  1  0.01645  0  -0.083153  -0.058516  0  3.982833  0
C  C222  1  0.68234743  0.70543246  0.38614546  1  0.016019  0  -0.083041  -0.058348  0  3.98271  0
C  C223  1  0.29456317  0.31766709  0.11384627  1  0.003104  0  -0.082995  -0.058488  0  3.982951  0
C  C224  1  0.37431729  0.12766229  0.57459158  1  1.537313  0  0.216026  0.59223  0  4.159131  0
C  C225  1  0.87232417  0.62568821  0.92540750  1  1.536744  0  0.215914  0.592025  0  4.160186  0
C  C226  1  0.62568072  0.87233408  0.42541323  1  1.537252  0  0.215944  0.592182  0  4.159219  0
C  C227  1  0.12767108  0.37431399  0.07458370  1  1.536267  0  0.21584  0.592075  0  4.16003  0
C  C228  1  0.58650488  0.44755511  0.01627304  1  0.988369  0  0.248227  0.253475  0  3.982723  0
C  C229  1  0.55244094  0.41349501  0.48372769  1  0.988471  0  0.248331  0.253557  0  3.982707  0
C  C230  1  0.41349600  0.55243750  0.98372372  1  0.988403  0  0.248225  0.253606  0  3.982636  0
C  C231  1  0.44755710  0.58650271  0.51627272  1  0.988521  0  0.248302  0.253578  0  3.982789  0
C  C232  1  0.87146074  0.28523537  0.06716056  1  0.477674  0  0.070936  0.120273  0  3.864678  0
C  C233  1  0.71478064  0.12853943  0.43284605  1  0.477233  0  0.070808  0.120096  0  3.864733  0
C  C234  1  0.12854175  0.71476663  0.93284300  1  0.477571  0  0.070916  0.120194  0  3.865142  0
C  C235  1  0.28523409  0.87145641  0.56716612  1  0.477384  0  0.070803  0.119923  0  3.86528  0
C  C236  1  0.79986224  0.24972480  0.09043837  1  0.043581  0  -0.07237  -0.112072  0  3.916736  0
C  C237  1  0.75028775  0.20014052  0.40956872  1  0.043881  0  -0.072247  -0.11182  0  3.916259  0
C  C238  1  0.20013661  0.75027728  0.90956355  1  0.043974  0  -0.072353  -0.111868  0  3.916827  0
C  C239  1  0.24971838  0.79986205  0.59044025  1  0.043866  0  -0.072354  -0.11187  0  3.916563  0
C  C240  1  0.70531154  0.30196262  0.07433211  1  -0.087263  0  -0.052722  -0.04994  0  3.906534  0
C  C241  1  0.69805111  0.29468968  0.42567716  1  -0.087431  0  -0.052651  -0.049956  0  3.90625  0
C  C242  1  0.29468808  0.69804184  0.92567005  1  -0.087252  0  -0.052653  -0.049979  0  3.906573  0
C  C243  1  0.30196072  0.70530662  0.57433615  1  -0.087353  0  -0.0527  -0.049966  0  3.906351  0
C  C244  1  0.68483990  0.38843421  0.03488060  1  -0.030397  0  -0.001244  -0.038416  0  3.992414  0
C  C245  1  0.61157676  0.31516028  0.46512306  1  -0.030478  0  -0.001407  -0.038804  0  3.992549  0
C  C246  1  0.31516262  0.61156846  0.96511909  1  -0.030162  0  -0.001334  -0.038551  0  3.992576  0
C  C247  1  0.38842704  0.68483384  0.53488053  1  -0.030115  0  -0.001369  -0.038563  0  3.992376  0
C  C248  1  0.76110187  0.41893148  0.01370037  1  0.500119  0  0.067266  0.079843  0  3.856592  0
C  C249  1  0.58108287  0.23889369  0.48630393  1  0.500044  0  0.06726  0.080065  0  3.856395  0
C  C250  1  0.23890064  0.58107185  0.98630357  1  0.499833  0  0.067309  0.079911  0  3.856446  0
C  C251  1  0.41891949  0.76110099  0.51369924  1  0.499826  0  0.067278  0.07995  0  3.856132  0
C  C252  1  0.05322761  0.11671884  0.56548272  1  1.363766  0  0.180501  0.290678  0  4.061694  0
C  C253  1  0.88326987  0.94676999  0.93452058  1  1.363832  0  0.180431  0.290628  0  4.061704  0
C  C254  1  0.94678273  0.88327473  0.43452041  1  1.363667  0  0.180378  0.290728  0  4.061895  0
C  C255  1  0.11671725  0.05322732  0.06547640  1  1.363479  0  0.180368  0.290634  0  4.061936  0
C  C256  1  0.10690147  0.22107240  0.48790035  1  0.224773  0  -0.126485  -0.273099  0  3.892774  0
C  C257  1  0.77891471  0.89308393  0.01209460  1  0.225391  0  -0.126469  -0.273075  0  3.893286  0
C  C258  1  0.89310442  0.77891557  0.51209638  1  0.224987  0  -0.126436  -0.273025  0  3.8932  0
C  C259  1  0.22106362  0.10690881  0.98789528  1  0.224071  0  -0.126538  -0.273248  0  3.892822  0
C  C260  1  0.10832887  0.06467828  0.45688645  1  0.182003  0  -0.132674  -0.277386  0  3.855416  0
C  C261  1  0.93529347  0.89169210  0.04312202  1  0.182522  0  -0.132675  -0.277338  0  3.855533  0
C  C262  1  0.89169428  0.93529954  0.54311929  1  0.182643  0  -0.132585  -0.276925  0  3.855418  0
C  C263  1  0.06466708  0.10832498  0.95687978  1  0.182326  0  -0.132582  -0.27709  0  3.854974  0
N  N264  1  0.51337579  0.41929836  0.04099852  1  -0.554832  0  -0.148331  -0.141396  0  3.189712  0
N  N265  1  0.58069120  0.48663088  0.45899591  1  -0.554561  0  -0.148274  -0.141223  0  3.189455  0
N  N266  1  0.48663158  0.58069038  0.95899183  1  -0.554659  0  -0.148186  -0.141271  0  3.189522  0
N  N267  1  0.41929739  0.51336654  0.54099856  1  -0.554587  0  -0.148268  -0.141419  0  3.189653  0
N  N268  1  0.57450691  0.52733955  0.97555800  1  -0.551234  0  -0.140943  -0.131765  0  3.201376  0
N  N269  1  0.47265595  0.42549028  0.52443640  1  -0.551532  0  -0.140904  -0.131631  0  3.201527  0
N  N270  1  0.42549614  0.47265156  0.02443155  1  -0.551484  0  -0.140817  -0.131625  0  3.201314  0
N  N271  1  0.52733196  0.57450941  0.47555890  1  -0.551698  0  -0.140937  -0.131785  0  3.201471  0
N  N272  1  0.85202416  0.36835091  0.02960567  1  -1.250284  0  -0.31753  -0.202372  0  3.513389  0
N  N273  1  0.63166037  0.14797895  0.47039231  1  -1.250042  0  -0.317533  -0.202378  0  3.513372  0
N  N274  1  0.14797982  0.63165252  0.97039623  1  -1.250234  0  -0.317595  -0.202428  0  3.513529  0
N  N275  1  0.36833775  0.85202210  0.52960449  1  -1.250368  0  -0.3175  -0.202195  0  3.513386  0
N  N276  1  0.08500398  0.13458732  0.50548920  1  -1.228568  0  -0.273018  0.043996  0  3.718175  0
N  N277  1  0.86539336  0.91499369  0.99451331  1  -1.229579  0  -0.272967  0.044148  0  3.718206  0
N  N278  1  0.91500476  0.86539816  0.49451276  1  -1.229097  0  -0.272982  0.043983  0  3.718479  0
N  N279  1  0.13458070  0.08500538  0.00548406  1  -1.228542  0  -0.272956  0.043936  0  3.718022  0
O  O280  1  0.40798489  0.15561656  0.74370125  1  -1.111424  0  -0.139638  -0.202045  0  2.614976  0
O  O281  1  0.84434817  0.59200933  0.75631184  1  -1.111777  0  -0.139733  -0.202368  0  2.615134  0
O  O282  1  0.59202577  0.84435543  0.25630399  1  -1.111782  0  -0.13966  -0.202151  0  2.615449  0
O  O283  1  0.15563393  0.40799196  0.24368713  1  -1.111352  0  -0.139682  -0.202167  0  2.61463  0
O  O284  1  0.86266410  0.03170071  0.69006016  1  -1.17133  0  -0.317569  -0.54819  0  2.290545  0
O  O285  1  0.96835178  0.13732026  0.80994934  1  -1.171677  0  -0.317709  -0.548155  0  2.290373  0
O  O286  1  0.13732904  0.96834585  0.30993879  1  -1.17121  0  -0.317754  -0.548352  0  2.290067  0
O  O287  1  0.03171158  0.86266661  0.19005931  1  -1.171281  0  -0.31774  -0.5483  0  2.290264  0
O  O288  1  0.84551128  0.03552937  0.79891491  1  -1.173564  0  -0.323129  -0.572023  0  2.380032  0
O  O289  1  0.96450854  0.15449335  0.70109556  1  -1.173362  0  -0.322996  -0.571784  0  2.380328  0
O  O290  1  0.15450589  0.96451782  0.20108884  1  -1.173819  0  -0.322942  -0.571722  0  2.380407  0
O  O291  1  0.03553237  0.84550029  0.29891526  1  -1.173957  0  -0.323092  -0.571863  0  2.380262  0
O  O292  1  0.04061131  0.35967931  0.93251661  1  -1.172963  0  -0.317264  -0.546568  0  2.324377  0
O  O293  1  0.64034115  0.95937169  0.56747016  1  -1.172077  0  -0.31718  -0.546489  0  2.324231  0
O  O294  1  0.95937865  0.64035047  0.06746286  1  -1.171035  0  -0.317221  -0.546507  0  2.324248  0
O  O295  1  0.35967515  0.04062697  0.43251971  1  -1.172731  0  -0.317154  -0.546357  0  2.324375  0
O  O296  1  0.11372865  0.46791044  0.92391651  1  -1.182864  0  -0.320375  -0.565971  0  2.378131  0
O  O297  1  0.53208173  0.88628315  0.57608162  1  -1.182867  0  -0.320407  -0.565986  0  2.378055  0
O  O298  1  0.88629779  0.53208689  0.07608557  1  -1.18282  0  -0.32041  -0.566057  0  2.377782  0
O  O299  1  0.46791748  0.11373758  0.42391598  1  -1.183102  0  -0.320467  -0.566019  0  2.377943  0
O  O300  1  0.09542313  0.42864227  0.71201466  1  -1.102991  0  -0.138614  -0.200206  0  2.617519  0
O  O301  1  0.57136846  0.90457084  0.78797151  1  -1.102887  0  -0.138526  -0.200052  0  2.617197  0
O  O302  1  0.90456213  0.57137121  0.28797645  1  -1.102799  0  -0.138598  -0.200135  0  2.617504  0
O  O303  1  0.42864587  0.09543865  0.21201624  1  -1.102501  0  -0.138529  -0.200195  0  2.617313  0
O  O304  1  0.04684459  0.87044522  0.68031655  1  -1.174857  0  -0.317993  -0.554738  0  2.365943  0
O  O305  1  0.12956520  0.95312417  0.81970468  1  -1.175069  0  -0.318037  -0.55465  0  2.365685  0
O  O306  1  0.95314062  0.12956821  0.31969367  1  -1.175027  0  -0.317991  -0.554595  0  2.365711  0
O  O307  1  0.87045118  0.04684092  0.18029205  1  -1.174287  0  -0.318018  -0.554521  0  2.365828  0
O  O308  1  0.01144152  0.85218044  0.78800235  1  -1.17449  0  -0.313847  -0.55938  0  2.308281  0
O  O309  1  0.14782294  0.98853333  0.71200555  1  -1.17408  0  -0.313763  -0.559211  0  2.308913  0
O  O310  1  0.98853690  0.14781957  0.21200416  1  -1.17409  0  -0.313807  -0.559332  0  2.308444  0
O  O311  1  0.85218816  0.01146064  0.28799080  1  -1.173942  0  -0.313848  -0.559378  0  2.308645  0
O  O312  1  0.35025084  0.05716980  0.56582119  1  -1.173139  0  -0.317374  -0.547736  0  2.333383  0
O  O313  1  0.94282231  0.64972142  0.93417387  1  -1.173563  0  -0.317312  -0.547581  0  2.334167  0
O  O314  1  0.64973627  0.94282684  0.43417727  1  -1.173804  0  -0.317258  -0.547612  0  2.333922  0
O  O315  1  0.05718269  0.35025622  0.06580653  1  -1.173603  0  -0.317263  -0.547626  0  2.333736  0
O  O316  1  0.45633161  0.13301587  0.55621524  1  -1.181904  0  -0.313631  -0.55522  0  2.380031  0
O  O317  1  0.86698260  0.54367001  0.94378908  1  -1.181457  0  -0.313738  -0.555277  0  2.380034  0
O  O318  1  0.54366328  0.86696965  0.44379399  1  -1.181691  0  -0.31369  -0.555332  0  2.379681  0
O  O319  1  0.13300840  0.45634118  0.05621514  1  -1.181197  0  -0.313672  -0.555291  0  2.380124  0
O  O320  1  0.04031429  0.03960373  0.58528599  1  -1.161232  0  -0.297725  -0.43421  0  2.361395  0
O  O321  1  0.96037627  0.95969588  0.91472190  1  -1.161105  0  -0.297684  -0.43416  0  2.361361  0
O  O322  1  0.95969743  0.96038593  0.41472115  1  -1.161303  0  -0.297619  -0.434166  0  2.361511  0
O  O323  1  0.03961640  0.04028718  0.08528052  1  -1.161385  0  -0.297609  -0.434137  0  2.361366  0
