# generated using pymatgen
data_Cu2H13C14(NO3)2
_symmetry_space_group_name_H-M   'P 1'
_cell_length_a   12.62267523
_cell_length_b   12.91891054
_cell_length_c   13.97632592
_cell_angle_alpha   90.00042609
_cell_angle_beta   90.00057068
_cell_angle_gamma   114.34172600
_symmetry_Int_Tables_number   1
_chemical_formula_structural   Cu2H13C14(NO3)2
_chemical_formula_sum   'Cu8 H52 C56 N8 O24'
_cell_volume   2076.52881105
_cell_formula_units_Z   4
loop_
 _symmetry_equiv_pos_site_id
 _symmetry_equiv_pos_as_xyz
  1  'x, y, z'
loop_
 _atom_site_type_symbol
 _atom_site_label
 _atom_site_symmetry_multiplicity
 _atom_site_fract_x
 _atom_site_fract_y
 _atom_site_fract_z
 _atom_site_occupancy
 _atom_site_pbe_bader_charge
 _atom_site_pbe_bader_spin_density
 _atom_site_pbe_cm5_charge
 _atom_site_pbe_ddec_charge
 _atom_site_pbe_ddec_spin_density
 _atom_site_pbe_ddec_sum_bond_order
 _atom_site_pbe_magmom
Cu  Cu0  1  0.16125534  0.43186036  0.59682645  1  1.1507  0  0.768292  0.936261  0  2.444596  0
Cu  Cu1  1  0.51675629  0.08662204  0.92652793  1  1.104841  0  0.737141  0.911501  0  2.444812  0
Cu  Cu2  1  0.33875319  0.06816302  0.09686483  1  1.150926  0  0.768156  0.935861  0  2.44509  0
Cu  Cu3  1  0.98325342  0.41343151  0.42651347  1  1.10496  0  0.737019  0.911181  0  2.445286  0
Cu  Cu4  1  0.83876105  0.56817672  0.40313097  1  1.151131  0  0.76815  0.935754  0  2.444935  0
Cu  Cu5  1  0.48325739  0.91342944  0.07348530  1  1.104773  0  0.737009  0.911201  0  2.445233  0
Cu  Cu6  1  0.66126609  0.93186390  0.90318990  1  1.150686  0  0.768335  0.936412  0  2.444315  0
Cu  Cu7  1  0.01675408  0.58661654  0.57347973  1  1.104801  0  0.737087  0.911495  0  2.444822  0
H  H8  1  0.53672592  0.05014123  0.72471305  1  0.110273  0  0.120145  0.087722  0  0.997535  0
H  H9  1  0.69607790  0.12284227  0.59945005  1  0.105994  0  0.112153  0.119232  0  0.995575  0
H  H10  1  0.91943517  0.34100736  0.81531827  1  0.114626  0  0.109306  0.11481  0  1.005944  0
H  H11  1  0.75220006  0.25829878  0.93247105  1  0.122425  0  0.124083  0.100885  0  1.004824  0
H  H12  1  0.32440991  0.32469936  0.58711968  1  0.118675  0  0.122199  0.090815  0  1.020977  0
H  H13  1  0.40781796  0.22636030  0.70178790  1  0.112369  0  0.113213  0.124981  0  0.99875  0
H  H14  1  0.21526586  0.29770713  0.92683213  1  0.101261  0  0.113411  0.122541  0  0.996905  0
H  H15  1  0.13445109  0.38736140  0.80236804  1  0.121  0  0.117475  0.085272  0  1.015789  0
H  H16  1  0.40458072  0.60606037  0.34974819  1  0.013985  0  0.078477  0.10768  0  1.023994  0
H  H17  1  0.35507931  0.68832727  0.42590131  1  -0.021245  0  0.075868  0.10728  0  1.030639  0
H  H18  1  0.25625036  0.55206243  0.38735379  1  0.056479  0  0.082499  0.127923  0  1.035597  0
H  H19  1  0.37199794  0.46400686  0.47908984  1  -0.00465  0  0.080956  0.026633  0  1.027073  0
H  H20  1  0.46810231  0.59983302  0.51848879  1  0.026856  0  0.089367  0.050272  0  0.970726  0
H  H21  1  0.96325863  0.44989732  0.22470010  1  0.110221  0  0.120217  0.087958  0  0.997399  0
H  H22  1  0.80389312  0.37716721  0.09944877  1  0.105136  0  0.112073  0.119084  0  0.995747  0
H  H23  1  0.58059837  0.15896582  0.31532206  1  0.110886  0  0.109309  0.114854  0  1.005789  0
H  H24  1  0.74784787  0.24171520  0.43246332  1  0.122742  0  0.124069  0.100956  0  1.004928  0
H  H25  1  0.17559562  0.17532470  0.08713874  1  0.119006  0  0.122166  0.090778  0  1.020977  0
H  H26  1  0.09214463  0.27364321  0.20180046  1  0.112266  0  0.113217  0.12497  0  0.998515  0
H  H27  1  0.28469485  0.20231244  0.42685736  1  0.101055  0  0.113517  0.122485  0  0.996911  0
H  H28  1  0.36553296  0.11266237  0.30240553  1  0.121479  0  0.117528  0.085501  0  1.015512  0
H  H29  1  0.09539978  0.89387173  0.84987066  1  0.014658  0  0.078432  0.107719  0  1.02402  0
H  H30  1  0.14495521  0.81162405  0.92600792  1  -0.022154  0  0.075835  0.107182  0  1.030761  0
H  H31  1  0.24372460  0.94790666  0.88745435  1  0.057834  0  0.082337  0.127659  0  1.035885  0
H  H32  1  0.12795464  0.03590069  0.97922514  1  -0.003935  0  0.081153  0.026946  0  1.026544  0
H  H33  1  0.03189297  0.90005607  0.01863764  1  0.024753  0  0.089312  0.050302  0  0.970764  0
H  H34  1  0.46327544  0.94988645  0.27529302  1  0.110158  0  0.120154  0.087817  0  0.997508  0
H  H35  1  0.30392894  0.87718713  0.40056032  1  0.10536  0  0.1121  0.11918  0  0.995739  0
H  H36  1  0.08059646  0.65897894  0.18468066  1  0.111019  0  0.109293  0.114804  0  1.005699  0
H  H37  1  0.24783930  0.74171553  0.06753431  1  0.122707  0  0.124127  0.100998  0  1.004894  0
H  H38  1  0.67559531  0.67531477  0.41284705  1  0.118858  0  0.122182  0.090854  0  1.020949  0
H  H39  1  0.59214009  0.77362053  0.29818026  1  0.112285  0  0.113279  0.125029  0  0.998547  0
H  H40  1  0.78470071  0.70230172  0.07312100  1  0.100625  0  0.113478  0.122562  0  0.997096  0
H  H41  1  0.86554250  0.61266285  0.19758008  1  0.121806  0  0.117496  0.085495  0  1.01555  0
H  H42  1  0.59540089  0.39383834  0.65010620  1  0.015153  0  0.078506  0.107853  0  1.024194  0
H  H43  1  0.64497285  0.31160572  0.57396381  1  -0.022559  0  0.075886  0.107419  0  1.030729  0
H  H44  1  0.74373284  0.44788377  0.61252994  1  0.057524  0  0.08235  0.127905  0  1.035723  0
H  H45  1  0.62793227  0.53586361  0.52076312  1  -0.003418  0  0.08119  0.027025  0  1.026569  0
H  H46  1  0.53189939  0.40001323  0.48133627  1  0.025305  0  0.089404  0.050468  0  0.9707  0
H  H47  1  0.03673173  0.55013624  0.77530097  1  0.110255  0  0.120195  0.087847  0  0.997495  0
H  H48  1  0.19609525  0.62284259  0.90056160  1  0.105748  0  0.112052  0.119093  0  0.995833  0
H  H49  1  0.41943752  0.84099083  0.68467901  1  0.114765  0  0.109325  0.114783  0  1.005811  0
H  H50  1  0.25219302  0.75826859  0.56753632  1  0.122812  0  0.12409  0.100914  0  1.004981  0
H  H51  1  0.82445537  0.82472697  0.91288594  1  0.118525  0  0.122193  0.090762  0  1.021069  0
H  H52  1  0.90785826  0.72639380  0.79820991  1  0.112602  0  0.113211  0.124955  0  0.998724  0
H  H53  1  0.71523609  0.79770216  0.57318807  1  0.100904  0  0.113378  0.122498  0  0.997071  0
H  H54  1  0.63442442  0.88733965  0.69766995  1  0.121238  0  0.117439  0.085164  0  1.01587  0
H  H55  1  0.90458334  0.10607617  0.15026277  1  0.018183  0  0.07841  0.107622  0  1.024018  0
H  H56  1  0.85507850  0.18834445  0.07410691  1  -0.021063  0  0.075888  0.107306  0  1.03049  0
H  H57  1  0.75625233  0.05207766  0.11264546  1  0.056638  0  0.082487  0.127935  0  1.035515  0
H  H58  1  0.87201414  0.96402424  0.02091330  1  -0.004576  0  0.080993  0.026737  0  1.027038  0
H  H59  1  0.96810720  0.09986054  0.98151797  1  0.026436  0  0.089332  0.050377  0  0.970825  0
C  C60  1  0.62323993  0.11469200  0.74086812  1  0.419572  0  0.046865  0.072539  0  3.975591  0
C  C61  1  0.71051262  0.15486621  0.67254025  1  0.022516  0  -0.074988  -0.140791  0  3.963414  0
C  C62  1  0.81931243  0.23813443  0.69849849  1  -0.035405  0  0.013376  0.039078  0  3.894048  0
C  C63  1  0.83558159  0.27699408  0.79278313  1  -0.036064  0  -0.071035  -0.121202  0  3.914314  0
C  C64  1  0.74485186  0.23196907  0.85789983  1  0.558807  0  0.062104  0.119084  0  3.908914  0
C  C65  1  0.91583439  0.28389269  0.62530388  1  1.601861  0  0.212536  0.583637  0  4.188523  0
C  C66  1  0.30284743  0.31616021  0.66295136  1  0.448261  0  0.057771  0.103282  0  3.916704  0
C  C67  1  0.34823163  0.26212734  0.72640081  1  0.000927  0  -0.073067  -0.136131  0  3.927508  0
C  C68  1  0.31624635  0.25380199  0.82284730  1  0.0046  0  0.010579  0.030936  0  3.911927  0
C  C69  1  0.24016662  0.30139810  0.85191700  1  0.048473  0  -0.073188  -0.13457  0  3.93691  0
C  C70  1  0.19662263  0.35209003  0.78399927  1  0.412321  0  0.050872  0.094737  0  3.938507  0
C  C71  1  0.36119927  0.19424298  0.89471740  1  1.599554  0  0.217168  0.593353  0  4.175691  0
C  C72  1  0.34635916  0.60195528  0.40969714  1  -0.052038  0  -0.263765  -0.403034  0  3.957358  0
C  C73  1  0.37594114  0.54916838  0.49765225  1  0.525145  0  -0.091648  0.13566  0  4.046333  0
C  C74  1  0.87676499  0.38533417  0.24086468  1  0.419668  0  0.046625  0.071974  0  3.975747  0
C  C75  1  0.78948835  0.34515044  0.17253861  1  0.023042  0  -0.074786  -0.140512  0  3.963545  0
C  C76  1  0.68070194  0.26186997  0.19850318  1  -0.033199  0  0.013301  0.039223  0  3.893996  0
C  C77  1  0.66444181  0.22299905  0.29278311  1  -0.035017  0  -0.070976  -0.121189  0  3.914213  0
C  C78  1  0.75517043  0.26804622  0.35789735  1  0.559453  0  0.062018  0.118805  0  3.909152  0
C  C79  1  0.58416382  0.21612240  0.12532527  1  1.602011  0  0.212518  0.583365  0  4.188757  0
C  C80  1  0.19714423  0.18385898  0.16297639  1  0.44786  0  0.057912  0.103397  0  3.91687  0
C  C81  1  0.15174119  0.23787913  0.22641652  1  0.001074  0  -0.073016  -0.136225  0  3.927387  0
C  C82  1  0.18372739  0.24622119  0.32286621  1  0.003593  0  0.010598  0.031053  0  3.912  0
C  C83  1  0.25980816  0.19863059  0.35194198  1  0.04926  0  -0.073234  -0.134549  0  3.937203  0
C  C84  1  0.30335377  0.14792919  0.28403717  1  0.41186  0  0.050839  0.094475  0  3.938581  0
C  C85  1  0.13877669  0.30577788  0.39472631  1  1.599072  0  0.216872  0.592948  0  4.176214  0
C  C86  1  0.15363017  0.89798878  0.90981874  1  -0.05427  0  -0.263625  -0.402848  0  3.957944  0
C  C87  1  0.12404516  0.95074900  0.99778540  1  0.528607  0  -0.091933  0.13519  0  4.046687  0
C  C88  1  0.37677325  0.88532980  0.25914010  1  0.419454  0  0.046657  0.072139  0  3.975584  0
C  C89  1  0.28950047  0.84515729  0.32747155  1  0.022701  0  -0.074836  -0.140657  0  3.96346  0
C  C90  1  0.18071105  0.76187980  0.30150115  1  -0.031605  0  0.013424  0.039308  0  3.894208  0
C  C91  1  0.16444585  0.72301254  0.20721865  1  -0.035907  0  -0.070988  -0.1212  0  3.914094  0
C  C92  1  0.25516970  0.76805193  0.14210338  1  0.558543  0  0.061911  0.118784  0  3.909289  0
C  C93  1  0.08418181  0.71614015  0.37467787  1  1.601172  0  0.212677  0.583643  0  4.188723  0
C  C94  1  0.69714578  0.68384793  0.33701036  1  0.449103  0  0.057677  0.102931  0  3.917015  0
C  C95  1  0.65173818  0.73786457  0.27356592  1  0.000921  0  -0.072998  -0.136171  0  3.927135  0
C  C96  1  0.68373267  0.74621201  0.17711728  1  0.003044  0  0.010633  0.031409  0  3.911627  0
C  C97  1  0.75980878  0.69861672  0.14804114  1  0.048988  0  -0.073283  -0.134891  0  3.9375  0
C  C98  1  0.80336230  0.64792485  0.21594670  1  0.412035  0  0.050959  0.094504  0  3.938341  0
C  C99  1  0.63878063  0.80576933  0.10525935  1  1.598857  0  0.216894  0.592834  0  4.175808  0
C  C100  1  0.65363668  0.39796046  0.59015868  1  -0.053687  0  -0.263714  -0.403502  0  3.958389  0
C  C101  1  0.62404133  0.45072101  0.50219641  1  0.527117  0  -0.092137  0.134898  0  4.047056  0
C  C102  1  0.12324315  0.61468507  0.75914926  1  0.419652  0  0.046749  0.0724  0  3.975378  0
C  C103  1  0.21052780  0.65485951  0.82747032  1  0.022168  0  -0.074893  -0.140619  0  3.963498  0
C  C104  1  0.31932362  0.73812647  0.80150290  1  -0.035144  0  0.013243  0.038807  0  3.894152  0
C  C105  1  0.33558416  0.77698128  0.70721581  1  -0.036648  0  -0.070995  -0.121031  0  3.914231  0
C  C106  1  0.24484824  0.73194509  0.64210801  1  0.558833  0  0.061958  0.118921  0  3.90959  0
C  C107  1  0.41584238  0.78389597  0.87470227  1  1.601007  0  0.212634  0.583842  0  4.188437  0
C  C108  1  0.80287384  0.81618404  0.83705830  1  0.448507  0  0.057781  0.10328  0  3.916865  0
C  C109  1  0.84826089  0.76215024  0.77360602  1  -0.000123  0  -0.072982  -0.136014  0  3.927373  0
C  C110  1  0.81625716  0.75381743  0.67716133  1  0.004869  0  0.010452  0.030691  0  3.91223  0
C  C111  1  0.74016684  0.80140034  0.64809772  1  0.002632  0  -0.073115  -0.134461  0  3.93702  0
C  C112  1  0.69661819  0.85208308  0.71601756  1  0.458185  0  0.050752  0.094698  0  3.938379  0
C  C113  1  0.86120574  0.69426326  0.60528406  1  1.600657  0  0.217148  0.593357  0  4.175514  0
C  C114  1  0.84636224  0.10197188  0.09030826  1  -0.056815  0  -0.263744  -0.403008  0  3.957147  0
C  C115  1  0.87595478  0.04918796  0.00235519  1  0.526535  0  -0.091714  0.135312  0  4.046722  0
N  N116  1  0.64058431  0.15274159  0.83179924  1  -1.222665  0  -0.353398  -0.228398  0  3.663221  0
N  N117  1  0.22711300  0.35866730  0.69128050  1  -1.189897  0  -0.335298  -0.203539  0  3.601326  0
N  N118  1  0.85943340  0.34728430  0.33179466  1  -1.222897  0  -0.353191  -0.227939  0  3.662893  0
N  N119  1  0.27287379  0.14135652  0.19131450  1  -1.189245  0  -0.335273  -0.203217  0  3.601337  0
N  N120  1  0.35943637  0.84728110  0.16820970  1  -1.221973  0  -0.353136  -0.227982  0  3.662881  0
N  N121  1  0.77288164  0.64135187  0.30867048  1  -1.189446  0  -0.33517  -0.202873  0  3.601081  0
N  N122  1  0.14058161  0.65272479  0.66821570  1  -1.22226  0  -0.353178  -0.228304  0  3.663141  0
N  N123  1  0.72712299  0.85866774  0.80873021  1  -1.189599  0  -0.335213  -0.203344  0  3.60128  0
O  O124  1  0.01393515  0.35171616  0.66236206  1  -1.115913  0  -0.324323  -0.582236  0  2.448731  0
O  O125  1  0.89477510  0.25485104  0.53988639  1  -1.157718  0  -0.311589  -0.550069  0  2.197333  0
O  O126  1  0.33542992  0.19602330  0.98095240  1  -1.162029  0  -0.309632  -0.567058  0  2.269967  0
O  O127  1  0.42221167  0.14579137  0.85695936  1  -1.112089  0  -0.330431  -0.55814  0  2.388208  0
O  O128  1  0.09296427  0.50240622  0.51688121  1  -0.82362  0  -0.521862  -0.754831  0  2.208097  0
O  O129  1  0.31092677  0.54604003  0.57947889  1  -0.968221  0  -0.381609  -0.506074  0  2.199763  0
O  O130  1  0.48606916  0.14832004  0.16240301  1  -1.116249  0  -0.3244  -0.581985  0  2.448795  0
O  O131  1  0.60519114  0.24514481  0.03990101  1  -1.157308  0  -0.311592  -0.550107  0  2.197606  0
O  O132  1  0.16450114  0.30395792  0.48097011  1  -1.162207  0  -0.309557  -0.566835  0  2.270241  0
O  O133  1  0.07780002  0.35425539  0.35695662  1  -1.111938  0  -0.330241  -0.557987  0  2.388556  0
O  O134  1  0.40705558  0.99764999  0.01690457  1  -0.823575  0  -0.521947  -0.754806  0  2.208509  0
O  O135  1  0.18909848  0.95392304  0.07959518  1  -0.969321  0  -0.38126  -0.505682  0  2.200605  0
O  O136  1  0.98608480  0.64833705  0.33760109  1  -1.115892  0  -0.324511  -0.582148  0  2.448725  0
O  O137  1  0.10522008  0.74517322  0.46010395  1  -1.157393  0  -0.311649  -0.550241  0  2.197263  0
O  O138  1  0.66450501  0.80395910  0.01902005  1  -1.162307  0  -0.309558  -0.566801  0  2.270344  0
O  O139  1  0.57780162  0.85424400  0.14303527  1  -1.111496  0  -0.330293  -0.558027  0  2.388108  0
O  O140  1  0.90705534  0.49765376  0.48309553  1  -0.823663  0  -0.521891  -0.754724  0  2.208447  0
O  O141  1  0.68910886  0.45392170  0.42038909  1  -0.969274  0  -0.381258  -0.505624  0  2.200638  0
O  O142  1  0.51394124  0.85172549  0.83765028  1  -1.115786  0  -0.324326  -0.582285  0  2.448752  0
O  O143  1  0.39478042  0.75484371  0.96011866  1  -1.156998  0  -0.311658  -0.550162  0  2.197147  0
O  O144  1  0.83543685  0.69605078  0.51905171  1  -1.16193  0  -0.309484  -0.566919  0  2.269787  0
O  O145  1  0.92221597  0.64580542  0.64304016  1  -1.113162  0  -0.330478  -0.558188  0  2.38795  0
O  O146  1  0.59296544  0.00241340  0.98312511  1  -0.823602  0  -0.52183  -0.754829  0  2.208113  0
O  O147  1  0.81093543  0.04605733  0.92052681  1  -0.969023  0  -0.381549  -0.506048  0  2.199766  0
