# generated using pymatgen
data_Zn4CoH27C42(N3O)6
_symmetry_space_group_name_H-M   'P 1'
_cell_length_a   17.60045863
_cell_length_b   17.60043468
_cell_length_c   19.57223894
_cell_angle_alpha   89.99975422
_cell_angle_beta   90.00051997
_cell_angle_gamma   119.99968566
_symmetry_Int_Tables_number   1
_chemical_formula_structural   Zn4CoH27C42(N3O)6
_chemical_formula_sum   'Zn8 Co2 H54 C84 N36 O12'
_cell_volume   5250.73251340
_cell_formula_units_Z   2
loop_
 _symmetry_equiv_pos_site_id
 _symmetry_equiv_pos_as_xyz
  1  'x, y, z'
loop_
 _atom_site_type_symbol
 _atom_site_label
 _atom_site_symmetry_multiplicity
 _atom_site_fract_x
 _atom_site_fract_y
 _atom_site_fract_z
 _atom_site_occupancy
 _atom_site_pbe_bader_charge
 _atom_site_pbe_bader_spin_density
 _atom_site_pbe_cm5_charge
 _atom_site_pbe_ddec_charge
 _atom_site_pbe_ddec_spin_density
 _atom_site_pbe_ddec_sum_bond_order
 _atom_site_pbe_magmom
Zn  Zn0  1  0.87393264  0.50609745  0.32436458  1  1.242476  -4.9e-05  0.710758  0.673812  -1.5e-05  2.447177  0.0
Zn  Zn1  1  0.63216189  0.12606743  0.32436739  1  1.243428  -4.9e-05  0.710708  0.673797  -1.5e-05  2.447177  0.0
Zn  Zn2  1  0.49390624  0.36783639  0.32436482  1  1.241855  -4.9e-05  0.710765  0.673832  -1.5e-05  2.447228  0.0
Zn  Zn3  1  0.36783908  0.49390348  0.67563046  1  1.241902  -4.9e-05  0.710742  0.673827  -1.5e-05  2.447126  0.0
Zn  Zn4  1  0.50609702  0.87393707  0.67562825  1  1.242451  -4.9e-05  0.710724  0.673793  -1.5e-05  2.447103  0.0
Zn  Zn5  1  0.12606603  0.63216084  0.67563022  1  1.243284  -4.9e-05  0.710696  0.673735  -1.5e-05  2.447271  0.0
Zn  Zn6  1  0.66666941  0.33333547  0.25957025  1  1.265416  -8e-05  0.699913  0.449749  -0.002259  2.594896  0.001
Zn  Zn7  1  0.33333463  0.66666915  0.74042584  1  1.265386  -8.1e-05  0.699922  0.449629  -0.002261  2.595023  0.001
Co  Co8  1  0.66666627  0.33333316  0.08932095  1  0.765407  1.868681  0.537796  0.314954  1.981322  2.487455  1.773
Co  Co9  1  0.33333607  0.66666975  0.91067054  1  0.765209  1.868759  0.537741  0.314963  1.981386  2.487403  1.773
H  H10  1  0.13245655  0.64247649  0.43315567  1  0.066363  -1e-06  0.106012  0.163615  -1e-06  0.970981  0.0
H  H11  1  0.09859604  0.71805987  0.45324302  1  0.071783  -0.0  0.096778  0.153999  -0.0  1.015267  0.0
H  H12  1  0.14596070  0.72177045  0.37033036  1  0.050618  0.0  0.095511  0.14678  1e-06  0.992606  0.0
H  H13  1  0.54400402  0.52772736  0.44061508  1  0.144047  -0.0  0.110631  0.129343  -0.0  1.020129  0.0
H  H14  1  0.80400621  0.72600822  0.50500032  1  0.045913  -0.0  0.102727  0.103326  -0.0  1.001585  0.0
H  H15  1  0.87364799  0.66192479  0.43143276  1  0.085126  -1e-06  0.110602  0.127164  -0.0  1.008803  0.0
H  H16  1  0.85327322  0.46855875  0.99608690  1  0.080067  0.00089  0.103366  0.107673  0.000216  1.022505  0.0
H  H17  1  0.03268161  0.62759471  0.20433885  1  0.13916  0.000441  0.109331  0.134284  0.000184  1.011969  0.0
H  H18  1  0.09575392  0.66817317  0.08687112  1  0.075018  1.4e-05  0.101173  0.102927  -3.4e-05  1.004301  0.0
H  H19  1  0.51002059  0.86754523  0.43315269  1  0.068901  -1e-06  0.105994  0.163604  -1e-06  0.970987  0.0
H  H20  1  0.61946518  0.90140200  0.45323918  1  0.073107  -0.0  0.096784  0.154037  -0.0  1.015257  0.0
H  H21  1  0.57580565  0.85403542  0.37032727  1  0.051764  0.0  0.095532  0.146834  1e-06  0.992582  0.0
H  H22  1  0.98372614  0.45599573  0.44061498  1  0.085003  -1e-06  0.1107  0.129438  -0.0  1.020055  0.0
H  H23  1  0.92200234  0.19599180  0.50499979  1  0.04668  -0.0  0.102751  0.103361  -0.0  1.001568  0.0
H  H24  1  0.78827437  0.12635173  0.43143447  1  0.100653  -0.0  0.1106  0.127168  -0.0  1.008804  0.0
H  H25  1  0.61529026  0.14673118  0.99608961  1  0.067042  0.000873  0.103369  0.107672  0.000216  1.022489  0.0
H  H26  1  0.59491556  0.96731964  0.20433999  1  0.133109  0.000441  0.109329  0.134335  0.000184  1.011905  0.0
H  H27  1  0.57242509  0.90424951  0.08687211  1  0.077773  1.4e-05  0.101181  0.102937  -3.4e-05  1.004258  0.0
H  H28  1  0.35752664  0.48998098  0.43315484  1  0.068848  -1e-06  0.106001  0.163619  -1e-06  0.970987  0.0
H  H29  1  0.28194412  0.38053618  0.45324034  1  0.091245  -0.0  0.096783  0.154035  -0.0  1.015303  0.0
H  H30  1  0.27823446  0.42419085  0.37032790  1  0.059436  0.0  0.09551  0.146761  1e-06  0.99261  0.0
H  H31  1  0.47226043  0.01627088  0.44061271  1  0.092646  -1e-06  0.110672  0.129371  -0.0  1.02001  0.0
H  H32  1  0.27398927  0.07800481  0.50499736  1  0.050954  -0.0  0.102786  0.103347  -0.0  1.001464  0.0
H  H33  1  0.33807669  0.21172931  0.43142939  1  0.095239  -1e-06  0.110594  0.127069  -0.0  1.008877  0.0
H  H34  1  0.53143539  0.38470344  0.99608829  1  0.067301  0.000876  0.103376  0.107667  0.000216  1.022393  0.0
H  H35  1  0.37240499  0.40508749  0.20433761  1  0.134142  0.000441  0.109322  0.134323  0.000184  1.011972  0.0
H  H36  1  0.33181927  0.42756980  0.08686898  1  0.075013  1.4e-05  0.101184  0.102977  -3.3e-05  1.004223  0.0
H  H37  1  0.48997886  0.35751774  0.56684858  1  0.0693  -1e-06  0.106005  0.163616  -1e-06  0.971004  0.0
H  H38  1  0.38053352  0.28193451  0.54676115  1  0.091519  -0.0  0.096747  0.154015  -0.0  1.015283  0.0
H  H39  1  0.42419042  0.27822450  0.62967418  1  0.059239  0.0  0.09552  0.146862  1e-06  0.992663  0.0
H  H40  1  0.01626987  0.47226217  0.55939248  1  0.092369  -1e-06  0.110631  0.129333  -0.0  1.020083  0.0
H  H41  1  0.07800048  0.27398952  0.49500345  1  0.050953  -0.0  0.102748  0.103341  -0.0  1.001475  0.0
H  H42  1  0.21172408  0.33807163  0.56857441  1  0.095206  -1e-06  0.110618  0.127135  -0.0  1.008759  0.0
H  H43  1  0.38470534  0.53143319  0.00390710  1  0.067439  0.000875  0.10336  0.107659  0.000215  1.022452  0.0
H  H44  1  0.40508965  0.37240359  0.79565851  1  0.133952  0.000441  0.109312  0.134277  0.000184  1.011978  0.0
H  H45  1  0.42757421  0.33182011  0.91312505  1  0.075004  1.4e-05  0.10118  0.102952  -3.4e-05  1.004283  0.0
H  H46  1  0.64248254  0.13246232  0.56685168  1  0.06644  -1e-06  0.106009  0.163634  -1e-06  0.970992  0.0
H  H47  1  0.71806436  0.09859831  0.54676545  1  0.072167  -0.0  0.096724  0.153998  -0.0  1.015285  0.0
H  H48  1  0.72177921  0.14596992  0.62967617  1  0.050503  0.0  0.095496  0.146805  1e-06  0.992679  0.0
H  H49  1  0.52773194  0.54400466  0.55938985  1  0.144068  -0.0  0.110695  0.129445  -0.0  1.020047  0.0
H  H50  1  0.72600956  0.80400729  0.49500457  1  0.04635  -0.0  0.102713  0.103303  -0.0  1.00156  0.0
H  H51  1  0.66192891  0.87364858  0.56857471  1  0.085124  -1e-06  0.110613  0.127145  -0.0  1.008837  0.0
H  H52  1  0.46855881  0.85327350  0.00390529  1  0.080077  0.000889  0.103401  0.107714  0.000215  1.022416  0.0
H  H53  1  0.62759895  0.03269137  0.79566110  1  0.138857  0.000441  0.109329  0.134289  0.000184  1.011998  0.0
H  H54  1  0.66817863  0.09575581  0.91312906  1  0.074643  1.4e-05  0.101198  0.102941  -3.3e-05  1.004332  0.0
H  H55  1  0.86754221  0.51001652  0.56684830  1  0.068841  -1e-06  0.106017  0.163594  -1e-06  0.970999  0.0
H  H56  1  0.90139916  0.61946208  0.54676366  1  0.074042  -0.0  0.096713  0.153962  -0.0  1.015314  0.0
H  H57  1  0.85403584  0.57580245  0.62967537  1  0.051668  0.0  0.095514  0.146759  1e-06  0.992652  0.0
H  H58  1  0.45598827  0.98372884  0.55939023  1  0.085106  -1e-06  0.110676  0.129384  -0.0  1.020123  0.0
H  H59  1  0.19598767  0.92200611  0.49500217  1  0.046581  -0.0  0.102812  0.103423  -0.0  1.001385  0.0
H  H60  1  0.12634767  0.78827868  0.56856705  1  0.100557  -0.0  0.110601  0.127074  -0.0  1.008847  0.0
H  H61  1  0.14673000  0.61528747  0.00390545  1  0.067008  0.000872  0.103406  0.107726  0.000215  1.022491  0.0
H  H62  1  0.96731220  0.59490921  0.79565936  1  0.133037  0.000441  0.109343  0.134297  0.000184  1.011982  0.0
H  H63  1  0.90424619  0.57242279  0.91312603  1  0.077706  1.4e-05  0.101196  0.102953  -3.4e-05  1.004287  0.0
C  C64  1  0.01329055  0.61529677  0.38467432  1  1.532836  -9e-06  0.193738  0.66045  -1.2e-05  4.148972  0.0
C  C65  1  0.10325592  0.67957913  0.41124076  1  -0.082772  0.0  -0.241962  -0.510989  -0.0  3.912245  0.0
C  C66  1  0.65483420  0.52320268  0.39616790  1  0.424838  6e-06  0.098474  0.138319  -1e-06  4.062088  0.0
C  C67  1  0.74705924  0.56034070  0.39332387  1  0.326458  5e-06  0.098507  0.13333  -2e-06  4.04108  0.0
C  C68  1  0.61508181  0.55802031  0.43810308  1  -0.006735  -1.1e-05  -0.085252  -0.199254  -1.2e-05  3.926616  0.0
C  C69  1  0.76318382  0.66952766  0.47269379  1  0.01577  -1.2e-05  -0.089576  -0.132742  -1.3e-05  3.989581  0.0
C  C70  1  0.80292129  0.63510449  0.43208395  1  0.058275  -1.6e-05  -0.086253  -0.142313  -1.7e-05  3.988722  0.0
C  C71  1  0.67008887  0.63178346  0.47674463  1  -0.080426  -1.6e-05  -0.007476  0.071067  -1.7e-05  4.013314  0.0
C  C72  1  0.90663545  0.52646377  0.16516827  1  0.388182  0.002991  0.097591  0.138632  0.001166  4.044876  0.002
C  C73  1  0.85629914  0.48336737  0.10648554  1  0.387627  0.00864  0.090081  0.125438  0.006655  4.073355  0.008
C  C74  1  0.89158409  0.50490420  0.04049575  1  -0.014003  0.00113  -0.09302  -0.212233  0.000635  3.970755  0.0
C  C75  1  0.97886381  0.57104366  0.03398472  1  -0.069349  -0.002607  -0.011272  0.070342  -0.002902  4.010944  -0.002
C  C76  1  0.99441604  0.59437162  0.15906138  1  -0.071512  -0.001121  -0.086832  -0.142892  -0.001328  3.969191  -0.001
C  C77  1  0.02833670  0.61516566  0.09366577  1  0.025431  0.000869  -0.092948  -0.133709  0.000283  3.989457  0.001
C  C78  1  0.60200633  0.98670745  0.38466937  1  1.515363  -9e-06  0.193717  0.660595  -1.2e-05  4.148948  0.0
C  C79  1  0.57632411  0.89674321  0.41123769  1  -0.074642  0.0  -0.241955  -0.51111  -0.0  3.912278  0.0
C  C80  1  0.86837026  0.34516615  0.39616708  1  0.378384  6e-06  0.098402  0.138178  -1e-06  4.061996  0.0
C  C81  1  0.81328188  0.25294186  0.39332474  1  0.396029  5e-06  0.098534  0.133397  -2e-06  4.041089  0.0
C  C82  1  0.94294150  0.38491664  0.43810374  1  0.039504  -1.1e-05  -0.085232  -0.199263  -1.2e-05  3.926526  0.0
C  C83  1  0.90634393  0.23681413  0.47269369  1  -0.068598  -1.2e-05  -0.089629  -0.1328  -1.3e-05  3.989592  0.0
C  C84  1  0.83218233  0.19707899  0.43208390  1  0.058655  -1.6e-05  -0.086203  -0.142278  -1.7e-05  3.988666  0.0
C  C85  1  0.96169502  0.32990864  0.47674437  1  0.014493  -1.6e-05  -0.007522  0.071025  -1.7e-05  4.013395  0.0
C  C86  1  0.61983181  0.09336732  0.16517049  1  0.366143  0.002986  0.097586  0.138729  0.001166  4.044841  0.002
C  C87  1  0.62707038  0.14370176  0.10648781  1  0.395396  0.008607  0.090065  0.125393  0.006656  4.073201  0.008
C  C88  1  0.61332432  0.10841937  0.04049742  1  -0.013748  0.001157  -0.092992  -0.212128  0.000635  3.97049  0.0
C  C89  1  0.59218387  0.02113910  0.03398624  1  -0.006665  -0.00258  -0.011263  0.07035  -0.002903  4.01084  -0.002
C  C90  1  0.59996014  0.00558642  0.15906244  1  0.007659  -0.001135  -0.086779  -0.142993  -0.001329  3.969181  -0.001
C  C91  1  0.58683443  0.97166622  0.09366686  1  -0.028039  0.000868  -0.092986  -0.133693  0.000283  3.989402  0.001
C  C92  1  0.38470845  0.39799615  0.38467473  1  1.516641  -9e-06  0.193658  0.660439  -1.2e-05  4.149037  0.0
C  C93  1  0.32042368  0.42367667  0.41123960  1  -0.100018  0.0  -0.241941  -0.511012  -0.0  3.912288  0.0
C  C94  1  0.47679165  0.13162801  0.39616537  1  0.356194  6e-06  0.098492  0.138346  -1e-06  4.061904  0.0
C  C95  1  0.43965614  0.18671877  0.39332180  1  0.395769  5e-06  0.098469  0.133323  -2e-06  4.041109  0.0
C  C96  1  0.44197116  0.05705765  0.43810283  1  0.107861  -1.1e-05  -0.085239  -0.199256  -1.2e-05  3.926427  0.0
C  C97  1  0.33046942  0.09366089  0.47269109  1  -0.030628  -1.2e-05  -0.089683  -0.132828  -1.3e-05  3.989436  0.0
C  C98  1  0.36489421  0.16782244  0.43207949  1  0.022233  -1.6e-05  -0.086122  -0.142043  -1.7e-05  3.98865  0.0
C  C99  1  0.36820927  0.03830783  0.47674199  1  -0.038216  -1.6e-05  -0.007584  0.070945  -1.7e-05  4.013425  0.0
C  C100  1  0.47353768  0.38017144  0.16516882  1  0.412047  0.002955  0.097573  0.138651  0.001166  4.044778  0.002
C  C101  1  0.51663200  0.37293020  0.10648692  1  0.357923  0.00864  0.090063  0.125438  0.006655  4.073137  0.008
C  C102  1  0.49509171  0.38667270  0.04049588  1  0.006177  0.001145  -0.092969  -0.212112  0.000635  3.970262  0.0
C  C103  1  0.42895177  0.40781294  0.03398380  1  -0.008201  -0.00258  -0.011314  0.070279  -0.002903  4.01077  -0.002
C  C104  1  0.40562705  0.40004156  0.15906087  1  -0.024016  -0.001126  -0.086786  -0.142944  -0.001328  3.969175  -0.001
C  C105  1  0.38482830  0.41316296  0.09366559  1  -0.021515  0.000869  -0.092989  -0.133761  0.000283  3.989315  0.001
C  C106  1  0.39799660  0.38470010  0.61533264  1  1.515801  -9e-06  0.193723  0.660627  -1.2e-05  4.148861  0.0
C  C107  1  0.42367532  0.32041546  0.58876360  1  -0.100409  0.0  -0.241939  -0.511167  -0.0  3.912348  0.0
C  C108  1  0.13162754  0.47679074  0.60383855  1  0.356453  6e-06  0.098529  0.138367  -1e-06  4.062096  0.0
C  C109  1  0.18671582  0.43965409  0.60668268  1  0.395913  5e-06  0.098493  0.133384  -2e-06  4.041146  0.0
C  C110  1  0.05705689  0.44197248  0.56190341  1  0.107883  -1.1e-05  -0.085325  -0.199454  -1.2e-05  3.926599  0.0
C  C111  1  0.09365628  0.33046814  0.52731090  1  -0.030694  -1.2e-05  -0.08967  -0.132843  -1.3e-05  3.989584  0.0
C  C112  1  0.16781510  0.36489031  0.56792274  1  0.021889  -1.6e-05  -0.08617  -0.142168  -1.7e-05  3.988631  0.0
C  C113  1  0.03830364  0.36821233  0.52325946  1  -0.080397  -1.6e-05  -0.007496  0.071133  -1.7e-05  4.013257  0.0
C  C114  1  0.38017305  0.47353645  0.83482491  1  0.412125  0.002955  0.097579  0.138603  0.001166  4.044987  0.002
C  C115  1  0.37293136  0.51662971  0.89350791  1  0.357797  0.008639  0.09008  0.125506  0.006652  4.073249  0.008
C  C116  1  0.38667474  0.49509028  0.95949995  1  0.006015  0.001146  -0.092993  -0.21213  0.000636  3.970376  0.0
C  C117  1  0.40781411  0.42894878  0.96600887  1  -0.05381  -0.002608  -0.011276  0.070327  -0.002903  4.010999  -0.002
C  C118  1  0.40004328  0.40562327  0.84093326  1  -0.024185  -0.001127  -0.086782  -0.142806  -0.00133  3.969065  -0.001
C  C119  1  0.41316571  0.38482751  0.90632904  1  -0.021598  0.000869  -0.092984  -0.133811  0.000283  3.989464  0.001
C  C120  1  0.61530300  0.01330095  0.61533783  1  1.532894  -9e-06  0.193589  0.660338  -1.2e-05  4.149369  0.0
C  C121  1  0.67958497  0.10326082  0.58876763  1  -0.083533  0.0  -0.241903  -0.511076  -0.0  3.912379  0.0
C  C122  1  0.52320638  0.65483536  0.60383624  1  0.424808  6e-06  0.09848  0.138336  -1e-06  4.06194  0.0
C  C123  1  0.56034500  0.74706112  0.60668055  1  0.328118  5e-06  0.0985  0.133402  -2e-06  4.041049  0.0
C  C124  1  0.55802516  0.61508346  0.56190053  1  -0.007128  -1.1e-05  -0.085287  -0.19941  -1.2e-05  3.926619  0.0
C  C125  1  0.66953070  0.76318586  0.52731089  1  0.01562  -1.2e-05  -0.089715  -0.132874  -1.3e-05  3.989689  0.0
C  C126  1  0.63510883  0.80292267  0.56792177  1  0.05639  -1.6e-05  -0.08617  -0.142197  -1.7e-05  3.988809  0.0
C  C127  1  0.63178566  0.67008930  0.52325875  1  -0.043501  -1.6e-05  -0.00745  0.071096  -1.7e-05  4.013269  0.0
C  C128  1  0.52646654  0.90664181  0.83482416  1  0.387146  0.002992  0.097643  0.1389  0.001166  4.044706  0.002
C  C129  1  0.48336991  0.85630518  0.89350822  1  0.388755  0.008633  0.089995  0.125389  0.006653  4.073311  0.008
C  C130  1  0.50490645  0.89158662  0.95949864  1  -0.013806  0.001131  -0.09311  -0.212341  0.000636  3.970614  0.0
C  C131  1  0.57104770  0.97886695  0.96601052  1  -0.06821  -0.002608  -0.011188  0.070444  -0.002903  4.010804  -0.002
C  C132  1  0.59437673  0.99442357  0.84093547  1  -0.071119  -0.001122  -0.086795  -0.142885  -0.001329  3.969122  -0.001
C  C133  1  0.61517128  0.02834061  0.90633108  1  0.025504  0.000869  -0.093044  -0.133844  0.000283  3.989459  0.001
C  C134  1  0.98670473  0.60200013  0.61533361  1  1.51531  -9e-06  0.193747  0.660715  -1.2e-05  4.148992  0.0
C  C135  1  0.89674065  0.57631992  0.58876402  1  -0.075442  0.0  -0.241905  -0.510934  -0.0  3.912253  0.0
C  C136  1  0.34516124  0.86837202  0.60383458  1  0.377941  6e-06  0.098471  0.138317  -1e-06  4.062013  0.0
C  C137  1  0.25293642  0.81328429  0.60667660  1  0.396447  5e-06  0.098365  0.133215  -2e-06  4.041093  0.0
C  C138  1  0.38491361  0.94294329  0.56190072  1  0.039126  -1.1e-05  -0.085238  -0.199294  -1.2e-05  3.926497  0.0
C  C139  1  0.23681188  0.90634829  0.52730833  1  -0.062931  -1.2e-05  -0.089704  -0.133046  -1.3e-05  3.989411  0.0
C  C140  1  0.19707338  0.83218585  0.56791838  1  0.052441  -1.6e-05  -0.086101  -0.141876  -1.7e-05  3.988383  0.0
C  C141  1  0.32990568  0.96169880  0.52325797  1  -0.027041  -1.6e-05  -0.00757  0.07103  -1.7e-05  4.013313  0.0
C  C142  1  0.09336235  0.61982584  0.83482447  1  0.36607  0.002986  0.097532  0.138671  0.001166  4.044862  0.002
C  C143  1  0.14369791  0.62706494  0.89350778  1  0.40435  0.008604  0.090085  0.125437  0.006653  4.073167  0.008
C  C144  1  0.10841617  0.61332012  0.95949960  1  -0.022205  0.001154  -0.093062  -0.212288  0.000636  3.97058  0.0
C  C145  1  0.02113607  0.59217975  0.96600952  1  -0.005458  -0.002581  -0.011282  0.070415  -0.002903  4.010915  -0.002
C  C146  1  0.00557927  0.59995320  0.84093331  1  0.007461  -0.001136  -0.086787  -0.142881  -0.00133  3.969044  -0.001
C  C147  1  0.97166228  0.58683027  0.90633043  1  -0.027672  0.000868  -0.09299  -0.133766  0.000283  3.989293  0.001
N  N148  1  0.76306352  0.50962804  0.34936688  1  -0.714541  -6e-06  -0.229949  -0.208443  -2.6e-05  3.481712  0.0
N  N149  1  0.68592999  0.44568277  0.32661660  1  -0.185482  0.000108  -0.097842  -0.005372  0.000189  3.431441  0.0
N  N150  1  0.61986835  0.45248280  0.35327244  1  -0.697263  2.3e-05  -0.231455  -0.206201  -1e-06  3.481009  0.0
N  N151  1  0.85405769  0.48823776  0.22050722  1  -0.713839  0.002079  -0.236539  -0.219126  0.000738  3.471251  0.002
N  N152  1  0.77628232  0.42538659  0.19741922  1  -0.246949  -0.0152  -0.114664  -0.014378  -0.017987  3.46192  -0.013
N  N153  1  0.77512241  0.42065540  0.12908826  1  -0.642169  0.045681  -0.262185  -0.185365  0.019263  3.61979  0.022
N  N154  1  0.74656357  0.23693750  0.34936785  1  -0.719394  -6e-06  -0.229919  -0.20839  -2.6e-05  3.481637  0.0
N  N155  1  0.75975353  0.31407092  0.32661461  1  -0.1853  0.000109  -0.097866  -0.005463  0.000189  3.4315  0.0
N  N156  1  0.83261735  0.38013259  0.35326937  1  -0.693549  2.3e-05  -0.231453  -0.206122  -1e-06  3.480983  0.0
N  N157  1  0.63418128  0.14594345  0.22050903  1  -0.717098  0.002077  -0.236515  -0.219151  0.000737  3.471173  0.002
N  N158  1  0.64910437  0.22372093  0.19742216  1  -0.244154  -0.015214  -0.114713  -0.014433  -0.017993  3.461803  -0.013
N  N159  1  0.64553360  0.22488006  0.12909015  1  -0.652992  0.045662  -0.262174  -0.185359  0.019263  3.619717  0.022
N  N160  1  0.49037105  0.25343534  0.34936523  1  -0.719088  -6e-06  -0.229928  -0.208462  -2.6e-05  3.48172  0.0
N  N161  1  0.55431581  0.24024677  0.32661442  1  -0.179253  0.000109  -0.097787  -0.005255  0.000189  3.431235  0.0
N  N162  1  0.54751300  0.16738272  0.35327065  1  -0.695801  2.3e-05  -0.231514  -0.206359  -1e-06  3.481078  0.0
N  N163  1  0.51176541  0.36582389  0.22050861  1  -0.718654  0.002077  -0.236471  -0.219081  0.000737  3.47109  0.002
N  N164  1  0.57461814  0.35089903  0.19742161  1  -0.2454  -0.015206  -0.114708  -0.014393  -0.01799  3.461645  -0.013
N  N165  1  0.57934560  0.35446756  0.12908963  1  -0.650341  0.045588  -0.262196  -0.185406  0.019262  3.619719  0.022
N  N166  1  0.25343524  0.49036998  0.65063592  1  -0.719165  -6e-06  -0.229932  -0.208464  -2.6e-05  3.481795  0.0
N  N167  1  0.24024858  0.55431670  0.67338429  1  -0.179236  0.000109  -0.097809  -0.005304  0.000189  3.431403  0.0
N  N168  1  0.16738418  0.54751413  0.64673044  1  -0.695664  2.3e-05  -0.231508  -0.206269  -1e-06  3.481077  0.0
N  N169  1  0.36582560  0.51176365  0.77948619  1  -0.718856  0.002073  -0.236577  -0.219272  0.000735  3.471237  0.002
N  N170  1  0.35090208  0.57461777  0.80257279  1  -0.245602  -0.015208  -0.114609  -0.014169  -0.017992  3.461688  -0.013
N  N171  1  0.35447180  0.57934248  0.87090427  1  -0.649436  0.045571  -0.262233  -0.185537  0.019261  3.620146  0.022
N  N172  1  0.50962976  0.76306409  0.65063440  1  -0.714476  -6e-06  -0.22991  -0.208432  -2.6e-05  3.481637  0.0
N  N173  1  0.44568309  0.68593102  0.67338437  1  -0.18547  0.000108  -0.097846  -0.005347  0.000189  3.431363  0.0
N  N174  1  0.45248414  0.61986902  0.64672942  1  -0.697289  2.3e-05  -0.231489  -0.20627  -1e-06  3.480959  0.0
N  N175  1  0.48823951  0.85406558  0.77948552  1  -0.713972  0.002076  -0.23654  -0.219345  0.000736  3.471358  0.002
N  N176  1  0.42538761  0.77629000  0.80257168  1  -0.246548  -0.015202  -0.114664  -0.014276  -0.017989  3.462035  -0.013
N  N177  1  0.42065972  0.77513207  0.87090263  1  -0.642337  0.045664  -0.262132  -0.185371  0.01926  3.620123  0.022
N  N178  1  0.23693423  0.74656414  0.65063076  1  -0.719456  -6e-06  -0.229876  -0.208379  -2.6e-05  3.481647  0.0
N  N179  1  0.31406904  0.75975164  0.67338062  1  -0.185672  0.000108  -0.097871  -0.005385  0.000189  3.431362  0.0
N  N180  1  0.38013067  0.83261751  0.64672616  1  -0.693015  2.3e-05  -0.231452  -0.206248  -1e-06  3.480983  0.0
N  N181  1  0.14593768  0.63417655  0.77948658  1  -0.717235  0.002073  -0.236543  -0.219218  0.000735  3.47123  0.002
N  N182  1  0.22371564  0.64910152  0.80257314  1  -0.244164  -0.015213  -0.114595  -0.014163  -0.017992  3.461772  -0.013
N  N183  1  0.22487187  0.64552981  0.87090412  1  -0.653159  0.045659  -0.262254  -0.185544  0.01926  3.620135  0.022
O  O184  1  0.94784267  0.57835968  0.42428892  1  -1.191421  3e-06  -0.325252  -0.559569  3e-06  2.135698  0.0
O  O185  1  0.00389983  0.59643344  0.32009867  1  -1.164143  2.5e-05  -0.345357  -0.562824  1.4e-05  2.200866  0.0
O  O186  1  0.63054400  0.05216189  0.42427996  1  -1.188257  3e-06  -0.325146  -0.559599  3e-06  2.135747  0.0
O  O187  1  0.59250452  0.99609077  0.32009776  1  -1.160768  2.5e-05  -0.345437  -0.562892  1.4e-05  2.200804  0.0
O  O188  1  0.42164433  0.36948287  0.42429023  1  -1.190224  3e-06  -0.325161  -0.559503  3e-06  2.135729  0.0
O  O189  1  0.40357530  0.40747242  0.32009966  1  -1.160623  2.5e-05  -0.345372  -0.56288  1.4e-05  2.200853  0.0
O  O190  1  0.36946027  0.42162015  0.57572124  1  -1.189671  3e-06  -0.325116  -0.559593  3e-06  2.135644  0.0
O  O191  1  0.40749679  0.40358236  0.67990369  1  -1.160286  2.5e-05  -0.345456  -0.562899  1.4e-05  2.200842  0.0
O  O192  1  0.57837179  0.94784600  0.57572772  1  -1.19079  3e-06  -0.324976  -0.559371  3e-06  2.135883  0.0
O  O193  1  0.59642867  0.00391626  0.67991035  1  -1.164353  2.5e-05  -0.345429  -0.562796  1.4e-05  2.200934  0.0
O  O194  1  0.05216284  0.63054656  0.57572464  1  -1.188074  3e-06  -0.325173  -0.559698  3e-06  2.135754  0.0
O  O195  1  0.99608450  0.59248887  0.67990318  1  -1.160811  2.5e-05  -0.345393  -0.562898  1.4e-05  2.200936  0.0
