# generated using pymatgen
data_Co3H14C12(NO4)4
_symmetry_space_group_name_H-M   'P 1'
_cell_length_a   7.28538678
_cell_length_b   8.85047421
_cell_length_c   9.12003962
_cell_angle_alpha   113.27789754
_cell_angle_beta   108.40088884
_cell_angle_gamma   100.36894462
_symmetry_Int_Tables_number   1
_chemical_formula_structural   Co3H14C12(NO4)4
_chemical_formula_sum   'Co3 H14 C12 N4 O16'
_cell_volume   480.21933700
_cell_formula_units_Z   1
loop_
 _symmetry_equiv_pos_site_id
 _symmetry_equiv_pos_as_xyz
  1  'x, y, z'
loop_
 _atom_site_type_symbol
 _atom_site_label
 _atom_site_symmetry_multiplicity
 _atom_site_fract_x
 _atom_site_fract_y
 _atom_site_fract_z
 _atom_site_occupancy
 _atom_site_pbe_cm5_charge
 _atom_site_pbe_ddec_charge
 _atom_site_pbe_ddec_spin_density
 _atom_site_pbe_ddec_sum_bond_order
 _atom_site_pbe_magmom
Co  Co0  1  0.10415756  0.25102125  0.76196691  1  0.693399  1.069104  -2.89183  2.328751  -2.631
Co  Co1  1  0.89631189  0.74978501  0.23850578  1  0.694661  1.071212  2.868443  2.327395  2.645
Co  Co2  1  0.00013892  0.00001869  0.00034480  1  0.671817  0.929213  2.834449  2.35815  2.61
H  H3  1  0.33098802  0.62256669  0.50889271  1  0.117988  0.146729  -0.00017  0.991049  0.0
H  H4  1  0.66837161  0.37762866  0.49077753  1  0.117958  0.146815  0.000705  0.991252  0.001
H  H5  1  0.46944354  0.26474095  0.94816912  1  0.306345  0.390022  -0.000849  0.9364  -0.002
H  H6  1  0.53062703  0.73518788  0.05172643  1  0.306285  0.389893  0.000934  0.936484  0.002
H  H7  1  0.52477079  0.38657359  0.86446388  1  0.300384  0.400366  -0.000791  0.941006  -0.002
H  H8  1  0.47531364  0.61317660  0.13515082  1  0.300394  0.400369  0.000758  0.94105  0.002
H  H9  1  0.75183174  0.30144831  0.73943119  1  0.302086  0.399603  -0.000365  0.932112  -0.001
H  H10  1  0.24793981  0.69811947  0.26004405  1  0.302158  0.399887  0.000379  0.931799  0.001
H  H11  1  0.75554283  0.14149546  0.77783654  1  0.302393  0.401846  -0.000801  0.915654  -0.001
H  H12  1  0.24501600  0.85857514  0.22234966  1  0.302275  0.401842  0.000623  0.915696  0.001
H  H13  1  0.31807248  0.88140024  0.99515114  1  0.293365  0.379691  0.000243  0.964732  0.001
H  H14  1  0.68197622  0.11872351  0.00513808  1  0.293267  0.379455  0.000213  0.965164  0.001
H  H15  1  0.41425325  0.08100782  0.14612202  1  0.309352  0.405105  0.000525  0.904727  0.001
H  H16  1  0.58585979  0.91908774  0.85428399  1  0.309284  0.404892  0.00021  0.905046  0.001
C  C17  1  0.24979383  0.58356301  0.77749047  1  0.211345  0.534838  0.002493  4.194735  0.003
C  C18  1  0.75012268  0.41654691  0.22238945  1  0.211489  0.535381  -0.003294  4.195243  -0.003
C  C19  1  0.20337634  0.44883521  0.59417412  1  0.116999  0.151515  0.005306  4.02435  0.007
C  C20  1  0.79661861  0.55138846  0.40581445  1  0.117004  0.152213  -0.013077  4.024471  -0.016
C  C21  1  0.25089498  0.48915530  0.47479455  1  -0.094953  -0.234857  0.002858  3.956718  0.003
C  C22  1  0.74881283  0.51099537  0.52502038  1  -0.095204  -0.235701  0.000371  3.956854  0.002
C  C23  1  0.18568180  0.34843275  0.30714735  1  0.115123  0.14899  0.002964  4.011853  0.002
C  C24  1  0.81433095  0.65160231  0.69280534  1  0.115531  0.14983  -0.011164  4.011549  -0.012
C  C25  1  0.22178870  0.37401642  0.16445823  1  0.226901  0.566294  0.000188  4.157902  -0.001
C  C26  1  0.77783602  0.62557410  0.83523110  1  0.227378  0.567228  -0.002054  4.160245  -0.002
C  C27  1  0.02973928  0.15069567  0.38079091  1  0.332809  0.659221  0.003884  4.098391  0.006
C  C28  1  0.97055909  0.84948889  0.61949256  1  0.332858  0.659518  -0.002239  4.094016  -0.005
N  N29  1  0.10214463  0.28421336  0.55152093  1  -0.3333  -0.424402  -0.033789  3.454903  -0.051
N  N30  1  0.89818656  0.71589162  0.44865901  1  -0.333734  -0.425811  0.034002  3.453904  0.053
N  N31  1  0.08053556  0.18291791  0.25979164  1  -0.340606  -0.433265  0.03665  3.453721  0.056
N  N32  1  0.91974893  0.81708045  0.74049520  1  -0.339797  -0.432692  0.023531  3.450009  0.036
O  O33  1  0.16944971  0.52947015  0.86060388  1  -0.297339  -0.540235  -0.032908  2.305171  -0.055
O  O34  1  0.83041119  0.47051126  0.13924520  1  -0.297031  -0.540206  0.031323  2.303347  0.053
O  O35  1  0.36420284  0.74273258  0.84040057  1  -0.3111  -0.553296  0.000483  2.190053  0.001
O  O36  1  0.63570912  0.25742440  0.15971333  1  -0.311178  -0.553595  -0.00014  2.190241  0.0
O  O37  1  0.32835547  0.52454578  0.20394515  1  -0.286087  -0.518764  0.003985  2.297189  0.007
O  O38  1  0.67083331  0.47487866  0.79502057  1  -0.285921  -0.51863  -0.000181  2.296375  0.0
O  O39  1  0.14048390  0.23693784  0.01082026  1  -0.291151  -0.572086  0.0169  2.485524  0.029
O  O40  1  0.85902605  0.76216486  0.98892125  1  -0.292107  -0.573716  0.052388  2.488056  0.085
O  O41  1  0.91237825  0.00263962  0.33686615  1  -0.309518  -0.568111  0.026266  2.395483  0.037
O  O42  1  0.08788638  0.99751436  0.66339192  1  -0.308825  -0.567122  -0.025358  2.392091  -0.034
O  O43  1  0.41115222  0.30097890  0.86068330  1  -0.581663  -0.774951  -0.039663  2.259309  -0.058
O  O44  1  0.58889108  0.69935664  0.13958129  1  -0.581721  -0.774699  0.039997  2.25687  0.059
O  O45  1  0.80108978  0.20027060  0.71669817  1  -0.56937  -0.755964  -0.038025  2.129957  -0.055
O  O46  1  0.19913523  0.79957596  0.28320366  1  -0.569587  -0.756384  0.038077  2.129785  0.056
O  O47  1  0.29636620  0.97184962  0.09261226  1  -0.550183  -0.743351  0.034173  2.162075  0.051
O  O48  1  0.70385307  0.02819722  0.90786248  1  -0.550476  -0.743238  0.033378  2.161042  0.05
