# generated using pymatgen
data_ZnH18C26(NO2)2
_symmetry_space_group_name_H-M   'P 1'
_cell_length_a   7.50084392
_cell_length_b   16.80212470
_cell_length_c   18.29164611
_cell_angle_alpha   62.60384747
_cell_angle_beta   89.67893140
_cell_angle_gamma   89.43319737
_symmetry_Int_Tables_number   1
_chemical_formula_structural   ZnH18C26(NO2)2
_chemical_formula_sum   'Zn2 H36 C52 N4 O8'
_cell_volume   2046.64891200
_cell_formula_units_Z   2
loop_
 _symmetry_equiv_pos_site_id
 _symmetry_equiv_pos_as_xyz
  1  'x, y, z'
loop_
 _atom_site_type_symbol
 _atom_site_label
 _atom_site_symmetry_multiplicity
 _atom_site_fract_x
 _atom_site_fract_y
 _atom_site_fract_z
 _atom_site_occupancy
 _atom_site_pbe_bader_charge
 _atom_site_pbe_bader_spin_density
 _atom_site_pbe_cm5_charge
 _atom_site_pbe_ddec_charge
 _atom_site_pbe_ddec_spin_density
 _atom_site_pbe_ddec_sum_bond_order
 _atom_site_pbe_magmom
Zn  Zn0  1  0.24955788  0.08692838  0.82584489  1  1.258801  0  0.681529  0.752275  0  2.364592  0
Zn  Zn1  1  0.75044385  0.91307745  0.17415320  1  1.258834  0  0.681503  0.752244  0  2.364487  0
H  H2  1  0.13202209  0.89704724  0.85751418  1  0.128005  0  0.127955  0.110285  0  0.980825  0
H  H3  1  0.36682543  0.24576508  0.85649037  1  0.151984  0  0.127903  0.110628  0  0.98087  0
H  H4  1  0.86797505  0.10296658  0.14247174  1  0.128181  0  0.127923  0.110233  0  0.980853  0
H  H5  1  0.63318019  0.75423654  0.14351134  1  0.151982  0  0.12786  0.110579  0  0.980843  0
H  H6  1  0.07424648  0.74872632  0.98285065  1  0.093888  0  0.113787  0.116784  0  0.981365  0
H  H7  1  0.42562675  0.26913830  0.98136535  1  0.103678  0  0.113743  0.116696  0  0.981408  0
H  H8  1  0.92573805  0.25128241  0.01713145  1  0.094231  0  0.113843  0.116824  0  0.981418  0
H  H9  1  0.57436293  0.73086089  0.01863721  1  0.103388  0  0.113774  0.116728  0  0.981327  0
H  H10  1  0.21583156  0.87445627  0.13317397  1  0.143981  0  0.115294  0.12938  0  1.037715  0
H  H11  1  0.28482087  0.99286101  0.13284628  1  0.162627  0  0.115135  0.129375  0  1.038016  0
H  H12  1  0.78415544  0.12553852  0.86681884  1  0.144022  0  0.115266  0.129309  0  1.037659  0
H  H13  1  0.71515579  0.00714026  0.86715196  1  0.163046  0  0.11511  0.129332  0  1.038031  0
H  H14  1  0.69552110  0.19221427  0.73995179  1  0.071057  0  0.096727  0.100586  0  1.062556  0
H  H15  1  0.80434717  0.06817648  0.73970613  1  0.080002  0  0.09696  0.100667  0  1.062939  0
H  H16  1  0.30448910  0.80778603  0.26004528  1  0.07101  0  0.096716  0.100601  0  1.062518  0
H  H17  1  0.19565158  0.93182522  0.26029742  1  0.079904  0  0.096993  0.100733  0  1.062886  0
H  H18  1  0.45912285  0.29499009  0.65730530  1  0.127278  0  0.099745  0.117246  0  1.03033  0
H  H19  1  0.04079615  0.04827094  0.65683750  1  0.127261  0  0.100033  0.117565  0  1.029184  0
H  H20  1  0.54088702  0.70501255  0.34269344  1  0.127222  0  0.099735  0.117282  0  1.030278  0
H  H21  1  0.95920935  0.95172594  0.34316832  1  0.127327  0  0.100012  0.117573  0  1.029269  0
H  H22  1  0.35921658  0.43132979  0.55333882  1  0.056091  0  0.099721  0.098089  0  1.020115  0
H  H23  1  0.14071107  0.01557722  0.55304907  1  0.053464  0  0.099853  0.097925  0  1.021315  0
H  H24  1  0.64079324  0.56866974  0.44666239  1  0.055988  0  0.099765  0.098152  0  1.02011  0
H  H25  1  0.85929586  0.98441281  0.44696032  1  0.053578  0  0.09985  0.097957  0  1.021376  0
H  H26  1  0.84940278  0.50225644  0.53334235  1  0.062085  0  0.098495  0.098415  0  1.024094  0
H  H27  1  0.65041146  0.96487407  0.53338721  1  0.030538  0  0.098408  0.098308  0  1.02399  0
H  H28  1  0.15060758  0.49774802  0.46666333  1  0.062117  0  0.098495  0.098437  0  1.024153  0
H  H29  1  0.34960113  0.03511214  0.46662140  1  0.030982  0  0.098422  0.098394  0  1.02394  0
H  H30  1  0.08470112  0.40033935  0.62362304  1  0.050979  0  0.098895  0.098035  0  1.028938  0
H  H31  1  0.41504479  0.97653802  0.62376544  1  0.089671  0  0.098708  0.098392  0  1.028135  0
H  H32  1  0.91530979  0.59966119  0.37637985  1  0.051087  0  0.098894  0.097997  0  1.028965  0
H  H33  1  0.58496367  0.02345193  0.37624203  1  0.089522  0  0.098704  0.098425  0  1.028096  0
H  H34  1  0.12108812  0.73919233  0.12346985  1  0.11155  0  0.118901  0.11705  0  0.96704  0
H  H35  1  0.37978113  0.13819455  0.12233099  1  0.081518  0  0.118721  0.117098  0  0.967439  0
H  H36  1  0.87889653  0.26080860  0.87651606  1  0.111295  0  0.118936  0.117066  0  0.96694  0
H  H37  1  0.62019386  0.86180703  0.87767027  1  0.081059  0  0.118749  0.117047  0  0.967624  0
C  C38  1  0.05503173  0.22809867  0.73614704  1  1.513458  0  0.192766  0.551673  0  4.214929  0
C  C39  1  0.44494842  0.03590515  0.73633108  1  1.492856  0  0.192698  0.551973  0  4.21397  0
C  C40  1  0.94496742  0.77189882  0.26385537  1  1.513511  0  0.192952  0.552008  0  4.214545  0
C  C41  1  0.55505228  0.96409428  0.26366806  1  1.49166  0  0.192767  0.552214  0  4.213987  0
C  C42  1  0.90811729  0.28921465  0.68700290  1  -0.076537  0  -0.02847  -0.049322  0  4.004969  0
C  C43  1  0.59176964  0.02411613  0.68698880  1  -0.031642  0  -0.027601  -0.048439  0  4.004444  0
C  C44  1  0.09188952  0.71078519  0.31300130  1  -0.076483  0  -0.028497  -0.04944  0  4.005027  0
C  C45  1  0.40823351  0.97588136  0.31301368  1  -0.031258  0  -0.027586  -0.048449  0  4.00462  0
C  C46  1  0.14661509  0.88821323  0.92015973  1  0.496795  0  0.056777  0.100702  0  3.937482  0
C  C47  1  0.35261810  0.19199299  0.91927335  1  0.468674  0  0.05624  0.099945  0  3.935876  0
C  C48  1  0.85338346  0.11179374  0.07982975  1  0.497355  0  0.056766  0.100843  0  3.93762  0
C  C49  1  0.64738109  0.80800909  0.08072579  1  0.468713  0  0.056251  0.099994  0  3.935872  0
C  C50  1  0.11712100  0.80661337  0.98984103  1  -0.027841  0  -0.080259  -0.135878  0  3.993203  0
C  C51  1  0.38273964  0.20414789  0.98870082  1  -0.033075  0  -0.080211  -0.13519  0  3.993307  0
C  C52  1  0.88286954  0.19339508  0.01014751  1  -0.029462  0  -0.080352  -0.13614  0  3.993217  0
C  C53  1  0.61725133  0.79585371  0.01130068  1  -0.032866  0  -0.080226  -0.135262  0  3.993272  0
C  C54  1  0.19754326  0.87751824  0.07304416  1  -0.011967  0  -0.072212  -0.141648  0  3.904751  0
C  C55  1  0.30259581  0.04990207  0.07257647  1  -0.011502  0  -0.07253  -0.141685  0  3.90482  0
C  C56  1  0.80245507  0.12248328  0.92695081  1  -0.012171  0  -0.072189  -0.14159  0  3.90504  0
C  C57  1  0.69738872  0.95009797  0.92742381  1  -0.012341  0  -0.072476  -0.141489  0  3.904827  0
C  C58  1  0.73081522  0.26045541  0.69609599  1  0.029037  0  -0.09067  -0.094827  0  3.983507  0
C  C59  1  0.76913172  0.04383733  0.69590303  1  0.00061  0  -0.091144  -0.094649  0  3.984468  0
C  C60  1  0.26919311  0.73954731  0.30390467  1  0.028884  0  -0.090672  -0.094811  0  3.983347  0
C  C61  1  0.23087120  0.95616172  0.30410056  1  0.000302  0  -0.091285  -0.094852  0  3.98446  0
C  C62  1  0.59678940  0.31805858  0.64780855  1  -0.077581  0  -0.089882  -0.127109  0  3.926929  0
C  C63  1  0.90310618  0.03462090  0.64749215  1  -0.083892  0  -0.090659  -0.128263  0  3.928033  0
C  C64  1  0.40321896  0.68194320  0.35219238  1  -0.077508  0  -0.089884  -0.127147  0  3.926923  0
C  C65  1  0.09689799  0.96537396  0.35251502  1  -0.083313  0  -0.090565  -0.128171  0  3.927918  0
C  C66  1  0.63623525  0.40533128  0.58656443  1  -0.067258  0  -0.008579  0.118664  0  4.037148  0
C  C67  1  0.86366870  0.00852928  0.58638857  1  -0.042419  0  -0.008196  0.118352  0  4.03677  0
C  C68  1  0.36377282  0.59467191  0.41343844  1  -0.067423  0  -0.008556  0.118578  0  4.037072  0
C  C69  1  0.13634348  0.99146262  0.41362036  1  -0.042535  0  -0.008172  0.118463  0  4.036643  0
C  C70  1  0.49187584  0.46017644  0.53421077  1  -0.075313  0  -0.089521  -0.129136  0  3.990367  0
C  C71  1  0.00810350  0.00579442  0.53409373  1  0.015695  0  -0.089499  -0.128503  0  3.989756  0
C  C72  1  0.50813772  0.53982559  0.46579134  1  -0.000191  0  -0.089677  -0.129233  0  3.990372  0
C  C73  1  0.99190599  0.99419490  0.46591708  1  -0.083807  0  -0.089577  -0.128746  0  3.989831  0
C  C74  1  0.81473983  0.43441504  0.57876044  1  -0.030566  0  -0.093251  -0.136035  0  3.965775  0
C  C75  1  0.68507945  0.98729827  0.57872265  1  -0.012573  0  -0.0938  -0.135873  0  3.966335  0
C  C76  1  0.18527322  0.56558497  0.42124774  1  -0.030669  0  -0.093251  -0.136028  0  3.965526  0
C  C77  1  0.31492464  0.01269292  0.42128753  1  -0.01299  0  -0.09382  -0.135956  0  3.96631  0
C  C78  1  0.94735843  0.37773019  0.62876364  1  -0.006381  0  -0.091664  -0.101233  0  4.015092  0
C  C79  1  0.55245275  0.99396375  0.62878127  1  -0.073205  0  -0.091089  -0.101752  0  4.015273  0
C  C80  1  0.05264711  0.62227478  0.37123671  1  -0.006327  0  -0.091661  -0.10118  0  4.014988  0
C  C81  1  0.44755593  0.00602813  0.37122290  1  -0.07356  0  -0.091089  -0.101823  0  4.015205  0
C  C82  1  0.22230135  0.95738904  0.00074571  1  0.491163  0  0.119888  0.163366  0  3.976128  0
C  C83  1  0.27715087  0.04211147  0.00050010  1  0.469263  0  0.120328  0.163607  0  3.97561  0
C  C84  1  0.77769038  0.04261208  0.99924888  1  0.490927  0  0.119919  0.163246  0  3.976095  0
C  C85  1  0.72283793  0.95788810  0.99949803  1  0.469568  0  0.120298  0.163467  0  3.975821  0
C  C86  1  0.14300489  0.80150013  0.06732393  1  -0.067929  0  -0.059995  -0.017905  0  3.950681  0
C  C87  1  0.35733856  0.13183174  0.06637835  1  -0.066109  0  -0.059646  -0.018807  0  3.952594  0
C  C88  1  0.85697996  0.19849870  0.93266141  1  -0.067097  0  -0.06006  -0.017801  0  3.950603  0
C  C89  1  0.64264202  0.86816938  0.93362078  1  -0.065232  0  -0.059685  -0.01881  0  3.952679  0
N  N90  1  0.19687170  0.96139943  0.92594790  1  -1.234391  0  -0.319031  -0.259507  0  3.545048  0
N  N91  1  0.30214370  0.11285104  0.92549565  1  -1.243325  0  -0.318552  -0.258208  0  3.54446  0
N  N92  1  0.80312634  0.03860701  0.07404683  1  -1.234255  0  -0.318964  -0.25939  0  3.544716  0
N  N93  1  0.69785555  0.88715065  0.07450321  1  -1.243331  0  -0.318514  -0.258085  0  3.544425  0
O  O94  1  0.01813157  0.14274425  0.77670655  1  -1.167932  0  -0.331045  -0.545018  0  2.313038  0
O  O95  1  0.48198015  0.08040221  0.77706600  1  -1.143223  0  -0.330946  -0.545026  0  2.31013  0
O  O96  1  0.98186892  0.85725876  0.22329233  1  -1.16783  0  -0.331117  -0.545172  0  2.312657  0
O  O97  1  0.51801127  0.91959830  0.22293190  1  -1.142329  0  -0.330962  -0.545098  0  2.310112  0
O  O98  1  0.20781717  0.25735686  0.73813855  1  -1.179045  0  -0.32517  -0.55944  0  2.150551  0
O  O99  1  0.29198892  0.00481158  0.73835066  1  -1.186046  0  -0.325518  -0.559549  0  2.149846  0
O  O100  1  0.79219662  0.74264010  0.26186463  1  -1.179125  0  -0.325229  -0.559501  0  2.15071  0
O  O101  1  0.70800959  0.99518730  0.26164429  1  -1.185853  0  -0.325506  -0.559637  0  2.149907  0
