# generated using pymatgen
data_ZnH16PdC12N2(ClO4)2
_symmetry_space_group_name_H-M   'P 1'
_cell_length_a   5.50520380
_cell_length_b   6.69881258
_cell_length_c   12.46030403
_cell_angle_alpha   102.01623488
_cell_angle_beta   98.55971539
_cell_angle_gamma   94.89577607
_symmetry_Int_Tables_number   1
_chemical_formula_structural   ZnH16PdC12N2(ClO4)2
_chemical_formula_sum   'Zn1 H16 Pd1 C12 N2 Cl2 O8'
_cell_volume   441.21390093
_cell_formula_units_Z   1
loop_
 _symmetry_equiv_pos_site_id
 _symmetry_equiv_pos_as_xyz
  1  'x, y, z'
loop_
 _atom_site_type_symbol
 _atom_site_label
 _atom_site_symmetry_multiplicity
 _atom_site_fract_x
 _atom_site_fract_y
 _atom_site_fract_z
 _atom_site_occupancy
 _atom_site_hle17_bader_spin_density
 _atom_site_hle17_ddec_charge
 _atom_site_hle17_ddec_spin_density
 _atom_site_hle17_ddec_sum_bond_order
 _atom_site_hle17_magmom
 _atom_site_hse06_10hf_bader_spin_density
 _atom_site_hse06_10hf_ddec_charge
 _atom_site_hse06_10hf_ddec_spin_density
 _atom_site_hse06_10hf_ddec_sum_bond_order
 _atom_site_hse06_10hf_magmom
 _atom_site_hse06_bader_spin_density
 _atom_site_hse06_ddec_charge
 _atom_site_hse06_ddec_spin_density
 _atom_site_hse06_ddec_sum_bond_order
 _atom_site_hse06_magmom
 _atom_site_pbe_bader_spin_density
 _atom_site_pbe_cm5_charge
 _atom_site_pbe_ddec_charge
 _atom_site_pbe_ddec_spin_density
 _atom_site_pbe_ddec_sum_bond_order
 _atom_site_pbe_magmom
Zn  Zn0  1  0.50000148  0.49999495  0.50000206  1  0  1.233213  0  1.645276  0  0  1.079641  0  2.087921  0  0  1.126199  0  2.026456  0  0  0.672006  1.046551  0  2.130475  0
H  H1  1  0.61744442  0.95104095  0.08978872  1  0  0.085581  0  0.974719  0  0  0.08777  0  1.050204  0  0  0.090838  0  1.046784  0  0  0.099912  0.085509  0  1.052728  0
H  H2  1  0.38256350  0.04895812  0.91020951  1  0  0.085544  0  0.974656  0  0  0.087716  0  1.050225  0  0  0.090784  0  1.046804  0  0  0.099916  0.085462  0  1.052748  0
H  H3  1  0.94539375  0.18485058  0.23028932  1  0  0.117993  0  0.94971  0  0  0.124256  0  1.014883  0  0  0.128226  0  1.012337  0  0  0.106993  0.121294  0  1.017022  0
H  H4  1  0.05458966  0.81515486  0.76971775  1  0  0.118  0  0.949598  0  0  0.124283  0  1.014765  0  0  0.128219  0  1.012271  0  0  0.106991  0.121323  0  1.016885  0
H  H5  1  0.98878429  0.44326964  0.11571471  1  0  0.088425  0  0.954559  0  0  0.091184  0  1.027806  0  0  0.094114  0  1.024535  0  0  0.104991  0.088969  0  1.030359  0
H  H6  1  0.01122795  0.55673401  0.88428109  1  0  0.08845  0  0.954409  0  0  0.091191  0  1.0277  0  0  0.094128  0  1.024422  0  0  0.104959  0.08897  0  1.030261  0
H  H7  1  0.32935937  0.65679679  0.25338512  1  0  0.100894  0  1.00521  0  0  0.106911  0  1.074475  0  0  0.110493  0  1.072307  0  0  0.102067  0.104295  0  1.076282  0
H  H8  1  0.67065341  0.34320994  0.74661346  1  0  0.100923  0  1.005384  0  0  0.106978  0  1.074616  0  0  0.110563  0  1.072439  0  0  0.10207  0.104363  0  1.076432  0
H  H9  1  0.03451167  0.65013164  0.44391322  1  0  0.441755  0  0.844393  0  0  0.4152  0  0.898648  0  0  0.42536  0  0.883875  0  0  0.296673  0.407953  0  0.909177  0
H  H10  1  0.96548411  0.34985985  0.55608662  1  0  0.441753  0  0.84441  0  0  0.415172  0  0.898722  0  0  0.425338  0  0.88394  0  0  0.296656  0.40793  0  0.909241  0
H  H11  1  0.25677190  0.81086450  0.52815052  1  0  0.422296  0  0.88066  0  0  0.388829  0  0.947362  0  0  0.401099  0  0.929472  0  0  0.288837  0.380139  0  0.960006  0
H  H12  1  0.74322495  0.18913314  0.47185489  1  0  0.42226  0  0.880701  0  0  0.388799  0  0.947392  0  0  0.401068  0  0.929503  0  0  0.288832  0.380106  0  0.96004  0
H  H13  1  0.65770661  0.53253827  0.30638068  1  0  0.405241  0  0.876404  0  0  0.37474  0  0.957098  0  0  0.384281  0  0.943268  0  0  0.280762  0.367928  0  0.966966  0
H  H14  1  0.34228574  0.46745478  0.69361912  1  0  0.40524  0  0.876433  0  0  0.374753  0  0.957082  0  0  0.384292  0  0.943254  0  0  0.280774  0.367937  0  0.966955  0
H  H15  1  0.64519474  0.76182605  0.37261112  1  0  0.434401  0  0.860807  0  0  0.40064  0  0.92961  0  0  0.411794  0  0.913516  0  0  0.294721  0.39273  0  0.940997  0
H  H16  1  0.35480469  0.23816541  0.62738814  1  0  0.434421  0  0.860761  0  0  0.400635  0  0.929626  0  0  0.411796  0  0.913522  0  0  0.294717  0.392723  0  0.941017  0
Pd  Pd17  1  0.50000457  0.49999806  0.99999724  1  0  0.407529  0  2.711854  0  0  0.343732  0  3.266144  0  0  0.373817  0  3.233325  0  0  0.706317  0.326915  0  3.287468  0
C  C18  1  0.17781343  0.73018194  0.21925582  1  0  -0.10377  0  3.728583  0  0  -0.129372  0  3.984937  0  0  -0.133703  0  4.002509  0  0  -0.083623  -0.126719  0  3.973541  0
C  C19  1  0.82218160  0.26984033  0.78074502  1  0  -0.103855  0  3.728079  0  0  -0.129533  0  3.984455  0  0  -0.133862  0  4.002026  0  0  -0.083614  -0.126884  0  3.973076  0
C  C20  1  0.77885296  0.89258152  0.12807869  1  0  0.109532  0  3.658228  0  0  0.076347  0  3.911237  0  0  0.083792  0  3.927497  0  0  0.030826  0.07113  0  3.901075  0
C  C21  1  0.22115215  0.10741142  0.87191787  1  0  0.10974  0  3.65798  0  0  0.076474  0  3.911061  0  0  0.083928  0  3.927303  0  0  0.030843  0.071248  0  3.900893  0
C  C22  1  0.16645669  0.94034999  0.25385011  1  0  -0.00413  0  3.696598  0  0  0.012271  0  3.931193  0  0  0.011413  0  3.948987  0  0  0.004445  0.012829  0  3.919231  0
C  C23  1  0.83354521  0.05963374  0.74614844  1  0  -0.004142  0  3.696355  0  0  0.012274  0  3.930936  0  0  0.011423  0  3.948712  0  0  0.00445  0.012824  0  3.918986  0
C  C24  1  0.96300756  0.02197431  0.20583998  1  0  -0.08628  0  3.683815  0  0  -0.111019  0  3.93445  0  0  -0.11489  0  3.952317  0  0  -0.073357  -0.108607  0  3.922722  0
C  C25  1  0.03698314  0.97805569  0.79415986  1  0  -0.086308  0  3.684384  0  0  -0.111054  0  3.935044  0  0  -0.114909  0  3.952922  0  0  -0.073387  -0.108625  0  3.923324  0
C  C26  1  0.98716637  0.60823913  0.14212002  1  0  0.094854  0  3.690376  0  0  0.060577  0  3.950427  0  0  0.068748  0  3.964177  0  0  0.023551  0.054765  0  3.942164  0
C  C27  1  0.01285343  0.39175369  0.85787823  1  0  0.09497  0  3.69084  0  0  0.060716  0  3.950859  0  0  0.068858  0  3.964666  0  0  0.023604  0.054908  0  3.942587  0
C  C28  1  0.36459258  0.07562913  0.34180638  1  0  0.671341  0  3.860324  0  0  0.616514  0  4.156866  0  0  0.651004  0  4.148433  0  0  0.218747  0.593095  0  4.161863  0
C  C29  1  0.63538574  0.92439174  0.65819488  1  0  0.671468  0  3.860148  0  0  0.616687  0  4.15658  0  0  0.651184  0  4.148144  0  0  0.218849  0.593264  0  4.161587  0
N  N30  1  0.78918754  0.68841890  0.09832396  1  0  -0.211438  0  3.4567  0  0  -0.137996  0  3.729331  0  0  -0.156052  0  3.749484  0  0  -0.368539  -0.126589  0  3.715789  0
N  N31  1  0.21081465  0.31159099  0.90167192  1  0  -0.211748  0  3.457117  0  0  -0.138232  0  3.729709  0  0  -0.156284  0  3.74986  0  0  -0.368557  -0.126816  0  3.716157  0
Cl  Cl32  1  0.48545738  0.31762828  0.13794033  1  0  -0.436539  0  1.155918  0  0  -0.399979  0  1.462804  0  0  -0.418697  0  1.445049  0  0  -0.263049  -0.386711  0  1.474519  0
Cl  Cl33  1  0.51455147  0.68237695  0.86205704  1  0  -0.436543  0  1.155924  0  0  -0.39999  0  1.462821  0  0  -0.418686  0  1.44503  0  0  -0.26305  -0.386727  0  1.474542  0
O  O34  1  0.21503522  0.68149188  0.46871121  1  0  -0.860366  0  1.91556  0  0  -0.797733  0  2.119394  0  0  -0.819807  0  2.08318  0  0  -0.584183  -0.782052  0  2.144623  0
O  O35  1  0.78496053  0.31849808  0.53129809  1  0  -0.860355  0  1.915661  0  0  -0.797712  0  2.119478  0  0  -0.819788  0  2.083263  0  0  -0.584195  -0.782032  0  2.144709  0
O  O36  1  0.70157318  0.62610909  0.38066244  1  0  -0.823912  0  1.928134  0  0  -0.759041  0  2.12559  0  0  -0.780467  0  2.091897  0  0  -0.551854  -0.74383  0  2.149206  0
O  O37  1  0.29842176  0.37388856  0.61933965  1  0  -0.823905  0  1.928084  0  0  -0.759033  0  2.125558  0  0  -0.780465  0  2.091854  0  0  -0.551847  -0.743817  0  2.149178  0
O  O38  1  0.56407211  0.00364238  0.37133595  1  0  -0.625178  0  1.995187  0  0  -0.559424  0  2.208697  0  0  -0.586188  0  2.199763  0  0  -0.301627  -0.540768  0  2.214434  0
O  O39  1  0.43593704  0.99635360  0.62865639  1  0  -0.624915  0  1.995613  0  0  -0.559177  0  2.20909  0  0  -0.585953  0  2.200167  0  0  -0.301516  -0.540526  0  2.214832  0
O  O40  1  0.31265552  0.25589263  0.37934776  1  0  -0.641016  0  2.035532  0  0  -0.572303  0  2.292581  0  0  -0.601304  0  2.280075  0  0  -0.315442  -0.55204  0  2.300529  0
O  O41  1  0.68734306  0.74409268  0.62065557  1  0  -0.641424  0  2.035087  0  0  -0.572693  0  2.292079  0  0  -0.601705  0  2.279572  0  0  -0.315667  -0.552417  0  2.300018  0
