# generated using pymatgen
data_CuH12C15S2IN
_symmetry_space_group_name_H-M   'P 1'
_cell_length_a   6.76729789
_cell_length_b   8.87013643
_cell_length_c   12.12831861
_cell_angle_alpha   83.25043247
_cell_angle_beta   88.96547956
_cell_angle_gamma   88.64478774
_symmetry_Int_Tables_number   1
_chemical_formula_structural   CuH12C15S2IN
_chemical_formula_sum   'Cu2 H24 C30 S4 I2 N2'
_cell_volume   722.69135309
_cell_formula_units_Z   2
loop_
 _symmetry_equiv_pos_site_id
 _symmetry_equiv_pos_as_xyz
  1  'x, y, z'
loop_
 _atom_site_type_symbol
 _atom_site_label
 _atom_site_symmetry_multiplicity
 _atom_site_fract_x
 _atom_site_fract_y
 _atom_site_fract_z
 _atom_site_occupancy
 _atom_site_hle17_bader_spin_density
 _atom_site_hle17_ddec_charge
 _atom_site_hle17_ddec_spin_density
 _atom_site_hle17_ddec_sum_bond_order
 _atom_site_hle17_magmom
 _atom_site_hse06_10hf_bader_spin_density
 _atom_site_hse06_10hf_ddec_charge
 _atom_site_hse06_10hf_ddec_spin_density
 _atom_site_hse06_10hf_ddec_sum_bond_order
 _atom_site_hse06_10hf_magmom
 _atom_site_hse06_bader_spin_density
 _atom_site_hse06_ddec_charge
 _atom_site_hse06_ddec_spin_density
 _atom_site_hse06_ddec_sum_bond_order
 _atom_site_hse06_magmom
 _atom_site_pbe_bader_spin_density
 _atom_site_pbe_cm5_charge
 _atom_site_pbe_ddec_charge
 _atom_site_pbe_ddec_spin_density
 _atom_site_pbe_ddec_sum_bond_order
 _atom_site_pbe_magmom
Cu  Cu0  1  0.40538876  0.40609978  0.93922656  1  0  0.231378  0  2.254758  0  0  0.160366  0  2.717327  0  0  0.166763  0  2.670005  0  0  0.293094  0.159094  0  2.746718  0
Cu  Cu1  1  0.59460757  0.59391383  0.06076896  1  0  0.231375  0  2.254723  0  0  0.160387  0  2.717256  0  0  0.166818  0  2.669934  0  0  0.29314  0.159113  0  2.746649  0
H  H2  1  0.03511457  0.48811540  0.78698553  1  0  0.104276  0  0.966233  0  0  0.111327  0  1.04183  0  0  0.11434  0  1.039926  0  0  0.08316  0.109024  0  1.043392  0
H  H3  1  0.96489178  0.51188454  0.21299834  1  0  0.104155  0  0.966214  0  0  0.111199  0  1.041895  0  0  0.114205  0  1.040005  0  0  0.08313  0.108897  0  1.043449  0
H  H4  1  0.14259537  0.66316257  0.73542085  1  0  0.10739  0  0.940981  0  0  0.123495  0  1.001247  0  0  0.124509  0  1.001739  0  0  0.096007  0.122761  0  1.000955  0
H  H5  1  0.85741404  0.33683402  0.26456422  1  0  0.107319  0  0.941008  0  0  0.12354  0  1.001152  0  0  0.124554  0  1.00164  0  0  0.096057  0.122806  0  1.000865  0
H  H6  1  0.85807651  0.34802229  0.66645533  1  0  0.097143  0  0.945438  0  0  0.108741  0  1.00621  0  0  0.111564  0  1.005385  0  0  0.097644  0.106686  0  1.006913  0
H  H7  1  0.14195076  0.65196739  0.33353021  1  0  0.097091  0  0.945442  0  0  0.108752  0  1.006143  0  0  0.111539  0  1.005363  0  0  0.097742  0.106699  0  1.006854  0
H  H8  1  0.25083290  0.69398293  0.52087764  1  0  0.084883  0  0.963919  0  0  0.096659  0  1.027788  0  0  0.099359  0  1.026381  0  0  0.094595  0.094761  0  1.028791  0
H  H9  1  0.74920611  0.30600767  0.47910584  1  0  0.085072  0  0.963916  0  0  0.096783  0  1.027835  0  0  0.09949  0  1.026432  0  0  0.09463  0.094882  0  1.028847  0
H  H10  1  0.26639532  0.91739932  0.84173079  1  0  0.091276  0  1.001751  0  0  0.097375  0  1.073681  0  0  0.100468  0  1.072675  0  0  0.08848  0.095094  0  1.074582  0
H  H11  1  0.73357517  0.08260420  0.15827910  1  0  0.091319  0  1.001674  0  0  0.097354  0  1.073685  0  0  0.100439  0  1.072715  0  0  0.088451  0.095078  0  1.074547  0
H  H12  1  0.28342397  0.86841972  0.64908547  1  0  0.078213  0  0.963513  0  0  0.090987  0  1.023902  0  0  0.093334  0  1.022758  0  0  0.095559  0.089246  0  1.024861  0
H  H13  1  0.71654093  0.13157272  0.35092849  1  0  0.078157  0  0.963633  0  0  0.090974  0  1.023997  0  0  0.093328  0  1.022835  0  0  0.095517  0.089251  0  1.024938  0
H  H14  1  0.35058242  0.07620218  0.49742868  1  0  0.081428  0  1.001354  0  0  0.093406  0  1.064915  0  0  0.095344  0  1.065067  0  0  0.095102  0.092065  0  1.064813  0
H  H15  1  0.64939706  0.92378152  0.50257782  1  0  0.081444  0  1.00137  0  0  0.093407  0  1.064937  0  0  0.095298  0  1.065143  0  0  0.095055  0.092063  0  1.06484  0
H  H16  1  0.40020206  0.33919457  0.54504802  1  0  0.09032  0  0.963095  0  0  0.098454  0  1.030454  0  0  0.10116  0  1.029406  0  0  0.096922  0.096483  0  1.031253  0
H  H17  1  0.59980527  0.66079320  0.45495397  1  0  0.090329  0  0.963142  0  0  0.09843  0  1.030526  0  0  0.101159  0  1.02945  0  0  0.096929  0.096462  0  1.031321  0
H  H18  1  0.23015582  0.97363255  0.97913153  1  0  0.065807  0  0.984592  0  0  0.080032  0  1.048449  0  0  0.082275  0  1.045278  0  0  0.101647  0.078318  0  1.050807  0
H  H19  1  0.76983661  0.02637862  0.02087516  1  0  0.065829  0  0.984578  0  0  0.080104  0  1.048413  0  0  0.082333  0  1.045259  0  0  0.101734  0.078391  0  1.050765  0
H  H20  1  0.25870025  0.24958850  0.36992361  1  0  0.119595  0  0.970695  0  0  0.128514  0  1.033296  0  0  0.131104  0  1.032642  0  0  0.105651  0.126649  0  1.033689  0
H  H21  1  0.74131455  0.75041708  0.63008575  1  0  0.119682  0  0.970646  0  0  0.128601  0  1.03323  0  0  0.131176  0  1.032603  0  0  0.105668  0.12674  0  1.033624  0
H  H22  1  0.15334687  0.96041330  0.37705149  1  0  0.102782  0  0.947428  0  0  0.117161  0  1.000765  0  0  0.119876  0  1.000426  0  0  0.103541  0.115251  0  1.001084  0
H  H23  1  0.84663498  0.03960219  0.62295157  1  0  0.102742  0  0.947441  0  0  0.117158  0  1.000733  0  0  0.119872  0  1.000396  0  0  0.103515  0.115261  0  1.001048  0
H  H24  1  0.16098582  0.87465921  0.17506251  1  0  0.107513  0  0.965441  0  0  0.115701  0  1.032679  0  0  0.118802  0  1.030949  0  0  0.094496  0.113444  0  1.033914  0
H  H25  1  0.83897527  0.12535980  0.82494060  1  0  0.107569  0  0.965511  0  0  0.115826  0  1.032618  0  0  0.118928  0  1.030891  0  0  0.094563  0.113577  0  1.033854  0
C  C26  1  0.13142309  0.54366285  0.72126585  1  0  -0.191847  0  3.640095  0  0  -0.229108  0  3.888585  0  0  -0.229885  0  3.898542  0  0  -0.152192  -0.228439  0  3.881796  0
C  C27  1  0.86859083  0.45633507  0.27872141  1  0  -0.191486  0  3.63985  0  0  -0.228953  0  3.88859  0  0  -0.229724  0  3.898538  0  0  -0.152173  -0.228284  0  3.881809  0
C  C28  1  0.06151257  0.52455289  0.60752077  1  0  0.09298  0  3.787439  0  0  0.113016  0  4.022291  0  0  0.112517  0  4.048318  0  0  -0.019974  0.113353  0  4.004535  0
C  C29  1  0.93851911  0.47543670  0.39246386  1  0  0.092773  0  3.787156  0  0  0.112897  0  4.021959  0  0  0.112402  0  4.047967  0  0  -0.019972  0.113233  0  4.004212  0
C  C30  1  0.92088661  0.41476734  0.59337169  1  0  -0.111323  0  3.735924  0  0  -0.131045  0  3.984873  0  0  -0.133715  0  4.00694  0  0  -0.094108  -0.129262  0  3.969954  0
C  C31  1  0.07915674  0.58522777  0.40661110  1  0  -0.111202  0  3.735678  0  0  -0.130987  0  3.984636  0  0  -0.133634  0  4.006707  0  0  -0.094224  -0.129201  0  3.969721  0
C  C32  1  0.13942343  0.60926595  0.51233327  1  0  -0.123736  0  3.75728  0  0  -0.14413  0  4.008651  0  0  -0.146743  0  4.02991  0  0  -0.096158  -0.142255  0  3.994125  0
C  C33  1  0.86060696  0.39071579  0.48765324  1  0  -0.123804  0  3.757319  0  0  -0.14415  0  4.008589  0  0  -0.146769  0  4.029854  0  0  -0.096182  -0.14228  0  3.99407  0
C  C34  1  0.35654426  0.27760533  0.72016698  1  0  -0.034023  0  3.706225  0  0  -0.010195  0  3.947601  0  0  -0.013411  0  3.97162  0  0  -0.016032  -0.008536  0  3.931746  0
C  C35  1  0.64346440  0.72239157  0.27983459  1  0  -0.034061  0  3.706182  0  0  -0.01025  0  3.947572  0  0  -0.013466  0  3.971597  0  0  -0.01604  -0.008586  0  3.931711  0
C  C36  1  0.31788894  0.16042445  0.80732041  1  0  0.188225  0  3.741039  0  0  0.18407  0  3.982695  0  0  0.188814  0  4.006725  0  0  0.089138  0.181073  0  3.966711  0
C  C37  1  0.68210791  0.83957607  0.19268262  1  0  0.188249  0  3.741016  0  0  0.184097  0  3.98267  0  0  0.188844  0  4.0067  0  0  0.089154  0.181095  0  3.96669  0
C  C38  1  0.29319122  0.01281310  0.77837921  1  0  -0.141141  0  3.726684  0  0  -0.157285  0  3.971285  0  0  -0.163462  0  3.995556  0  0  -0.09255  -0.153404  0  3.955429  0
C  C39  1  0.70678964  0.98718688  0.22163006  1  0  -0.141221  0  3.726905  0  0  -0.157276  0  3.971401  0  0  -0.16346  0  3.99565  0  0  -0.092473  -0.15338  0  3.955573  0
C  C40  1  0.30362056  0.98386106  0.66842141  1  0  -0.044301  0  3.798257  0  0  -0.057064  0  4.045844  0  0  -0.057245  0  4.067495  0  0  -0.089768  -0.056769  0  4.031327  0
C  C41  1  0.69635735  0.01613306  0.33158623  1  0  -0.044283  0  3.798484  0  0  -0.057102  0  4.046067  0  0  -0.057279  0  4.067708  0  0  -0.089791  -0.056827  0  4.031558  0
C  C42  1  0.34055434  0.10010200  0.58324403  1  0  -0.094143  0  3.800438  0  0  -0.107569  0  4.046743  0  0  -0.111364  0  4.069591  0  0  -0.102625  -0.105108  0  4.031253  0
C  C43  1  0.65943102  0.89988513  0.41676270  1  0  -0.094257  0  3.800358  0  0  -0.107667  0  4.046664  0  0  -0.111429  0  4.069533  0  0  -0.102677  -0.105214  0  4.031198  0
C  C44  1  0.36927592  0.24623443  0.60972037  1  0  -0.095852  0  3.79172  0  0  -0.113937  0  4.033426  0  0  -0.115606  0  4.057042  0  0  -0.094003  -0.112604  0  4.017411  0
C  C45  1  0.63072716  0.75375493  0.39028647  1  0  -0.095725  0  3.791678  0  0  -0.113777  0  4.033398  0  0  -0.115455  0  4.056989  0  0  -0.093892  -0.112437  0  4.017366  0
C  C46  1  0.26224216  0.08877179  0.99757072  1  0  0.15198  0  3.686749  0  0  0.110442  0  3.94325  0  0  0.12726  0  3.95161  0  0  0.058495  0.099178  0  3.937783  0
C  C47  1  0.73774269  0.91124141  0.00243258  1  0  0.152001  0  3.686455  0  0  0.110369  0  3.943096  0  0  0.127196  0  3.951459  0  0  0.058435  0.099107  0  3.937636  0
C  C48  1  0.25054585  0.10402267  0.11271892  1  0  -0.051641  0  3.788347  0  0  -0.03192  0  4.054526  0  0  -0.040196  0  4.078051  0  0  -0.026959  -0.02664  0  4.039095  0
C  C49  1  0.74942868  0.89599300  0.88728596  1  0  -0.051492  0  3.788342  0  0  -0.031809  0  4.054614  0  0  -0.040085  0  4.078145  0  0  -0.026995  -0.026545  0  4.039203  0
C  C50  1  0.24885940  0.18306995  0.30060893  1  0  -0.15669  0  3.685986  0  0  -0.171439  0  3.963786  0  0  -0.170091  0  3.980234  0  0  -0.095185  -0.171848  0  3.952463  0
C  C51  1  0.75115517  0.81693634  0.69939538  1  0  -0.156744  0  3.685932  0  0  -0.171493  0  3.963738  0  0  -0.170132  0  3.980155  0  0  -0.095184  -0.171908  0  3.952414  0
C  C52  1  0.19414964  0.03335286  0.30202450  1  0  -0.087168  0  3.810655  0  0  -0.10401  0  4.068121  0  0  -0.108701  0  4.089448  0  0  -0.109174  -0.101017  0  4.053706  0
C  C53  1  0.80583844  0.96665735  0.69798407  1  0  -0.087148  0  3.81087  0  0  -0.104019  0  4.068322  0  0  -0.108707  0  4.08964  0  0  -0.109205  -0.101045  0  4.053916  0
C  C54  1  0.19607064  0.98761532  0.19491136  1  0  -0.082693  0  3.711318  0  0  -0.111005  0  3.969294  0  0  -0.107343  0  3.987895  0  0  -0.0935  -0.113221  0  3.95684  0
C  C55  1  0.80389655  0.01240167  0.80509517  1  0  -0.082976  0  3.711524  0  0  -0.111302  0  3.96949  0  0  -0.107643  0  3.988096  0  0  -0.093573  -0.113518  0  3.957019  0
S  S56  1  0.38628556  0.46777306  0.74670521  1  0  0.008673  0  2.722992  0  0  0.016525  0  3.119866  0  0  0.017843  0  3.110934  0  0  -0.030913  0.015566  0  3.125732  0
S  S57  1  0.61372737  0.53222111  0.25329166  1  0  0.008607  0  2.722887  0  0  0.016483  0  3.11986  0  0  0.017784  0  3.11094  0  0  -0.030963  0.015523  0  3.125729  0
S  S58  1  0.30210565  0.26835602  0.17014729  1  0  0.152994  0  2.82023  0  0  0.157301  0  3.184038  0  0  0.162772  0  3.1862  0  0  0.082405  0.152062  0  3.183396  0
S  S59  1  0.69789588  0.73165205  0.82986372  1  0  0.153017  0  2.820094  0  0  0.157357  0  3.183875  0  0  0.162819  0  3.18604  0  0  0.082467  0.152126  0  3.183229  0
I  I60  1  0.22054852  0.64006334  0.01282615  1  0  -0.426581  0  1.568293  0  0  -0.38463  0  1.988611  0  0  -0.406178  0  1.957779  0  0  -0.202235  -0.36915  0  2.008197  0
I  I61  1  0.77944938  0.35994928  0.98717112  1  0  -0.426569  0  1.568276  0  0  -0.384601  0  1.988568  0  0  -0.406169  0  1.957785  0  0  -0.202233  -0.369116  0  2.008144  0
N  N62  1  0.30799083  0.19624129  0.91823981  1  0  -0.315753  0  3.304127  0  0  -0.250304  0  3.596255  0  0  -0.264215  0  3.602532  0  0  -0.360576  -0.241929  0  3.592054  0
N  N63  1  0.69200435  0.80377063  0.08176258  1  0  -0.315727  0  3.303846  0  0  -0.250263  0  3.595999  0  0  -0.26418  0  3.602285  0  0  -0.360593  -0.241892  0  3.591805  0
