# generated using pymatgen
data_AgH5C5SN2O3
_symmetry_space_group_name_H-M   'P 1'
_cell_length_a   7.85204589
_cell_length_b   8.14797134
_cell_length_c   11.53227732
_cell_angle_alpha   89.99935546
_cell_angle_beta   89.99962073
_cell_angle_gamma   102.26511616
_symmetry_Int_Tables_number   1
_chemical_formula_structural   AgH5C5SN2O3
_chemical_formula_sum   'Ag4 H20 C20 S4 N8 O12'
_cell_volume   720.97430715
_cell_formula_units_Z   4
loop_
 _symmetry_equiv_pos_site_id
 _symmetry_equiv_pos_as_xyz
  1  'x, y, z'
loop_
 _atom_site_type_symbol
 _atom_site_label
 _atom_site_symmetry_multiplicity
 _atom_site_fract_x
 _atom_site_fract_y
 _atom_site_fract_z
 _atom_site_occupancy
 _atom_site_hle17_bader_spin_density
 _atom_site_hle17_ddec_charge
 _atom_site_hle17_ddec_spin_density
 _atom_site_hle17_ddec_sum_bond_order
 _atom_site_hle17_magmom
 _atom_site_hse06_10hf_bader_spin_density
 _atom_site_hse06_10hf_ddec_charge
 _atom_site_hse06_10hf_ddec_spin_density
 _atom_site_hse06_10hf_ddec_sum_bond_order
 _atom_site_hse06_10hf_magmom
 _atom_site_hse06_bader_spin_density
 _atom_site_hse06_ddec_charge
 _atom_site_hse06_ddec_spin_density
 _atom_site_hse06_ddec_sum_bond_order
 _atom_site_hse06_magmom
 _atom_site_pbe_bader_spin_density
 _atom_site_pbe_cm5_charge
 _atom_site_pbe_ddec_charge
 _atom_site_pbe_ddec_spin_density
 _atom_site_pbe_ddec_sum_bond_order
 _atom_site_pbe_magmom
Ag  Ag0  1  0.17264639  0.07280816  0.56251614  1  0  0.584532  0  1.352625  0  0  0.453465  0  1.7923  0  0  0.482105  0  1.742441  0  0  0.468945  0.433693  0  1.826636  0
Ag  Ag1  1  0.32735248  0.92718869  0.06250885  1  0  0.584537  0  1.352645  0  0  0.453431  0  1.792371  0  0  0.482071  0  1.742518  0  0  0.468953  0.433655  0  1.826698  0
Ag  Ag2  1  0.82735564  0.92719267  0.43748656  1  0  0.58457  0  1.352699  0  0  0.453463  0  1.79245  0  0  0.482102  0  1.742592  0  0  0.468983  0.433693  0  1.826786  0
Ag  Ag3  1  0.67264957  0.07280709  0.93748691  1  0  0.584507  0  1.352761  0  0  0.453466  0  1.792469  0  0  0.482101  0  1.742612  0  0  0.46897  0.433693  0  1.826805  0
H  H4  1  0.11014619  0.01650365  0.32207484  1  0  0.327264  0  0.92934  0  0  0.312001  0  0.990589  0  0  0.319233  0  0.984646  0  0  0.293475  0.306833  0  0.994814  0
H  H5  1  0.38985690  0.98350956  0.82206705  1  0  0.32722  0  0.92941  0  0  0.311958  0  0.990681  0  0  0.319191  0  0.98474  0  0  0.293458  0.306788  0  0.9949  0
H  H6  1  0.88985612  0.98350349  0.67793046  1  0  0.327272  0  0.929312  0  0  0.311997  0  0.990594  0  0  0.319235  0  0.984649  0  0  0.293455  0.306828  0  0.994812  0
H  H7  1  0.61014670  0.01649249  0.17792871  1  0  0.327285  0  0.929272  0  0  0.311995  0  0.990546  0  0  0.319233  0  0.984611  0  0  0.29347  0.306809  0  0.994793  0
H  H8  1  0.96240476  0.06486214  0.22869653  1  0  0.342355  0  0.881287  0  0  0.327222  0  0.936638  0  0  0.334185  0  0.931702  0  0  0.302728  0.322275  0  0.940137  0
H  H9  1  0.53759921  0.93514547  0.72869246  1  0  0.34241  0  0.881282  0  0  0.327274  0  0.936652  0  0  0.334237  0  0.93171  0  0  0.302783  0.322325  0  0.940151  0
H  H10  1  0.03759789  0.93514120  0.77130877  1  0  0.342399  0  0.881143  0  0  0.327247  0  0.936533  0  0  0.334211  0  0.93159  0  0  0.302738  0.322296  0  0.940038  0
H  H11  1  0.46240284  0.06485030  0.27130330  1  0  0.342402  0  0.881187  0  0  0.327194  0  0.936661  0  0  0.334154  0  0.931728  0  0  0.302741  0.322248  0  0.940163  0
H  H12  1  0.96055994  0.35547396  0.19333378  1  0  0.124218  0  0.947253  0  0  0.134517  0  1.003737  0  0  0.13725  0  1.004403  0  0  0.110622  0.132543  0  1.003523  0
H  H13  1  0.53944133  0.64453693  0.69332764  1  0  0.124186  0  0.947412  0  0  0.13455  0  1.003845  0  0  0.137284  0  1.004512  0  0  0.11064  0.132576  0  1.00363  0
H  H14  1  0.03943953  0.64453199  0.80666719  1  0  0.124225  0  0.947376  0  0  0.134544  0  1.003849  0  0  0.137274  0  1.004515  0  0  0.11065  0.132571  0  1.003628  0
H  H15  1  0.46055534  0.35545772  0.30667679  1  0  0.124229  0  0.947332  0  0  0.13458  0  1.003766  0  0  0.137317  0  1.004435  0  0  0.110657  0.132604  0  1.003556  0
H  H16  1  0.08825273  0.65292470  0.24899836  1  0  0.116287  0  0.981039  0  0  0.123461  0  1.046492  0  0  0.127179  0  1.042783  0  0  0.107569  0.12071  0  1.049173  0
H  H17  1  0.41175481  0.34709865  0.74899807  1  0  0.116349  0  0.981115  0  0  0.123509  0  1.046553  0  0  0.127225  0  1.042852  0  0  0.107613  0.120757  0  1.049233  0
H  H18  1  0.91174641  0.34708505  0.75100261  1  0  0.116308  0  0.981108  0  0  0.123491  0  1.046534  0  0  0.127208  0  1.042827  0  0  0.107586  0.120739  0  1.049213  0
H  H19  1  0.58825066  0.65291094  0.25100550  1  0  0.116307  0  0.981166  0  0  0.123438  0  1.046628  0  0  0.127153  0  1.042927  0  0  0.107574  0.120686  0  1.049309  0
H  H20  1  0.31476836  0.46075070  0.54791267  1  0  0.090217  0  0.941566  0  0  0.099048  0  1.008063  0  0  0.101479  0  1.005452  0  0  0.118739  0.097233  0  1.009978  0
H  H21  1  0.18521108  0.53924947  0.04791081  1  0  0.090272  0  0.941463  0  0  0.09905  0  1.008024  0  0  0.101501  0  1.005392  0  0  0.118738  0.097236  0  1.009941  0
H  H22  1  0.68521943  0.53924924  0.45208569  1  0  0.090216  0  0.94157  0  0  0.099008  0  1.008108  0  0  0.101459  0  1.005473  0  0  0.118716  0.097194  0  1.010025  0
H  H23  1  0.81478116  0.46074783  0.95209016  1  0  0.090322  0  0.941467  0  0  0.099123  0  1.007996  0  0  0.101575  0  1.005362  0  0  0.118741  0.097308  0  1.009912  0
C  C24  1  0.07314189  0.25338500  0.34018837  1  0  0.470785  0  3.759649  0  0  0.442846  0  4.010534  0  0  0.461964  0  4.025521  0  0  0.221141  0.429946  0  4.00019  0
C  C25  1  0.42685656  0.74662040  0.84017794  1  0  0.47041  0  3.760004  0  0  0.442829  0  4.010493  0  0  0.461949  0  4.025478  0  0  0.221205  0.429936  0  4.000133  0
C  C26  1  0.92685730  0.74661464  0.65981520  1  0  0.470722  0  3.759706  0  0  0.44282  0  4.010567  0  0  0.461942  0  4.025557  0  0  0.22112  0.4299  0  4.000244  0
C  C27  1  0.57314172  0.25337042  0.15981349  1  0  0.470605  0  3.759784  0  0  0.442927  0  4.010364  0  0  0.46208  0  4.025308  0  0  0.221224  0.429979  0  4.000089  0
C  C28  1  0.03806502  0.38449884  0.27181635  1  0  -0.184945  0  3.651905  0  0  -0.196605  0  3.899896  0  0  -0.207168  0  3.919995  0  0  -0.084686  -0.19  0  3.886708  0
C  C29  1  0.46192740  0.61551057  0.77180593  1  0  -0.184675  0  3.65204  0  0  -0.196578  0  3.900007  0  0  -0.207142  0  3.920104  0  0  -0.084709  -0.189973  0  3.886813  0
C  C30  1  0.96192404  0.61550107  0.72819155  1  0  -0.184899  0  3.651961  0  0  -0.196645  0  3.900024  0  0  -0.207205  0  3.920117  0  0  -0.084745  -0.190031  0  3.886835  0
C  C31  1  0.53806104  0.38448683  0.22818724  1  0  -0.184887  0  3.651797  0  0  -0.196702  0  3.899735  0  0  -0.207282  0  3.919827  0  0  -0.084788  -0.190081  0  3.886565  0
C  C32  1  0.11022816  0.54912419  0.30258397  1  0  -0.003555  0  3.720823  0  0  -0.033204  0  3.968175  0  0  -0.026457  0  3.985514  0  0  -0.069685  -0.037353  0  3.956561  0
C  C33  1  0.38976698  0.45088708  0.80257603  1  0  -0.003694  0  3.721019  0  0  -0.033287  0  3.968429  0  0  -0.026542  0  3.985766  0  0  -0.06972  -0.03743  0  3.956805  0
C  C34  1  0.88977102  0.45087545  0.69741787  1  0  -0.003646  0  3.720957  0  0  -0.03327  0  3.968334  0  0  -0.02652  0  3.985672  0  0  -0.069687  -0.037419  0  3.956718  0
C  C35  1  0.61022268  0.54912039  0.19741887  1  0  -0.003649  0  3.720847  0  0  -0.033215  0  3.968272  0  0  -0.02647  0  3.985614  0  0  -0.069686  -0.037365  0  3.956654  0
C  C36  1  0.21642703  0.57893520  0.40105419  1  0  -0.191606  0  3.751877  0  0  -0.162183  0  4.001488  0  0  -0.176417  0  4.026093  0  0  -0.027861  -0.153271  0  3.985336  0
C  C37  1  0.28357502  0.42106641  0.90104523  1  0  -0.191567  0  3.752044  0  0  -0.162156  0  4.001657  0  0  -0.176386  0  4.026257  0  0  -0.027875  -0.153252  0  3.985517  0
C  C38  1  0.78357505  0.42105552  0.59895112  1  0  -0.191527  0  3.751777  0  0  -0.162137  0  4.001411  0  0  -0.176373  0  4.026024  0  0  -0.027899  -0.153228  0  3.985266  0
C  C39  1  0.71642889  0.57893690  0.09895140  1  0  -0.191527  0  3.751799  0  0  -0.162161  0  4.001482  0  0  -0.176388  0  4.026087  0  0  -0.027847  -0.153241  0  3.985315  0
C  C40  1  0.23724773  0.44324569  0.46881839  1  0  0.14142  0  3.712561  0  0  0.09755  0  3.965536  0  0  0.108835  0  3.98212  0  0  0.047746  0.090265  0  3.954262  0
C  C41  1  0.26274736  0.55675606  0.96881453  1  0  0.14135  0  3.712238  0  0  0.097501  0  3.965249  0  0  0.108778  0  3.981829  0  0  0.047779  0.090215  0  3.95398  0
C  C42  1  0.76275368  0.55675263  0.53118171  1  0  0.141352  0  3.712334  0  0  0.097525  0  3.965293  0  0  0.108801  0  3.981878  0  0  0.047767  0.090238  0  3.954022  0
C  C43  1  0.73724712  0.44323486  0.03118643  1  0  0.141164  0  3.712398  0  0  0.09732  0  3.965419  0  0  0.108593  0  3.982008  0  0  0.047706  0.090034  0  3.954139  0
S  S44  1  0.34144294  0.78270079  0.43361128  1  0  1.302321  0  5.668857  0  0  1.204083  0  6.17971  0  0  1.252774  0  6.157147  0  0  0.504144  1.170537  0  6.194208  0
S  S45  1  0.15856589  0.21730886  0.93360623  1  0  1.302482  0  5.669184  0  0  1.204262  0  6.179985  0  0  1.252946  0  6.157416  0  0  0.504094  1.170718  0  6.194486  0
S  S46  1  0.65856100  0.21729746  0.56638795  1  0  1.302181  0  5.669307  0  0  1.203935  0  6.180169  0  0  1.252627  0  6.157609  0  0  0.503963  1.170387  0  6.194669  0
S  S47  1  0.84144590  0.78270056  0.06639473  1  0  1.302356  0  5.668898  0  0  1.204098  0  6.179757  0  0  1.252789  0  6.157197  0  0  0.504094  1.170547  0  6.194257  0
N  N48  1  0.16538808  0.28380985  0.43982751  1  0  -0.405991  0  3.26235  0  0  -0.326471  0  3.547407  0  0  -0.348794  0  3.559622  0  0  -0.346534  -0.311466  0  3.538827  0
N  N49  1  0.33461276  0.71619862  0.93982034  1  0  -0.405863  0  3.262241  0  0  -0.326399  0  3.547134  0  0  -0.348738  0  3.559371  0  0  -0.346533  -0.311395  0  3.538548  0
N  N50  1  0.83460568  0.71619878  0.56017259  1  0  -0.405918  0  3.262255  0  0  -0.326366  0  3.547239  0  0  -0.348699  0  3.559472  0  0  -0.346488  -0.311353  0  3.538663  0
N  N51  1  0.66539187  0.28378698  0.06016936  1  0  -0.405785  0  3.262339  0  0  -0.326329  0  3.547319  0  0  -0.348675  0  3.559546  0  0  -0.346528  -0.311311  0  3.538756  0
N  N52  1  0.01494756  0.08513529  0.31017254  1  0  -0.687821  0  3.197393  0  0  -0.623999  0  3.440862  0  0  -0.647327  0  3.435836  0  0  -0.61308  -0.607658  0  3.443844  0
N  N53  1  0.48505194  0.91486813  0.81016659  1  0  -0.687734  0  3.197567  0  0  -0.624044  0  3.440957  0  0  -0.647363  0  3.435924  0  0  -0.613189  -0.60772  0  3.443977  0
N  N54  1  0.98504563  0.91486071  0.68983450  1  0  -0.687866  0  3.197251  0  0  -0.62401  0  3.440676  0  0  -0.647345  0  3.435657  0  0  -0.613079  -0.60768  0  3.443705  0
N  N55  1  0.51495075  0.08512510  0.18982830  1  0  -0.687836  0  3.197308  0  0  -0.624002  0  3.440722  0  0  -0.647344  0  3.435685  0  0  -0.613131  -0.607611  0  3.443716  0
O  O56  1  0.52081695  0.77077804  0.40432703  1  0  -0.670578  0  2.042231  0  0  -0.608551  0  2.320373  0  0  -0.632423  0  2.303601  0  0  -0.346067  -0.591617  0  2.33132  0
O  O57  1  0.97919221  0.22922100  0.90432997  1  0  -0.670577  0  2.042309  0  0  -0.608596  0  2.320495  0  0  -0.63247  0  2.303725  0  0  -0.34603  -0.591659  0  2.331436  0
O  O58  1  0.47918888  0.22922270  0.59567567  1  0  -0.670467  0  2.042171  0  0  -0.608463  0  2.320338  0  0  -0.632336  0  2.303567  0  0  -0.345965  -0.591526  0  2.331279  0
O  O59  1  0.02081808  0.77077203  0.09566840  1  0  -0.670523  0  2.042318  0  0  -0.608494  0  2.320471  0  0  -0.632368  0  2.3037  0  0  -0.346011  -0.591558  0  2.331415  0
O  O60  1  0.31605235  0.81379776  0.55709854  1  0  -0.659389  0  1.983215  0  0  -0.605583  0  2.249872  0  0  -0.62865  0  2.237387  0  0  -0.346959  -0.589274  0  2.257884  0
O  O61  1  0.18396553  0.18620880  0.05708471  1  0  -0.659464  0  1.983299  0  0  -0.60567  0  2.249977  0  0  -0.628737  0  2.23749  0  0  -0.34699  -0.589369  0  2.257998  0
O  O62  1  0.68395756  0.18620918  0.44290850  1  0  -0.659311  0  1.983375  0  0  -0.605542  0  2.250113  0  0  -0.628605  0  2.237627  0  0  -0.346926  -0.589239  0  2.258131  0
O  O63  1  0.81603463  0.81378450  0.94290845  1  0  -0.659399  0  1.983027  0  0  -0.605615  0  2.249734  0  0  -0.628681  0  2.237248  0  0  -0.346973  -0.589306  0  2.25775  0
O  O64  1  0.27566971  0.89957625  0.35608075  1  0  -0.69557  0  2.03436  0  0  -0.637615  0  2.296542  0  0  -0.657786  0  2.278398  0  0  -0.340237  -0.623408  0  2.308644  0
O  O65  1  0.22433198  0.10043255  0.85607199  1  0  -0.695633  0  2.034344  0  0  -0.637673  0  2.296519  0  0  -0.657835  0  2.278366  0  0  -0.340226  -0.623462  0  2.308619  0
O  O66  1  0.72433671  0.10043204  0.64392195  1  0  -0.695551  0  2.034466  0  0  -0.637579  0  2.296639  0  0  -0.657755  0  2.278494  0  0  -0.340181  -0.623366  0  2.308735  0
O  O67  1  0.77567163  0.89956950  0.14393071  1  0  -0.695583  0  2.03436  0  0  -0.637585  0  2.296537  0  0  -0.657757  0  2.278386  0  0  -0.340213  -0.623374  0  2.308637  0
