# generated using pymatgen
data_CuH14C15I(N3O)2
_symmetry_space_group_name_H-M   'P 1'
_cell_length_a   9.63684600
_cell_length_b   10.06526123
_cell_length_c   10.13553283
_cell_angle_alpha   101.65977696
_cell_angle_beta   96.31056132
_cell_angle_gamma   116.52286496
_symmetry_Int_Tables_number   1
_chemical_formula_structural   CuH14C15I(N3O)2
_chemical_formula_sum   'Cu2 H28 C30 I2 N12 O4'
_cell_volume   838.72454061
_cell_formula_units_Z   2
loop_
 _symmetry_equiv_pos_site_id
 _symmetry_equiv_pos_as_xyz
  1  'x, y, z'
loop_
 _atom_site_type_symbol
 _atom_site_label
 _atom_site_symmetry_multiplicity
 _atom_site_fract_x
 _atom_site_fract_y
 _atom_site_fract_z
 _atom_site_occupancy
 _atom_site_hle17_bader_spin_density
 _atom_site_hle17_ddec_charge
 _atom_site_hle17_ddec_spin_density
 _atom_site_hle17_ddec_sum_bond_order
 _atom_site_hle17_magmom
 _atom_site_hse06_10hf_bader_spin_density
 _atom_site_hse06_10hf_ddec_charge
 _atom_site_hse06_10hf_ddec_spin_density
 _atom_site_hse06_10hf_ddec_sum_bond_order
 _atom_site_hse06_10hf_magmom
 _atom_site_hse06_bader_spin_density
 _atom_site_hse06_ddec_charge
 _atom_site_hse06_ddec_spin_density
 _atom_site_hse06_ddec_sum_bond_order
 _atom_site_hse06_magmom
 _atom_site_pbe_bader_spin_density
 _atom_site_pbe_cm5_charge
 _atom_site_pbe_ddec_charge
 _atom_site_pbe_ddec_spin_density
 _atom_site_pbe_ddec_sum_bond_order
 _atom_site_pbe_magmom
Cu  Cu0  1  0.59506405  0.14044067  0.59949406  1  0  0.309238  0  2.113372  0  0  0.208731  0  2.610797  0  0  0.213611  0  2.560839  0  0  0.34477  0.208962  0  2.641352  0
Cu  Cu1  1  0.40493587  0.85956091  0.40050619  1  0  0.309221  0  2.113373  0  0  0.208696  0  2.610794  0  0  0.213579  0  2.560833  0  0  0.344772  0.208942  0  2.641353  0
H  H2  1  0.22386844  0.53703606  0.66261747  1  0  0.109459  0  0.9917  0  0  0.115256  0  1.060128  0  0  0.117934  0  1.060263  0  0  0.096903  0.114424  0  1.057857  0
H  H3  1  0.77613195  0.46296436  0.33738358  1  0  0.109442  0  0.991676  0  0  0.115257  0  1.06009  0  0  0.117933  0  1.060226  0  0  0.096896  0.114423  0  1.057822  0
H  H4  1  0.99459341  0.31922445  0.47685273  1  0  0.093482  0  0.960323  0  0  0.103321  0  1.023501  0  0  0.105776  0  1.023186  0  0  0.094263  0.101135  0  1.024343  0
H  H5  1  0.00540873  0.68077947  0.52314627  1  0  0.093487  0  0.96029  0  0  0.10332  0  1.023474  0  0  0.105773  0  1.023161  0  0  0.094257  0.101135  0  1.024316  0
H  H6  1  0.00754820  0.08749811  0.36165773  1  0  0.082794  0  0.974768  0  0  0.091412  0  1.041196  0  0  0.094349  0  1.040098  0  0  0.093081  0.088973  0  1.042799  0
H  H7  1  0.99245561  0.91250699  0.63833874  1  0  0.082852  0  0.97468  0  0  0.091434  0  1.041154  0  0  0.094387  0  1.040036  0  0  0.093072  0.08899  0  1.042765  0
H  H8  1  0.24978391  0.05824908  0.42293987  1  0  0.105234  0  1.001032  0  0  0.102766  0  1.084838  0  0  0.107394  0  1.079777  0  0  0.098645  0.099313  0  1.088711  0
H  H9  1  0.75021815  0.94175253  0.57705767  1  0  0.105227  0  1.001023  0  0  0.102739  0  1.084856  0  0  0.107361  0  1.079805  0  0  0.098628  0.099284  0  1.088728  0
H  H10  1  0.60695430  0.79926271  0.76969733  1  0  0.066532  0  0.967498  0  0  0.075378  0  1.041963  0  0  0.076352  0  1.041735  0  0  0.08932  0.074472  0  1.042331  0
H  H11  1  0.39304398  0.20073770  0.23030446  1  0  0.066572  0  0.967471  0  0  0.07541  0  1.041949  0  0  0.076389  0  1.041721  0  0  0.089328  0.074504  0  1.042319  0
H  H12  1  0.75141861  0.73650028  0.80923384  1  0  0.068304  0  0.931011  0  0  0.076929  0  1.001128  0  0  0.077503  0  1.000939  0  0  0.105709  0.076136  0  1.002039  0
H  H13  1  0.24857972  0.26350015  0.19076500  1  0  0.068277  0  0.931026  0  0  0.076909  0  1.001144  0  0  0.077483  0  1.000956  0  0  0.105716  0.076117  0  1.002054  0
H  H14  1  0.62632856  0.89178040  0.02428534  1  0  0.098451  0  0.916712  0  0  0.116307  0  0.972946  0  0  0.11711  0  0.97373  0  0  0.10112  0.114928  0  0.973844  0
H  H15  1  0.37367243  0.10822119  0.97571405  1  0  0.098438  0  0.916711  0  0  0.116286  0  0.972942  0  0  0.117087  0  0.973727  0  0  0.101119  0.114908  0  0.973839  0
H  H16  1  0.81045413  0.98651689  0.97821673  1  0  0.09965  0  0.945093  0  0  0.109038  0  1.015087  0  0  0.110382  0  1.014539  0  0  0.103207  0.10778  0  1.01589  0
H  H17  1  0.18954836  0.01348354  0.02178358  1  0  0.099611  0  0.945108  0  0  0.108986  0  1.015114  0  0  0.110329  0  1.014566  0  0  0.103186  0.107728  0  1.015916  0
H  H18  1  0.84275896  0.91306689  0.19705962  1  0  0.060668  0  0.941771  0  0  0.072808  0  1.011278  0  0  0.07384  0  1.010088  0  0  0.100912  0.071677  0  1.012945  0
H  H19  1  0.15724029  0.08693122  0.80293985  1  0  0.060682  0  0.941797  0  0  0.072822  0  1.011301  0  0  0.073852  0  1.010115  0  0  0.100923  0.071691  0  1.012968  0
H  H20  1  0.71110737  0.71335114  0.10590386  1  0  0.067794  0  0.930895  0  0  0.076071  0  1.0017  0  0  0.077209  0  1.000789  0  0  0.104993  0.075147  0  1.002704  0
H  H21  1  0.28888769  0.28664695  0.89409611  1  0  0.067778  0  0.930985  0  0  0.076113  0  1.001703  0  0  0.077242  0  1.000816  0  0  0.105  0.07519  0  1.002704  0
H  H22  1  0.15555411  0.49187765  0.33198236  1  0  0.107651  0  0.968512  0  0  0.112168  0  1.039192  0  0  0.115175  0  1.037581  0  0  0.103707  0.109643  0  1.041517  0
H  H23  1  0.84444792  0.50812394  0.66801715  1  0  0.107682  0  0.968601  0  0  0.112212  0  1.039259  0  0  0.115221  0  1.037646  0  0  0.103726  0.109687  0  1.041586  0
H  H24  1  0.91529743  0.23861457  0.20634241  1  0  0.089327  0  0.960777  0  0  0.101836  0  1.020878  0  0  0.104374  0  1.020213  0  0  0.092923  0.099953  0  1.021395  0
H  H25  1  0.08470822  0.76138588  0.79365629  1  0  0.089318  0  0.960769  0  0  0.101808  0  1.020884  0  0  0.104347  0  1.020221  0  0  0.092915  0.099925  0  1.021398  0
H  H26  1  0.70387435  0.22235256  0.03243529  1  0  0.095809  0  0.935447  0  0  0.107995  0  0.993819  0  0  0.110895  0  0.992673  0  0  0.101047  0.105352  0  0.995595  0
H  H27  1  0.29612911  0.77764557  0.96756269  1  0  0.095769  0  0.935435  0  0  0.10796  0  0.993808  0  0  0.110864  0  0.992659  0  0  0.101045  0.105316  0  0.995584  0
H  H28  1  0.72035974  0.45909439  0.97692683  1  0  0.114464  0  0.975299  0  0  0.11131  0  1.056836  0  0  0.115842  0  1.052585  0  0  0.104446  0.108271  0  1.059755  0
H  H29  1  0.27963938  0.54090139  0.02307413  1  0  0.114428  0  0.975324  0  0  0.111275  0  1.056858  0  0  0.115806  0  1.052603  0  0  0.104441  0.108236  0  1.059777  0
C  C30  1  0.35755005  0.41023712  0.64941009  1  0  0.058755  0  3.808183  0  0  0.045857  0  4.060122  0  0  0.049298  0  4.081594  0  0  0.099796  0.043745  0  4.046283  0
C  C31  1  0.64245022  0.58976097  0.35059147  1  0  0.058815  0  3.80818  0  0  0.045877  0  4.060144  0  0  0.049313  0  4.081619  0  0  0.099811  0.043767  0  4.046305  0
C  C32  1  0.22712226  0.43265055  0.61195077  1  0  -0.134744  0  3.753644  0  0  -0.15349  0  4.00664  0  0  -0.15708  0  4.026769  0  0  -0.095342  -0.151896  0  3.992971  0
C  C33  1  0.77287928  0.56735219  0.38804989  1  0  -0.1347  0  3.75373  0  0  -0.153457  0  4.006728  0  0  -0.157048  0  4.026862  0  0  -0.095332  -0.151867  0  3.993064  0
C  C34  1  0.10281639  0.31249497  0.50773594  1  0  -0.04901  0  3.737485  0  0  -0.064613  0  3.98716  0  0  -0.065105  0  4.008669  0  0  -0.088841  -0.064207  0  3.973783  0
C  C35  1  0.89718567  0.68750665  0.49226160  1  0  -0.049088  0  3.737431  0  0  -0.064683  0  3.987109  0  0  -0.065175  0  4.008624  0  0  -0.08889  -0.064277  0  3.973732  0
C  C36  1  0.11042037  0.17871754  0.44099338  1  0  -0.071805  0  3.750697  0  0  -0.087813  0  4.00289  0  0  -0.091867  0  4.026211  0  0  -0.09519  -0.085134  0  3.988287  0
C  C37  1  0.88958342  0.82128755  0.55900407  1  0  -0.071805  0  3.75064  0  0  -0.087789  0  4.002812  0  0  -0.091851  0  4.02613  0  0  -0.095131  -0.085106  0  3.988207  0
C  C38  1  0.24268604  0.15994898  0.47485377  1  0  -0.118104  0  3.738488  0  0  -0.136412  0  3.98842  0  0  -0.137487  0  4.008599  0  0  -0.087232  -0.135763  0  3.975174  0
C  C39  1  0.75731603  0.84005263  0.52514279  1  0  -0.11805  0  3.738641  0  0  -0.13635  0  3.98853  0  0  -0.137422  0  4.008709  0  0  -0.087217  -0.135701  0  3.975278  0
C  C40  1  0.36784435  0.27856019  0.58219125  1  0  0.105915  0  3.824655  0  0  0.107749  0  4.065417  0  0  0.106232  0  4.089699  0  0  0.088321  0.108993  0  4.048728  0
C  C41  1  0.63215717  0.72144255  0.41781040  1  0  0.105732  0  3.824747  0  0  0.107641  0  4.065436  0  0  0.106123  0  4.089723  0  0  0.088286  0.108885  0  4.048749  0
C  C42  1  0.65918895  0.76015829  0.84523681  1  0  0.074293  0  3.55868  0  0  0.007741  0  3.836739  0  0  0.015362  0  3.840403  0  0  -0.07065  0.002779  0  3.833995  0
C  C43  1  0.34080877  0.23984097  0.15476370  1  0  0.074281  0  3.558735  0  0  0.007694  0  3.8368  0  0  0.015308  0  3.840468  0  0  -0.070681  0.002737  0  3.834052  0
C  C44  1  0.72216717  0.87463591  0.98766920  1  0  -0.1704  0  3.696148  0  0  -0.208587  0  3.954492  0  0  -0.211488  0  3.966257  0  0  -0.165226  -0.206082  0  3.945859  0
C  C45  1  0.27783265  0.12536336  0.01233057  1  0  -0.170281  0  3.696087  0  0  -0.208431  0  3.954389  0  0  -0.211328  0  3.966156  0  0  -0.165171  -0.205929  0  3.945765  0
C  C46  1  0.79590840  0.82625605  0.09562858  1  0  0.08589  0  3.558575  0  0  0.018009  0  3.841884  0  0  0.026179  0  3.844821  0  0  -0.06425  0.01254  0  3.840154  0
C  C47  1  0.20408876  0.17374206  0.90437065  1  0  0.085837  0  3.558668  0  0  0.017928  0  3.841952  0  0  0.026097  0  3.844882  0  0  -0.064261  0.012461  0  3.84022  0
C  C48  1  0.07091364  0.61778762  0.22569837  1  0  0.11244  0  3.819803  0  0  0.114706  0  4.061627  0  0  0.113564  0  4.085737  0  0  0.093693  0.114996  0  4.045962  0
C  C49  1  0.92908558  0.38221048  0.77430306  1  0  0.112519  0  3.819824  0  0  0.114806  0  4.061634  0  0  0.113669  0  4.085746  0  0  0.09374  0.115089  0  4.045972  0
C  C50  1  0.06155342  0.48455973  0.25612191  1  0  -0.119948  0  3.721549  0  0  -0.139832  0  3.975645  0  0  -0.140606  0  3.993884  0  0  -0.085322  -0.139545  0  3.964084  0
C  C51  1  0.93844226  0.51543955  0.74387541  1  0  -0.120038  0  3.721553  0  0  -0.139942  0  3.975638  0  0  -0.140712  0  3.993874  0  0  -0.08537  -0.139654  0  3.964079  0
C  C52  1  0.92804092  0.34483726  0.18508453  1  0  -0.070953  0  3.760703  0  0  -0.090643  0  4.021254  0  0  -0.092237  0  4.041028  0  0  -0.097977  -0.088969  0  4.006401  0
C  C53  1  0.07196366  0.65516317  0.81491602  1  0  -0.070999  0  3.76074  0  0  -0.090668  0  4.021292  0  0  -0.09227  0  4.041075  0  0  -0.09799  -0.088992  0  4.006437  0
C  C54  1  0.80572039  0.33543043  0.08598288  1  0  -0.04535  0  3.730706  0  0  -0.069144  0  3.994883  0  0  -0.068886  0  4.013691  0  0  -0.089093  -0.068402  0  3.980543  0
C  C55  1  0.19427992  0.66456769  0.91401573  1  0  -0.045193  0  3.730691  0  0  -0.068989  0  3.994835  0  0  -0.068737  0  4.013643  0  0  -0.089047  -0.068248  0  3.980494  0
C  C56  1  0.81197188  0.46588194  0.05516144  1  0  -0.127397  0  3.737292  0  0  -0.147105  0  4.002095  0  0  -0.150035  0  4.020676  0  0  -0.091664  -0.144886  0  3.989152  0
C  C57  1  0.18802946  0.53411617  0.94483827  1  0  -0.127372  0  3.737248  0  0  -0.14708  0  4.002057  0  0  -0.149996  0  4.020639  0  0  -0.091653  -0.144865  0  3.989109  0
C  C58  1  0.94654347  0.60647017  0.12845089  1  0  0.052726  0  3.825835  0  0  0.042847  0  4.072328  0  0  0.045076  0  4.096451  0  0  0.101682  0.041501  0  4.056279  0
C  C59  1  0.05345521  0.39352679  0.87154828  1  0  0.052733  0  3.825985  0  0  0.042841  0  4.072489  0  0  0.045049  0  4.096639  0  0  0.101702  0.04151  0  4.056414  0
I  I60  1  0.38122841  0.89726850  0.66055526  1  0  -0.481188  0  1.362439  0  0  -0.434965  0  1.765286  0  0  -0.451415  0  1.732019  0  0  -0.243296  -0.423577  0  1.786374  0
I  I61  1  0.61877256  0.10273308  0.33944511  1  0  -0.481187  0  1.362421  0  0  -0.43496  0  1.765271  0  0  -0.451413  0  1.732002  0  0  -0.243294  -0.423571  0  1.786357  0
N  N62  1  0.50934626  0.29117565  0.64651235  1  0  -0.190043  0  3.253556  0  0  -0.145596  0  3.572303  0  0  -0.148663  0  3.574194  0  0  -0.233311  -0.144034  0  3.570831  0
N  N63  1  0.49065414  0.70882478  0.35348772  1  0  -0.189884  0  3.253444  0  0  -0.145459  0  3.572161  0  0  -0.148529  0  3.574056  0  0  -0.233253  -0.1439  0  3.570696  0
N  N64  1  0.58307540  0.41850552  0.75030936  1  0  -0.0959  0  2.861782  0  0  -0.091822  0  3.146719  0  0  -0.086192  0  3.152398  0  0  -0.073211  -0.096403  0  3.144392  0
N  N65  1  0.41692440  0.58149373  0.24969237  1  0  -0.095927  0  2.861766  0  0  -0.091868  0  3.146749  0  0  -0.086238  0  3.15243  0  0  -0.073224  -0.096449  0  3.144423  0
N  N66  1  0.49488473  0.49125531  0.75082396  1  0  0.162297  0  3.550244  0  0  0.199061  0  3.837324  0  0  0.196245  0  3.851435  0  0  -0.035094  0.200287  0  3.828758  0
N  N67  1  0.50511402  0.50874394  0.24917765  1  0  0.162286  0  3.550351  0  0  0.199045  0  3.837426  0  0  0.196232  0  3.851539  0  0  -0.035108  0.200272  0  3.82886  0
N  N68  1  0.99709028  0.75716706  0.12996185  1  0  0.160532  0  3.561057  0  0  0.19625  0  3.84896  0  0  0.193245  0  3.864761  0  0  -0.034511  0.198087  0  3.837998  0
N  N69  1  0.00290641  0.24283220  0.87003756  1  0  0.160463  0  3.561115  0  0  0.196157  0  3.849056  0  0  0.193155  0  3.864863  0  0  -0.034608  0.197988  0  3.838091  0
N  N70  1  0.14089192  0.85498817  0.21493201  1  0  -0.096559  0  2.846391  0  0  -0.091224  0  3.129651  0  0  -0.084651  0  3.135671  0  0  -0.073622  -0.094463  0  3.125478  0
N  N71  1  0.85910477  0.14501110  0.78506740  1  0  -0.096591  0  2.846389  0  0  -0.091225  0  3.12963  0  0  -0.084654  0  3.135654  0  0  -0.073609  -0.094464  0  3.125456  0
N  N72  1  0.18738907  0.77173479  0.27407565  1  0  -0.194485  0  3.235472  0  0  -0.150561  0  3.558446  0  0  -0.153923  0  3.559942  0  0  -0.233706  -0.14903  0  3.557191  0
N  N73  1  0.81260922  0.22826563  0.72592517  1  0  -0.194453  0  3.235512  0  0  -0.15057  0  3.558511  0  0  -0.15393  0  3.560008  0  0  -0.233694  -0.149035  0  3.557248  0
O  O74  1  0.53303099  0.61537929  0.86005890  1  0  -0.208899  0  2.130047  0  0  -0.153646  0  2.37246  0  0  -0.16424  0  2.372664  0  0  -0.082507  -0.146266  0  2.372392  0
O  O75  1  0.46696881  0.38461996  0.13994283  1  0  -0.208949  0  2.130167  0  0  -0.153653  0  2.372544  0  0  -0.164241  0  2.372748  0  0  -0.082508  -0.146275  0  2.372473  0
O  O76  1  0.92811572  0.81246399  0.04628682  1  0  -0.206929  0  2.141681  0  0  -0.148096  0  2.382283  0  0  -0.159067  0  2.383251  0  0  -0.078498  -0.14045  0  2.381846  0
O  O77  1  0.07188086  0.18753295  0.95371309  1  0  -0.206924  0  2.141655  0  0  -0.148087  0  2.38226  0  0  -0.159057  0  2.383229  0  0  -0.078513  -0.14044  0  2.381824  0
