# generated using pymatgen
data_BaP2H6C2O7
_symmetry_space_group_name_H-M   'P 1'
_cell_length_a   10.83026930
_cell_length_b   10.82123586
_cell_length_c   13.08888535
_cell_angle_alpha   113.33254967
_cell_angle_beta   93.37387119
_cell_angle_gamma   115.08937220
_symmetry_Int_Tables_number   1
_chemical_formula_structural   BaP2H6C2O7
_chemical_formula_sum   'Ba6 P12 H36 C12 O42'
_cell_volume   1227.27454752
_cell_formula_units_Z   6
loop_
 _symmetry_equiv_pos_site_id
 _symmetry_equiv_pos_as_xyz
  1  'x, y, z'
loop_
 _atom_site_type_symbol
 _atom_site_label
 _atom_site_symmetry_multiplicity
 _atom_site_fract_x
 _atom_site_fract_y
 _atom_site_fract_z
 _atom_site_occupancy
 _atom_site_hle17_bader_spin_density
 _atom_site_hle17_ddec_charge
 _atom_site_hle17_ddec_spin_density
 _atom_site_hle17_ddec_sum_bond_order
 _atom_site_hle17_magmom
 _atom_site_hse06_10hf_bader_spin_density
 _atom_site_hse06_10hf_ddec_charge
 _atom_site_hse06_10hf_ddec_spin_density
 _atom_site_hse06_10hf_ddec_sum_bond_order
 _atom_site_hse06_10hf_magmom
 _atom_site_hse06_bader_spin_density
 _atom_site_hse06_ddec_charge
 _atom_site_hse06_ddec_spin_density
 _atom_site_hse06_ddec_sum_bond_order
 _atom_site_hse06_magmom
 _atom_site_pbe_bader_spin_density
 _atom_site_pbe_cm5_charge
 _atom_site_pbe_ddec_charge
 _atom_site_pbe_ddec_spin_density
 _atom_site_pbe_ddec_sum_bond_order
 _atom_site_pbe_magmom
Ba  Ba0  1  0.21886426  0.60405113  0.14102025  1  0  1.676565  0  1.203456  0  0  1.533827  0  1.600206  0  0  1.571665  0  1.558535  0  0  1.040934  1.505755  0  1.62997  0
Ba  Ba1  1  0.78113557  0.39594824  0.85897942  1  0  1.676602  0  1.203389  0  0  1.533878  0  1.600118  0  0  1.571714  0  1.558448  0  0  1.040942  1.505791  0  1.629903  0
Ba  Ba2  1  0.18424007  0.84080310  0.97210672  1  0  1.709795  0  1.18199  0  0  1.573135  0  1.573729  0  0  1.609634  0  1.532028  0  0  1.085704  1.546502  0  1.603273  0
Ba  Ba3  1  0.81575884  0.15919627  0.02789291  1  0  1.709795  0  1.181978  0  0  1.573102  0  1.573768  0  0  1.609602  0  1.532068  0  0  1.085708  1.546464  0  1.603313  0
Ba  Ba4  1  0.66937374  0.74448226  0.07506753  1  0  1.711628  0  1.108518  0  0  1.577055  0  1.485293  0  0  1.613508  0  1.445867  0  0  1.048263  1.549489  0  1.514278  0
Ba  Ba5  1  0.33062661  0.25551826  0.92493255  1  0  1.711654  0  1.108477  0  0  1.577042  0  1.485316  0  0  1.613495  0  1.445891  0  0  1.048259  1.549476  0  1.514301  0
P  P6  1  0.52544166  0.99009433  0.17519689  1  0  1.435328  0  4.848112  0  0  1.279739  0  5.339719  0  0  1.329447  0  5.302075  0  0  0.352706  1.245101  0  5.36524  0
P  P7  1  0.47455869  0.00990619  0.82480319  1  0  1.435289  0  4.848124  0  0  1.279705  0  5.339723  0  0  1.329409  0  5.302089  0  0  0.352673  1.245067  0  5.36524  0
P  P8  1  0.05425221  0.86896808  0.24605138  1  0  1.455874  0  4.756266  0  0  1.295181  0  5.259262  0  0  1.34542  0  5.219605  0  0  0.380865  1.260112  0  5.286229  0
P  P9  1  0.94574907  0.13103244  0.75394798  1  0  1.455733  0  4.75627  0  0  1.295042  0  5.259268  0  0  1.345285  0  5.219604  0  0  0.380843  1.259973  0  5.286226  0
P  P10  1  0.45948901  0.46864414  0.24564895  1  0  1.433884  0  4.796442  0  0  1.271077  0  5.30084  0  0  1.321088  0  5.261798  0  0  0.369688  1.236191  0  5.327257  0
P  P11  1  0.54051083  0.53135524  0.75434995  1  0  1.433882  0  4.796497  0  0  1.271082  0  5.300884  0  0  1.321091  0  5.261842  0  0  0.369682  1.236202  0  5.327295  0
P  P12  1  0.15120847  0.22710076  0.14096135  1  0  1.435154  0  4.890455  0  0  1.281587  0  5.379137  0  0  1.331196  0  5.34144  0  0  0.337353  1.247024  0  5.404367  0
P  P13  1  0.84879188  0.77289976  0.85903873  1  0  1.435093  0  4.890547  0  0  1.281518  0  5.379242  0  0  1.331126  0  5.341548  0  0  0.337317  1.246955  0  5.404471  0
P  P14  1  0.84127812  0.52751029  0.15749016  1  0  1.446589  0  4.848734  0  0  1.294379  0  5.335604  0  0  1.343205  0  5.298918  0  0  0.343379  1.260353  0  5.360057  0
P  P15  1  0.15872264  0.47248908  0.84250955  1  0  1.446518  0  4.848789  0  0  1.294301  0  5.335677  0  0  1.343129  0  5.298989  0  0  0.343385  1.260276  0  5.360126  0
P  P16  1  0.69045844  0.01130616  0.38087108  1  0  1.433323  0  4.760751  0  0  1.265386  0  5.269024  0  0  1.313993  0  5.231668  0  0  0.373608  1.231541  0  5.294426  0
P  P17  1  0.30954047  0.98869320  0.61912931  1  0  1.433297  0  4.760824  0  0  1.265381  0  5.269085  0  0  1.313987  0  5.231732  0  0  0.373595  1.231536  0  5.294488  0
H  H18  1  0.47894673  0.18901345  0.18661978  1  0  0.46913  0  0.819801  0  0  0.432032  0  0.89091  0  0  0.444085  0  0.873775  0  0  0.325567  0.423464  0  0.903098  0
H  H19  1  0.52105362  0.81098707  0.81338029  1  0  0.469141  0  0.819784  0  0  0.432042  0  0.890895  0  0  0.444095  0  0.87376  0  0  0.325565  0.423474  0  0.903082  0
H  H20  1  0.21289762  0.00241910  0.41725401  1  0  0.428713  0  0.869092  0  0  0.396965  0  0.936604  0  0  0.407869  0  0.920916  0  0  0.315997  0.389287  0  0.947622  0
H  H21  1  0.78710274  0.99758142  0.58274683  1  0  0.428723  0  0.869068  0  0  0.396979  0  0.936585  0  0  0.407882  0  0.9209  0  0  0.316  0.3893  0  0.947603  0
H  H22  1  0.59427315  0.71924574  0.33871365  1  0  0.441343  0  0.859848  0  0  0.408904  0  0.926466  0  0  0.420486  0  0.909766  0  0  0.317827  0.400804  0  0.938152  0
H  H23  1  0.40572720  0.28075477  0.66128795  1  0  0.441314  0  0.859909  0  0  0.408874  0  0.926518  0  0  0.420456  0  0.909819  0  0  0.317819  0.400774  0  0.938203  0
H  H24  1  0.99841001  0.04609129  0.19068285  1  0  0.451296  0  0.851492  0  0  0.41588  0  0.920545  0  0  0.428378  0  0.902872  0  0  0.318727  0.407133  0  0.932909  0
H  H25  1  0.00159035  0.95390923  0.80931723  1  0  0.451304  0  0.851477  0  0  0.415888  0  0.920532  0  0  0.428386  0  0.902859  0  0  0.318736  0.407141  0  0.932896  0
H  H26  1  0.66893283  0.39887542  0.21996713  1  0  0.439581  0  0.865893  0  0  0.405633  0  0.933264  0  0  0.417403  0  0.916407  0  0  0.313901  0.3974  0  0.945081  0
H  H27  1  0.33106753  0.60112511  0.78003142  1  0  0.439612  0  0.865844  0  0  0.405647  0  0.933232  0  0  0.417417  0  0.916376  0  0  0.313917  0.397416  0  0.945045  0
H  H28  1  0.81109998  0.13584768  0.29836477  1  0  0.435312  0  0.835605  0  0  0.412165  0  0.899482  0  0  0.422543  0  0.887439  0  0  0.334592  0.404754  0  0.9081  0
H  H29  1  0.18889893  0.86415168  0.70163562  1  0  0.435275  0  0.835645  0  0  0.412138  0  0.899514  0  0  0.422516  0  0.887472  0  0  0.334579  0.404728  0  0.908131  0
H  H30  1  0.38552699  0.93780700  0.40006410  1  0  0.395424  0  0.901616  0  0  0.368862  0  0.973329  0  0  0.379046  0  0.96212  0  0  0.305917  0.361705  0  0.981124  0
H  H31  1  0.61447244  0.06219352  0.59993593  1  0  0.395363  0  0.901609  0  0  0.368803  0  0.973324  0  0  0.378988  0  0.962115  0  0  0.305874  0.361647  0  0.98112  0
H  H32  1  0.14595466  0.76941969  0.39299819  1  0  0.37875  0  0.898116  0  0  0.357204  0  0.963025  0  0  0.366744  0  0.952853  0  0  0.307933  0.350394  0  0.970323  0
H  H33  1  0.85404425  0.23057968  0.60700144  1  0  0.378729  0  0.898154  0  0  0.357181  0  0.963064  0  0  0.366722  0  0.952893  0  0  0.307928  0.350371  0  0.970361  0
H  H34  1  0.28430194  0.57539096  0.39256550  1  0  0.379721  0  0.845768  0  0  0.365821  0  0.901939  0  0  0.373049  0  0.894242  0  0  0.327909  0.360627  0  0.907567  0
H  H35  1  0.71569893  0.42461071  0.60743498  1  0  0.379689  0  0.845832  0  0  0.365793  0  0.901997  0  0  0.37302  0  0.8943  0  0  0.327905  0.360599  0  0.907624  0
H  H36  1  0.18966137  0.31154733  0.39560353  1  0  0.135166  0  0.922969  0  0  0.157366  0  0.978158  0  0  0.159476  0  0.97732  0  0  0.103475  0.155877  0  0.978654  0
H  H37  1  0.81033754  0.68845204  0.60439609  1  0  0.135167  0  0.922987  0  0  0.157371  0  0.978172  0  0  0.159481  0  0.977332  0  0  0.103482  0.155882  0  0.978668  0
H  H38  1  0.37633176  0.44288079  0.45246652  1  0  0.117139  0  0.938148  0  0  0.139222  0  0.999041  0  0  0.140511  0  0.999211  0  0  0.09508  0.138284  0  0.998919  0
H  H39  1  0.62366859  0.55711973  0.54753355  1  0  0.117134  0  0.938167  0  0  0.139218  0  0.999063  0  0  0.140506  0  0.999232  0  0  0.095074  0.13828  0  0.998941  0
H  H40  1  0.31091686  0.24793555  0.34797426  1  0  0.128879  0  0.96113  0  0  0.14774  0  1.023875  0  0  0.149624  0  1.023192  0  0  0.101133  0.146346  0  1.0245  0
H  H41  1  0.68908298  0.75206382  0.65202541  1  0  0.12887  0  0.961139  0  0  0.147733  0  1.023883  0  0  0.149617  0  1.023201  0  0  0.101131  0.146339  0  1.024508  0
H  H42  1  0.45971695  0.19121138  0.37537899  1  0  0.130067  0  0.953719  0  0  0.15087  0  1.013101  0  0  0.152781  0  1.012857  0  0  0.102233  0.149423  0  1.013359  0
H  H43  1  0.54028340  0.80878914  0.62462185  1  0  0.130078  0  0.953694  0  0  0.150877  0  1.013083  0  0  0.152788  0  1.012838  0  0  0.102225  0.14943  0  1.013341  0
H  H44  1  0.64726430  0.27695282  0.40334454  1  0  0.125204  0  0.925942  0  0  0.150103  0  0.979048  0  0  0.151976  0  0.978142  0  0  0.104082  0.148539  0  0.980047  0
H  H45  1  0.35273605  0.72304770  0.59665554  1  0  0.1252  0  0.925972  0  0  0.150106  0  0.979066  0  0  0.15198  0  0.978159  0  0  0.104067  0.148541  0  0.980068  0
H  H46  1  0.55902368  0.20275856  0.49454481  1  0  0.116308  0  0.956289  0  0  0.132081  0  1.028174  0  0  0.134771  0  1.02605  0  0  0.098603  0.129919  0  1.030073  0
H  H47  1  0.44097719  0.79724309  0.50545796  1  0  0.116306  0  0.956336  0  0  0.132088  0  1.028211  0  0  0.134774  0  1.026092  0  0  0.098614  0.129927  0  1.030109  0
H  H48  1  0.98181880  0.85510536  0.46161475  1  0  0.125028  0  0.943536  0  0  0.143738  0  1.008046  0  0  0.145474  0  1.007665  0  0  0.097336  0.142491  0  1.008228  0
H  H49  1  0.01817959  0.14489285  0.53838447  1  0  0.12501  0  0.943506  0  0  0.143735  0  1.007989  0  0  0.145471  0  1.007608  0  0  0.097336  0.142486  0  1.008173  0
H  H50  1  0.84701969  0.65961934  0.40294665  1  0  0.124196  0  0.933898  0  0  0.145861  0  0.991154  0  0  0.147941  0  0.990139  0  0  0.096112  0.144274  0  0.992001  0
H  H51  1  0.15297922  0.34038003  0.59705221  1  0  0.124179  0  0.933916  0  0  0.145845  0  0.991168  0  0  0.147926  0  0.990154  0  0  0.096115  0.144258  0  0.992014  0
H  H52  1  0.82477643  0.78690354  0.35858084  1  0  0.127626  0  0.972751  0  0  0.146705  0  1.035625  0  0  0.148729  0  1.035253  0  0  0.102247  0.145258  0  1.035928  0
H  H53  1  0.17522393  0.21309698  0.64141924  1  0  0.127637  0  0.972711  0  0  0.146692  0  1.035618  0  0  0.148716  0  1.035245  0  0  0.102245  0.145245  0  1.035919  0
C  C54  1  0.28620530  0.39003535  0.27812673  1  0  -0.180963  0  3.659379  0  0  -0.142211  0  3.918388  0  0  -0.149669  0  3.929164  0  0  0.058557  -0.137244  0  3.910979  0
C  C55  1  0.71379505  0.60996517  0.72187334  1  0  -0.180977  0  3.659387  0  0  -0.14221  0  3.918374  0  0  -0.149667  0  3.92915  0  0  0.058556  -0.137243  0  3.910963  0
C  C56  1  0.53779816  0.02716965  0.32863467  1  0  -0.173908  0  3.699605  0  0  -0.133384  0  3.956057  0  0  -0.140492  0  3.967305  0  0  0.062065  -0.128762  0  3.948423  0
C  C57  1  0.46220179  0.97283201  0.67136653  1  0  -0.173828  0  3.699528  0  0  -0.133328  0  3.956026  0  0  -0.140437  0  3.967276  0  0  0.062129  -0.128706  0  3.94839  0
C  C58  1  0.96911368  0.71066291  0.28575954  1  0  -0.191684  0  3.686763  0  0  -0.15089  0  3.942757  0  0  -0.158617  0  3.954117  0  0  0.061366  -0.145897  0  3.935127  0
C  C59  1  0.03088812  0.28933877  0.71424023  1  0  -0.191597  0  3.686659  0  0  -0.150811  0  3.942657  0  0  -0.158537  0  3.954017  0  0  0.061341  -0.145821  0  3.935026  0
C  C60  1  0.29166013  0.34603141  0.37434759  1  0  -0.320752  0  3.716908  0  0  -0.411279  0  3.96742  0  0  -0.412608  0  3.976478  0  0  -0.24117  -0.410136  0  3.961137  0
C  C61  1  0.70833930  0.65396912  0.62565244  1  0  -0.320748  0  3.716958  0  0  -0.411275  0  3.967449  0  0  -0.412603  0  3.976507  0  0  -0.241178  -0.410133  0  3.961171  0
C  C62  1  0.55222003  0.18439562  0.40509242  1  0  -0.330706  0  3.716634  0  0  -0.420707  0  3.966005  0  0  -0.422195  0  3.974101  0  0  -0.239664  -0.419341  0  3.960695  0
C  C63  1  0.44777980  0.81560375  0.59490802  1  0  -0.330764  0  3.716601  0  0  -0.420772  0  3.965979  0  0  -0.422257  0  3.974076  0  0  -0.23969  -0.419402  0  3.960661  0
C  C64  1  0.90113822  0.75524639  0.38295213  1  0  -0.32393  0  3.715308  0  0  -0.413532  0  3.963256  0  0  -0.415031  0  3.972143  0  0  -0.244765  -0.412091  0  3.956899  0
C  C65  1  0.09886161  0.24475298  0.61704677  1  0  -0.323875  0  3.715268  0  0  -0.413457  0  3.963213  0  0  -0.414958  0  3.972108  0  0  -0.244735  -0.412013  0  3.956854  0
O  O66  1  0.44881884  0.07373572  0.14622666  1  0  -0.776773  0  2.049195  0  0  -0.696087  0  2.289209  0  0  -0.718446  0  2.262946  0  0  -0.383484  -0.680366  0  2.307577  0
O  O67  1  0.55118151  0.92626480  0.85377342  1  0  -0.776761  0  2.049183  0  0  -0.696072  0  2.289205  0  0  -0.718431  0  2.262944  0  0  -0.383475  -0.680349  0  2.307572  0
O  O68  1  0.67775898  0.05116752  0.16485933  1  0  -0.964634  0  2.000708  0  0  -0.878687  0  2.255383  0  0  -0.90634  0  2.237446  0  0  -0.435489  -0.859053  0  2.268124  0
O  O69  1  0.32224137  0.94883299  0.83514074  1  0  -0.964638  0  2.000731  0  0  -0.878689  0  2.255402  0  0  -0.906341  0  2.237465  0  0  -0.435479  -0.859055  0  2.26814  0
O  O70  1  0.43001653  0.81909391  0.09426871  1  0  -0.932486  0  1.921352  0  0  -0.853586  0  2.181079  0  0  -0.880569  0  2.164024  0  0  -0.412932  -0.834247  0  2.192711  0
O  O71  1  0.56998382  0.18090661  0.90573137  1  0  -0.932468  0  1.921329  0  0  -0.85356  0  2.181047  0  0  -0.880542  0  2.163992  0  0  -0.412913  -0.834217  0  2.192677  0
O  O72  1  0.13985186  0.82552953  0.16478767  1  0  -0.946945  0  1.995102  0  0  -0.867231  0  2.275703  0  0  -0.893567  0  2.255938  0  0  -0.471827  -0.848369  0  2.288717  0
O  O73  1  0.86014849  0.17447099  0.83521240  1  0  -0.946921  0  1.995098  0  0  -0.867193  0  2.275673  0  0  -0.893529  0  2.25591  0  0  -0.47181  -0.848325  0  2.288682  0
O  O74  1  0.15348327  0.01746143  0.36655717  1  0  -0.718947  0  1.998439  0  0  -0.642227  0  2.219042  0  0  -0.663633  0  2.195595  0  0  -0.380516  -0.627201  0  2.234848  0
O  O75  1  0.84651656  0.98253793  0.63344327  1  0  -0.718891  0  1.998419  0  0  -0.642186  0  2.219034  0  0  -0.663591  0  2.195587  0  0  -0.380496  -0.627159  0  2.234841  0
O  O76  1  0.94778352  0.90692057  0.20226717  1  0  -0.866138  0  1.977489  0  0  -0.784191  0  2.233233  0  0  -0.810113  0  2.213237  0  0  -0.398896  -0.765906  0  2.24663  0
O  O77  1  0.05221591  0.09307995  0.79773286  1  0  -0.86612  0  1.977501  0  0  -0.784171  0  2.23324  0  0  -0.810093  0  2.213245  0  0  -0.398907  -0.765898  0  2.246668  0
O  O78  1  0.43713264  0.49551524  0.14145710  1  0  -0.962887  0  1.948576  0  0  -0.880321  0  2.214681  0  0  -0.906966  0  2.197322  0  0  -0.430376  -0.861352  0  2.226605  0
O  O79  1  0.56286679  0.50448528  0.85854293  1  0  -0.962906  0  1.94861  0  0  -0.880342  0  2.214705  0  0  -0.906987  0  2.197348  0  0  -0.430385  -0.861371  0  2.226626  0
O  O80  1  0.52251142  0.36267951  0.23550375  1  0  -0.831396  0  1.987028  0  0  -0.743941  0  2.221709  0  0  -0.770471  0  2.202292  0  0  -0.346365  -0.72538  0  2.234876  0
O  O81  1  0.47749131  0.63732217  0.76449530  1  0  -0.83141  0  1.986995  0  0  -0.743961  0  2.221707  0  0  -0.770488  0  2.202285  0  0  -0.34636  -0.725407  0  2.234878  0
O  O82  1  0.55309326  0.62938857  0.35786834  1  0  -0.72846  0  1.988139  0  0  -0.658749  0  2.213106  0  0  -0.680228  0  2.189472  0  0  -0.380183  -0.643662  0  2.229116  0
O  O83  1  0.44690617  0.37061195  0.64213245  1  0  -0.728395  0  1.988218  0  0  -0.658693  0  2.213174  0  0  -0.680175  0  2.189549  0  0  -0.380161  -0.64361  0  2.229184  0
O  O84  1  0.10745378  0.29577996  0.07374618  1  0  -0.944722  0  1.980553  0  0  -0.862673  0  2.244394  0  0  -0.890105  0  2.227783  0  0  -0.454181  -0.842785  0  2.255137  0
O  O85  1  0.89254513  0.70421941  0.92625344  1  0  -0.944711  0  1.980556  0  0  -0.862682  0  2.244427  0  0  -0.890106  0  2.227799  0  0  -0.454175  -0.842795  0  2.255173  0
O  O86  1  0.21382656  0.12653068  0.07802207  1  0  -0.936743  0  1.953625  0  0  -0.856165  0  2.219916  0  0  -0.883107  0  2.201919  0  0  -0.441007  -0.836994  0  2.231976  0
O  O87  1  0.78617379  0.87346984  0.92197801  1  0  -0.936714  0  1.953629  0  0  -0.856129  0  2.21992  0  0  -0.883072  0  2.201924  0  0  -0.440999  -0.836957  0  2.231981  0
O  O88  1  0.01483914  0.14090866  0.17651537  1  0  -0.788495  0  2.021121  0  0  -0.709074  0  2.253216  0  0  -0.731938  0  2.227778  0  0  -0.385042  -0.693038  0  2.270427  0
O  O89  1  0.98516069  0.85909070  0.82348507  1  0  -0.788483  0  2.021139  0  0  -0.70906  0  2.253228  0  0  -0.731924  0  2.227791  0  0  -0.385038  -0.693022  0  2.270441  0
O  O90  1  0.92376492  0.46348867  0.08239252  1  0  -0.962589  0  2.008141  0  0  -0.874509  0  2.271277  0  0  -0.902575  0  2.255344  0  0  -0.475816  -0.854293  0  2.281525  0
O  O91  1  0.07623348  0.53650955  0.91760670  1  0  -0.962559  0  2.008106  0  0  -0.874484  0  2.271247  0  0  -0.902552  0  2.255317  0  0  -0.475847  -0.854267  0  2.281493  0
O  O92  1  0.76378405  0.40727479  0.20446010  1  0  -0.768537  0  1.995882  0  0  -0.696715  0  2.218918  0  0  -0.717806  0  2.193529  0  0  -0.387639  -0.68197  0  2.236432  0
O  O93  1  0.23621671  0.59272459  0.79553885  1  0  -0.768561  0  1.995891  0  0  -0.696716  0  2.218949  0  0  -0.717806  0  2.193558  0  0  -0.387638  -0.681973  0  2.23646  0
O  O94  1  0.73680754  0.54963952  0.09456819  1  0  -0.924351  0  1.947094  0  0  -0.84422  0  2.213946  0  0  -0.870747  0  2.196349  0  0  -0.443244  -0.825022  0  2.225717  0
O  O95  1  0.26319230  0.45035985  0.90543072  1  0  -0.924337  0  1.947139  0  0  -0.844196  0  2.21399  0  0  -0.870721  0  2.196391  0  0  -0.443238  -0.825  0  2.225764  0
O  O96  1  0.82890588  0.14331321  0.37656933  1  0  -0.696952  0  1.956054  0  0  -0.634255  0  2.172402  0  0  -0.652685  0  2.150575  0  0  -0.374316  -0.62135  0  2.187203  0
O  O97  1  0.17109355  0.85668730  0.62343146  1  0  -0.696855  0  1.956087  0  0  -0.634192  0  2.17245  0  0  -0.652623  0  2.150627  0  0  -0.374279  -0.621286  0  2.187251  0
O  O98  1  0.66331685  0.84979936  0.30166634  1  0  -0.884608  0  2.025442  0  0  -0.801791  0  2.28283  0  0  -0.827744  0  2.264178  0  0  -0.397774  -0.783429  0  2.295523  0
O  O99  1  0.33668350  0.15020116  0.69833450  1  0  -0.884647  0  2.025474  0  0  -0.80182  0  2.282849  0  0  -0.827772  0  2.264197  0  0  -0.397785  -0.783456  0  2.295538  0
O  O100  1  0.70937145  0.05164012  0.50867878  1  0  -0.835995  0  2.031291  0  0  -0.744126  0  2.261209  0  0  -0.771117  0  2.244437  0  0  -0.348167  -0.72505  0  2.272408  0
O  O101  1  0.29062890  0.94836039  0.49132206  1  0  -0.836  0  2.031318  0  0  -0.74412  0  2.261207  0  0  -0.77111  0  2.244435  0  0  -0.348165  -0.725047  0  2.272413  0
O  O102  1  0.41545843  0.90218547  0.32784383  1  0  -0.577272  0  2.156258  0  0  -0.529623  0  2.389228  0  0  -0.545447  0  2.379905  0  0  -0.405548  -0.518378  0  2.395811  0
O  O103  1  0.58454140  0.09781389  0.67215660  1  0  -0.57724  0  2.156228  0  0  -0.529588  0  2.389208  0  0  -0.545412  0  2.379886  0  0  -0.405525  -0.518342  0  2.395791  0
O  O104  1  0.07902489  0.67992342  0.31851466  1  0  -0.559243  0  2.113684  0  0  -0.510235  0  2.327294  0  0  -0.525564  0  2.318577  0  0  -0.405007  -0.49895  0  2.332638  0
O  O105  1  0.92097587  0.32007595  0.68148429  1  0  -0.559272  0  2.113633  0  0  -0.510271  0  2.327264  0  0  -0.525601  0  2.318547  0  0  -0.405027  -0.498984  0  2.332608  0
O  O106  1  0.24322947  0.50772916  0.30951615  1  0  -0.556923  0  2.132465  0  0  -0.508108  0  2.345312  0  0  -0.522266  0  2.336461  0  0  -0.399745  -0.497773  0  2.350841  0
O  O107  1  0.75677037  0.49227021  0.69048276  1  0  -0.556899  0  2.132503  0  0  -0.508087  0  2.345333  0  0  -0.522247  0  2.336484  0  0  -0.399741  -0.497749  0  2.350859  0
