# generated using pymatgen
data_KH5(C2O3)2
_symmetry_space_group_name_H-M   'P 1'
_cell_length_a   7.60336493
_cell_length_b   7.74251220
_cell_length_c   10.79556911
_cell_angle_alpha   89.99996090
_cell_angle_beta   90.00015317
_cell_angle_gamma   89.99996485
_symmetry_Int_Tables_number   1
_chemical_formula_structural   KH5(C2O3)2
_chemical_formula_sum   'K4 H20 C16 O24'
_cell_volume   635.52593176
_cell_formula_units_Z   4
loop_
 _symmetry_equiv_pos_site_id
 _symmetry_equiv_pos_as_xyz
  1  'x, y, z'
loop_
 _atom_site_type_symbol
 _atom_site_label
 _atom_site_symmetry_multiplicity
 _atom_site_fract_x
 _atom_site_fract_y
 _atom_site_fract_z
 _atom_site_occupancy
 _atom_site_hle17_bader_spin_density
 _atom_site_hle17_ddec_charge
 _atom_site_hle17_ddec_spin_density
 _atom_site_hle17_ddec_sum_bond_order
 _atom_site_hle17_magmom
 _atom_site_hse06_10hf_bader_spin_density
 _atom_site_hse06_10hf_ddec_charge
 _atom_site_hse06_10hf_ddec_spin_density
 _atom_site_hse06_10hf_ddec_sum_bond_order
 _atom_site_hse06_10hf_magmom
 _atom_site_hse06_bader_spin_density
 _atom_site_hse06_ddec_charge
 _atom_site_hse06_ddec_spin_density
 _atom_site_hse06_ddec_sum_bond_order
 _atom_site_hse06_magmom
 _atom_site_pbe_bader_spin_density
 _atom_site_pbe_cm5_charge
 _atom_site_pbe_ddec_charge
 _atom_site_pbe_ddec_spin_density
 _atom_site_pbe_ddec_sum_bond_order
 _atom_site_pbe_magmom
K  K0  1  0.16113077  0.67183202  0.53016565  1  0  0.933922  0  0.446465  0  0  0.882379  0  0.634646  0  0  0.897892  0  0.611085  0  0  0.756946  0.870708  0  0.651675  0
K  K1  1  0.33886834  0.32816856  0.03016632  1  0  0.933927  0  0.446464  0  0  0.882378  0  0.634652  0  0  0.897891  0  0.611092  0  0  0.756946  0.870697  0  0.651682  0
K  K2  1  0.66113423  0.82816746  0.46983578  1  0  0.933921  0  0.446457  0  0  0.882377  0  0.634636  0  0  0.89789  0  0.611076  0  0  0.756944  0.87071  0  0.651665  0
K  K3  1  0.83886590  0.17182722  0.96983753  1  0  0.933922  0  0.446469  0  0  0.882381  0  0.63464  0  0  0.897893  0  0.611077  0  0  0.756954  0.870704  0  0.651667  0
H  H4  1  0.26186679  0.81846293  0.04964820  1  0  0.086286  0  0.929606  0  0  0.09389  0  0.990911  0  0  0.095809  0  0.990074  0  0  0.12476  0.092419  0  0.991741  0
H  H5  1  0.23813240  0.18153634  0.54964883  1  0  0.086314  0  0.929576  0  0  0.093916  0  0.99088  0  0  0.095836  0  0.990043  0  0  0.124767  0.092439  0  0.991722  0
H  H6  1  0.76186953  0.68153649  0.95035342  1  0  0.086292  0  0.929605  0  0  0.0939  0  0.990896  0  0  0.09582  0  0.99006  0  0  0.124754  0.092426  0  0.991735  0
H  H7  1  0.73813447  0.31846208  0.45035020  1  0  0.086295  0  0.929573  0  0  0.093904  0  0.990871  0  0  0.095824  0  0.990035  0  0  0.124766  0.092436  0  0.991701  0
H  H8  1  0.22129448  0.05229682  0.19573606  1  0  0.069053  0  0.959748  0  0  0.071676  0  1.033459  0  0  0.074853  0  1.030477  0  0  0.119795  0.069362  0  1.035771  0
H  H9  1  0.27870394  0.94770231  0.69573733  1  0  0.069061  0  0.95973  0  0  0.071682  0  1.033446  0  0  0.074859  0  1.030464  0  0  0.119795  0.069369  0  1.035759  0
H  H10  1  0.72129650  0.44770291  0.80426387  1  0  0.069044  0  0.959754  0  0  0.071656  0  1.033482  0  0  0.074834  0  1.030498  0  0  0.119802  0.069345  0  1.03579  0
H  H11  1  0.77870300  0.55229710  0.30426247  1  0  0.069043  0  0.959758  0  0  0.071646  0  1.0335  0  0  0.074823  0  1.030518  0  0  0.119799  0.069334  0  1.035813  0
H  H12  1  0.34800975  0.04201192  0.36373658  1  0  0.375697  0  0.915607  0  0  0.347084  0  0.998243  0  0  0.358237  0  0.984751  0  0  0.299718  0.339143  0  1.007893  0
H  H13  1  0.15198931  0.95798704  0.86373669  1  0  0.375679  0  0.915626  0  0  0.347059  0  0.998272  0  0  0.358211  0  0.984781  0  0  0.2997  0.339119  0  1.007918  0
H  H14  1  0.84800982  0.45798902  0.63626358  1  0  0.375683  0  0.915627  0  0  0.347071  0  0.998266  0  0  0.358224  0  0.984773  0  0  0.299719  0.339129  0  1.007916  0
H  H15  1  0.65198905  0.54201374  0.13626287  1  0  0.375671  0  0.915642  0  0  0.347049  0  0.998289  0  0  0.358202  0  0.984796  0  0  0.299694  0.33911  0  1.007933  0
H  H16  1  0.36718904  0.61101721  0.25620717  1  0  0.369305  0  0.914794  0  0  0.346688  0  0.988063  0  0  0.356319  0  0.977068  0  0  0.301763  0.339902  0  0.995786  0
H  H17  1  0.13281225  0.38898186  0.75620658  1  0  0.369267  0  0.914878  0  0  0.346659  0  0.988131  0  0  0.356288  0  0.977139  0  0  0.301738  0.339873  0  0.99585  0
H  H18  1  0.86718955  0.88898086  0.74379465  1  0  0.369132  0  0.91508  0  0  0.346629  0  0.988176  0  0  0.35626  0  0.977179  0  0  0.30172  0.339843  0  0.995897  0
H  H19  1  0.63281104  0.11101921  0.24379226  1  0  0.369279  0  0.914836  0  0  0.346663  0  0.988106  0  0  0.356293  0  0.977112  0  0  0.301749  0.339878  0  0.995826  0
H  H20  1  0.81934645  0.83630447  0.14100750  1  0  0.395548  0  0.902882  0  0  0.36156  0  0.984166  0  0  0.375017  0  0.9705  0  0  0.303375  0.35217  0  0.993594  0
H  H21  1  0.68065375  0.16369441  0.64100618  1  0  0.39543  0  0.903011  0  0  0.361484  0  0.984244  0  0  0.37494  0  0.970578  0  0  0.303326  0.352094  0  0.993669  0
H  H22  1  0.31934819  0.66369492  0.85899423  1  0  0.395558  0  0.902916  0  0  0.361575  0  0.984191  0  0  0.375032  0  0.970524  0  0  0.30336  0.352184  0  0.993617  0
H  H23  1  0.18065349  0.33630663  0.35899182  1  0  0.395431  0  0.903008  0  0  0.361476  0  0.98425  0  0  0.374932  0  0.970585  0  0  0.303328  0.352084  0  0.993675  0
C  C24  1  0.03462959  0.85942248  0.24066616  1  0  0.684663  0  3.729408  0  0  0.637878  0  4.029148  0  0  0.670496  0  4.019  0  0  0.239962  0.615523  0  4.035772  0
C  C25  1  0.46537821  0.14057919  0.74067280  1  0  0.684723  0  3.729656  0  0  0.637955  0  4.029357  0  0  0.670571  0  4.019207  0  0  0.239981  0.615599  0  4.035982  0
C  C26  1  0.53462769  0.64057708  0.75933503  1  0  0.684827  0  3.729386  0  0  0.637994  0  4.029186  0  0  0.670613  0  4.019035  0  0  0.239988  0.615638  0  4.035813  0
C  C27  1  0.96537690  0.35942298  0.25932851  1  0  0.684701  0  3.72964  0  0  0.637925  0  4.029345  0  0  0.670541  0  4.019196  0  0  0.239999  0.615568  0  4.035971  0
C  C28  1  0.22505051  0.92035613  0.23305672  1  0  0.054359  0  3.657799  0  0  0.029487  0  3.906533  0  0  0.030406  0  3.913255  0  0  -0.003422  0.028695  0  3.902253  0
C  C29  1  0.27494937  0.07964296  0.73305840  1  0  0.054315  0  3.657622  0  0  0.029424  0  3.906389  0  0  0.030348  0  3.9131  0  0  -0.003471  0.028632  0  3.902108  0
C  C30  1  0.72504868  0.57964331  0.76694390  1  0  0.05437  0  3.657718  0  0  0.029499  0  3.906492  0  0  0.030416  0  3.913218  0  0  -0.003438  0.028705  0  3.902212  0
C  C31  1  0.77494805  0.42035803  0.26693978  1  0  0.054415  0  3.65767  0  0  0.029533  0  3.906425  0  0  0.030451  0  3.913154  0  0  -0.003411  0.02874  0  3.902146  0
C  C32  1  0.32529415  0.80467018  0.14064671  1  0  0.060003  0  3.652968  0  0  0.036365  0  3.906714  0  0  0.037496  0  3.913483  0  0  -0.002686  0.035514  0  3.90222  0
C  C33  1  0.17470407  0.19532900  0.64064721  1  0  0.059961  0  3.653064  0  0  0.036331  0  3.906788  0  0  0.03746  0  3.913563  0  0  -0.002698  0.035485  0  3.902298  0
C  C34  1  0.82529654  0.69533178  0.85935318  1  0  0.059903  0  3.65309  0  0  0.036275  0  3.906832  0  0  0.037404  0  3.913612  0  0  -0.002703  0.035427  0  3.902342  0
C  C35  1  0.67470449  0.30467076  0.35935170  1  0  0.059928  0  3.652942  0  0  0.03629  0  3.906697  0  0  0.037424  0  3.913464  0  0  -0.002768  0.03544  0  3.902206  0
C  C36  1  0.51436302  0.87233809  0.12774343  1  0  0.659873  0  3.818811  0  0  0.604751  0  4.128124  0  0  0.638122  0  4.118708  0  0  0.223922  0.582057  0  4.134047  0
C  C37  1  0.98563581  0.12766209  0.62774455  1  0  0.65985  0  3.818759  0  0  0.60477  0  4.12804  0  0  0.63814  0  4.118625  0  0  0.223959  0.582075  0  4.133963  0
C  C38  1  0.01436615  0.62766148  0.87225772  1  0  0.659842  0  3.81885  0  0  0.604738  0  4.128125  0  0  0.638109  0  4.118713  0  0  0.223892  0.582042  0  4.134046  0
C  C39  1  0.48563426  0.37233877  0.37225494  1  0  0.659927  0  3.818741  0  0  0.604835  0  4.128017  0  0  0.638205  0  4.118601  0  0  0.223978  0.582138  0  4.133942  0
O  O40  1  0.96894769  0.79410485  0.33398219  1  0  -0.627668  0  1.99314  0  0  -0.589325  0  2.232806  0  0  -0.610682  0  2.223281  0  0  -0.406186  -0.574552  0  2.239257  0
O  O41  1  0.53105061  0.20589513  0.83397686  1  0  -0.62763  0  1.993665  0  0  -0.589289  0  2.233301  0  0  -0.610647  0  2.223778  0  0  -0.406143  -0.574515  0  2.239749  0
O  O42  1  0.46894868  0.70589574  0.66602074  1  0  -0.627727  0  1.993201  0  0  -0.589355  0  2.232864  0  0  -0.610713  0  2.223338  0  0  -0.406187  -0.574581  0  2.239317  0
O  O43  1  0.03105226  0.29410342  0.16602085  1  0  -0.627708  0  1.99346  0  0  -0.589377  0  2.233131  0  0  -0.610735  0  2.223606  0  0  -0.406229  -0.574601  0  2.239581  0
O  O44  1  0.94961243  0.88288621  0.13479951  1  0  -0.574955  0  2.085525  0  0  -0.52745  0  2.316985  0  0  -0.550749  0  2.302614  0  0  -0.354357  -0.511154  0  2.326496  0
O  O45  1  0.55038643  0.11711396  0.63480167  1  0  -0.57493  0  2.085602  0  0  -0.52744  0  2.317021  0  0  -0.550738  0  2.30265  0  0  -0.354311  -0.511145  0  2.326536  0
O  O46  1  0.44961422  0.61711568  0.86520154  1  0  -0.575021  0  2.085532  0  0  -0.527513  0  2.317031  0  0  -0.55081  0  2.302656  0  0  -0.354335  -0.511218  0  2.326542  0
O  O47  1  0.05038747  0.38288716  0.36519608  1  0  -0.574855  0  2.085674  0  0  -0.527357  0  2.317101  0  0  -0.550655  0  2.30273  0  0  -0.354276  -0.511062  0  2.326615  0
O  O48  1  0.30874394  0.92031859  0.35119416  1  0  -0.599013  0  2.063858  0  0  -0.558434  0  2.294954  0  0  -0.572614  0  2.281946  0  0  -0.456466  -0.54813  0  2.303894  0
O  O49  1  0.19125507  0.07968038  0.85119568  1  0  -0.599025  0  2.063858  0  0  -0.558436  0  2.29496  0  0  -0.572616  0  2.281951  0  0  -0.456456  -0.548132  0  2.3039  0
O  O50  1  0.80874561  0.57968209  0.64880662  1  0  -0.599016  0  2.063758  0  0  -0.558433  0  2.294864  0  0  -0.572612  0  2.281856  0  0  -0.456482  -0.548138  0  2.303832  0
O  O51  1  0.69125462  0.42032066  0.14880419  1  0  -0.599017  0  2.063854  0  0  -0.558427  0  2.294954  0  0  -0.572606  0  2.281945  0  0  -0.456459  -0.548127  0  2.303902  0
O  O52  1  0.31415972  0.62781414  0.17292850  1  0  -0.574611  0  2.08579  0  0  -0.536346  0  2.312171  0  0  -0.550353  0  2.301407  0  0  -0.455791  -0.526283  0  2.319392  0
O  O53  1  0.18584125  0.37218630  0.67292987  1  0  -0.574588  0  2.085869  0  0  -0.536331  0  2.312246  0  0  -0.550331  0  2.301472  0  0  -0.455772  -0.526266  0  2.319462  0
O  O54  1  0.81416056  0.87218525  0.82707229  1  0  -0.574423  0  2.086055  0  0  -0.536248  0  2.31233  0  0  -0.550244  0  2.301545  0  0  -0.455731  -0.526185  0  2.319549  0
O  O55  1  0.68584166  0.12781474  0.32706999  1  0  -0.574598  0  2.085786  0  0  -0.536333  0  2.31217  0  0  -0.550334  0  2.301391  0  0  -0.455762  -0.526269  0  2.319389  0
O  O56  1  0.64045857  0.76364206  0.14157239  1  0  -0.62993  0  2.077411  0  0  -0.560441  0  2.302368  0  0  -0.587039  0  2.291732  0  0  -0.300115  -0.542043  0  2.309507  0
O  O57  1  0.85953900  0.23635811  0.64157138  1  0  -0.629864  0  2.077287  0  0  -0.560471  0  2.302293  0  0  -0.587071  0  2.29166  0  0  -0.300131  -0.542062  0  2.309427  0
O  O58  1  0.14046026  0.73635743  0.85842807  1  0  -0.629934  0  2.077393  0  0  -0.560465  0  2.302359  0  0  -0.587063  0  2.291723  0  0  -0.300125  -0.542064  0  2.309493  0
O  O59  1  0.35953878  0.26364283  0.35842788  1  0  -0.629908  0  2.077331  0  0  -0.560483  0  2.302316  0  0  -0.587083  0  2.291684  0  0  -0.300132  -0.542069  0  2.309443  0
O  O60  1  0.53596552  0.03136428  0.10712685  1  0  -0.682543  0  1.990109  0  0  -0.639746  0  2.235748  0  0  -0.6632  0  2.225353  0  0  -0.39124  -0.623318  0  2.242484  0
O  O61  1  0.96403323  0.96863721  0.60712939  1  0  -0.68247  0  1.990092  0  0  -0.639729  0  2.235744  0  0  -0.663184  0  2.225352  0  0  -0.391229  -0.623301  0  2.242484  0
O  O62  1  0.03596589  0.46863426  0.89287457  1  0  -0.682461  0  1.99005  0  0  -0.63967  0  2.235671  0  0  -0.663122  0  2.225276  0  0  -0.39118  -0.623242  0  2.242406  0
O  O63  1  0.46403328  0.53136338  0.39287168  1  0  -0.682524  0  1.990141  0  0  -0.639728  0  2.235762  0  0  -0.663182  0  2.22537  0  0  -0.391205  -0.6233  0  2.242503  0
