# generated using pymatgen
data_ZnH14C22NO4
_symmetry_space_group_name_H-M   'P 1'
_cell_length_a   15.26592118
_cell_length_b   15.31188420
_cell_length_c   18.22460419
_cell_angle_alpha   84.16721850
_cell_angle_beta   74.24783162
_cell_angle_gamma   80.12970507
_symmetry_Int_Tables_number   1
_chemical_formula_structural   ZnH14C22NO4
_chemical_formula_sum   'Zn6 H84 C132 N6 O24'
_cell_volume   4032.50681372
_cell_formula_units_Z   6
loop_
 _symmetry_equiv_pos_site_id
 _symmetry_equiv_pos_as_xyz
  1  'x, y, z'
loop_
 _atom_site_type_symbol
 _atom_site_label
 _atom_site_symmetry_multiplicity
 _atom_site_fract_x
 _atom_site_fract_y
 _atom_site_fract_z
 _atom_site_occupancy
 _atom_site_pbe_bader_charge
 _atom_site_pbe_bader_spin_density
 _atom_site_pbe_cm5_charge
 _atom_site_pbe_ddec_charge
 _atom_site_pbe_ddec_spin_density
 _atom_site_pbe_ddec_sum_bond_order
 _atom_site_pbe_magmom
Zn  Zn0  1  0.73178891  0.32369915  0.41228493  1  1.292942  0  0.67216  0.834282  0  2.401559  0
Zn  Zn1  1  0.26821528  0.67629833  0.58771577  1  1.292922  0  0.67217  0.834288  0  2.401517  0
Zn  Zn2  1  0.78193662  0.33338342  0.24726587  1  1.296368  0  0.675237  0.832676  0  2.388175  0
Zn  Zn3  1  0.21806110  0.66661695  0.75273114  1  1.296333  0  0.675212  0.832663  0  2.388128  0
Zn  Zn4  1  0.97631424  0.99525619  0.08283226  1  1.299446  0  0.67639  0.836212  0  2.389406  0
Zn  Zn5  1  0.02367283  0.00473654  0.91717325  1  1.297  0  0.676462  0.836294  0  2.389411  0
H  H6  1  0.43003892  0.34447412  0.45956728  1  0.103993  0  0.106613  0.112198  0  1.011422  0
H  H7  1  0.56997126  0.65552458  0.54042209  1  0.103859  0  0.106595  0.112143  0  1.011373  0
H  H8  1  0.27074661  0.34097137  0.45391148  1  0.061147  0  0.096357  0.091512  0  1.048625  0
H  H9  1  0.72925859  0.65902345  0.54608646  1  0.061192  0  0.096354  0.091507  0  1.048634  0
H  H10  1  0.36160070  0.35969531  0.20725267  1  0.049882  0  0.098941  0.09591  0  1.01875  0
H  H11  1  0.63839992  0.64030363  0.79274543  1  0.049894  0  0.098964  0.0959  0  1.018728  0
H  H12  1  0.51845596  0.36869112  0.21559026  1  0.100252  0  0.105331  0.112763  0  0.995767  0
H  H13  1  0.48154533  0.63130788  0.78439780  1  0.100732  0  0.105326  0.112676  0  0.996075  0
H  H14  1  0.15518169  0.31115372  0.44723590  1  0.043441  0  0.098501  0.098423  0  1.019238  0
H  H15  1  0.84481900  0.68885576  0.55276574  1  0.043586  0  0.098534  0.098486  0  1.019178  0
H  H16  1  0.99991296  0.29643761  0.43911526  1  0.088508  0  0.102118  0.10744  0  1.004722  0
H  H17  1  0.00008865  0.70356984  0.56088853  1  0.088508  0  0.102077  0.107383  0  1.004778  0
H  H18  1  0.08098456  0.34630695  0.19606538  1  0.068842  0  0.102213  0.105218  0  1.020453  0
H  H19  1  0.91901160  0.65368945  0.80393888  1  0.068776  0  0.102204  0.105211  0  1.020375  0
H  H20  1  0.23458792  0.36719224  0.20276578  1  0.035055  0  0.097552  0.094061  0  1.024061  0
H  H21  1  0.76540836  0.63280878  0.79723753  1  0.034978  0  0.097536  0.094059  0  1.023973  0
H  H22  1  0.83115125  0.61615538  0.20493572  1  0.086209  0  0.099602  0.100745  0  1.033002  0
H  H23  1  0.16884570  0.38384567  0.79506195  1  0.08644  0  0.099593  0.100759  0  1.03294  0
H  H24  1  0.82634859  0.77801875  0.21101076  1  0.057534  0  0.099758  0.101328  0  1.027382  0
H  H25  1  0.17364502  0.22198172  0.78898990  1  0.057505  0  0.09977  0.101303  0  1.027387  0
H  H26  1  0.66680840  0.76236243  0.44598419  1  0.050901  0  0.100253  0.099221  0  1.022127  0
H  H27  1  0.33319741  0.23763299  0.55401960  1  0.050903  0  0.100301  0.099296  0  1.02202  0
H  H28  1  0.67762569  0.59904513  0.43936239  1  0.08713  0  0.102767  0.104268  0  1.027962  0
H  H29  1  0.32237867  0.40095104  0.56063618  1  0.086898  0  0.102756  0.104279  0  1.027944  0
H  H30  1  0.75204543  0.90980162  0.21338571  1  0.064002  0  0.101974  0.103833  0  1.020711  0
H  H31  1  0.24795282  0.09019996  0.78662150  1  0.063839  0  0.101997  0.103849  0  1.020666  0
H  H32  1  0.75453226  0.06907765  0.21891278  1  0.093261  0  0.102863  0.106503  0  1.027051  0
H  H33  1  0.24545846  0.93092422  0.78109008  1  0.093396  0  0.102908  0.106559  0  1.02705  0
H  H34  1  0.73679995  0.03314206  0.45911738  1  0.086437  0  0.101516  0.104219  0  1.004444  0
H  H35  1  0.26319692  0.96685959  0.54088739  1  0.08655  0  0.101504  0.104213  0  1.004494  0
H  H36  1  0.73679127  0.87165309  0.45444765  1  0.071843  0  0.098601  0.097413  0  1.010746  0
H  H37  1  0.26320903  0.12834845  0.54555635  1  0.072139  0  0.0986  0.097367  0  1.010828  0
H  H38  1  0.75135122  0.45845331  0.50892202  1  0.131325  0  0.123326  0.099514  0  1.002364  0
H  H39  1  0.24865027  0.54154959  0.49107338  1  0.131461  0  0.123331  0.099577  0  1.002327  0
H  H40  1  0.76768447  0.46642165  0.64089499  1  0.084269  0  0.108762  0.11632  0  1.019763  0
H  H41  1  0.23233129  0.53358149  0.35909330  1  0.083595  0  0.108828  0.116336  0  1.019711  0
H  H42  1  0.71901629  0.19326252  0.68434738  1  0.054507  0  0.11159  0.119085  0  0.991497  0
H  H43  1  0.28099880  0.80674055  0.31565150  1  0.054498  0  0.111635  0.119088  0  0.991599  0
H  H44  1  0.70624319  0.19735154  0.54983425  1  0.14101  0  0.126727  0.103182  0  0.979178  0
H  H45  1  0.29375174  0.80265481  0.45016895  1  0.140908  0  0.126685  0.103071  0  0.979225  0
H  H46  1  0.68524975  0.46632950  0.76807332  1  0.060785  0  0.099692  0.097787  0  1.039162  0
H  H47  1  0.31476863  0.53368015  0.23191552  1  0.060384  0  0.09965  0.097681  0  1.039353  0
H  H48  1  0.69528721  0.46780793  0.90046070  1  0.07165  0  0.102834  0.099541  0  1.005449  0
H  H49  1  0.30471855  0.53219349  0.09953604  1  0.071588  0  0.102809  0.099518  0  1.005439  0
H  H50  1  0.83776353  0.19815807  0.88825477  1  0.100289  0  0.106598  0.116742  0  1.019199  0
H  H51  1  0.16223142  0.80183706  0.11174766  1  0.100251  0  0.106627  0.116775  0  1.019263  0
H  H52  1  0.82556335  0.19623683  0.75683268  1  0.049996  0  0.099071  0.09487  0  1.021692  0
H  H53  1  0.17444961  0.80376700  0.24316388  1  0.049756  0  0.099118  0.095  0  1.021878  0
H  H54  1  0.77571236  0.47526357  0.98379791  1  0.081737  0  0.110234  0.116416  0  0.995085  0
H  H55  1  0.22428029  0.52473367  0.01619884  1  0.081523  0  0.110189  0.116319  0  0.99522  0
H  H56  1  0.78195518  0.46784635  0.11956028  1  0.126029  0  0.124952  0.101323  0  0.982021  0
H  H57  1  0.21804202  0.53215275  0.88043255  1  0.127811  0  0.125023  0.101413  0  0.98199  0
H  H58  1  0.78062113  0.19647873  0.14279858  1  0.13675  0  0.123363  0.101713  0  1.004952  0
H  H59  1  0.21936537  0.80351864  0.85720724  1  0.136967  0  0.123396  0.101799  0  1.004977  0
H  H60  1  0.76812323  0.19239321  0.00980879  1  0.090512  0  0.108329  0.113878  0  1.039837  0
H  H61  1  0.23185422  0.80760578  0.99019676  1  0.090294  0  0.108278  0.11381  0  1.039565  0
H  H62  1  0.67575298  0.99181379  0.13179264  1  0.09084  0  0.104184  0.107531  0  1.021526  0
H  H63  1  0.32424208  0.00818605  0.86819952  1  0.090951  0  0.104177  0.107513  0  1.021484  0
H  H64  1  0.52080505  0.97658665  0.12514260  1  0.046571  0  0.100917  0.099083  0  1.017236  0
H  H65  1  0.47918650  0.02342519  0.87485050  1  0.046388  0  0.100909  0.099036  0  1.017088  0
H  H66  1  0.60016118  0.03703801  0.88127830  1  0.045355  0  0.098765  0.095682  0  1.021361  0
H  H67  1  0.39983690  0.96296500  0.11871841  1  0.045497  0  0.098728  0.095614  0  1.021379  0
H  H68  1  0.75579150  0.04910353  0.88959975  1  0.071566  0  0.101482  0.106609  0  1.007368  0
H  H69  1  0.24420670  0.95089288  0.11039416  1  0.071774  0  0.101448  0.106559  0  1.007374  0
H  H70  1  0.02769671  0.29503126  0.86896713  1  0.047922  0  0.102043  0.102085  0  1.016175  0
H  H71  1  0.97229537  0.70497055  0.13103762  1  0.047829  0  0.102082  0.102133  0  1.01625  0
H  H72  1  0.02081307  0.45579978  0.87478188  1  0.059177  0  0.102334  0.102971  0  1.019004  0
H  H73  1  0.97918936  0.54420102  0.12522279  1  0.059108  0  0.102363  0.102964  0  1.018962  0
H  H74  1  0.98990691  0.41834896  0.11886287  1  0.056989  0  0.101705  0.102686  0  1.033733  0
H  H75  1  0.01008998  0.58164148  0.88113949  1  0.057194  0  0.101718  0.102752  0  1.033657  0
H  H76  1  0.99876714  0.25961257  0.11092182  1  0.07499  0  0.103656  0.10816  0  1.026484  0
H  H77  1  0.00121908  0.74038158  0.88907499  1  0.075248  0  0.103679  0.108215  0  1.026348  0
H  H78  1  0.98196193  0.13374503  0.18481046  1  0.149265  0  0.123128  0.100384  0  1.005937  0
H  H79  1  0.01803169  0.86625537  0.81519844  1  0.149575  0  0.123119  0.100421  0  1.005902  0
H  H80  1  0.99544386  0.13913483  0.31737696  1  0.106194  0  0.109941  0.118008  0  1.025455  0
H  H81  1  0.00455708  0.86086140  0.68262786  1  0.106234  0  0.109939  0.118013  0  1.025462  0
H  H82  1  0.97563856  0.85856080  0.34894309  1  0.09135  0  0.110848  0.117742  0  0.993173  0
H  H83  1  0.02436878  0.14143325  0.65105937  1  0.091203  0  0.110895  0.117798  0  0.993173  0
H  H84  1  0.96726668  0.86461506  0.21362841  1  0.115927  0  0.122031  0.096956  0  0.998119  0
H  H85  1  0.03273583  0.13538508  0.78637630  1  0.115856  0  0.121989  0.096888  0  0.998191  0
H  H86  1  0.07098621  0.86689543  0.42573857  1  0.077342  0  0.098906  0.094794  0  1.021115  0
H  H87  1  0.92902305  0.13310515  0.57426567  1  0.07771  0  0.098911  0.094828  0  1.021194  0
H  H88  1  0.08269069  0.86795627  0.55774744  1  0.09962  0  0.106364  0.115726  0  1.015077  0
H  H89  1  0.91731548  0.13204175  0.44225881  1  0.099718  0  0.106373  0.115818  0  1.014991  0
C  C90  1  0.58130293  0.35408794  0.34140127  1  1.569802  0  0.213081  0.590759  0  4.180445  0
C  C91  1  0.41870066  0.64590890  0.65859797  1  1.570208  0  0.213094  0.590909  0  4.180176  0
C  C92  1  0.48384752  0.35695245  0.33807759  1  -0.020066  0  -0.015347  -0.022822  0  3.956008  0
C  C93  1  0.51615671  0.64305038  0.66191609  1  -0.019244  0  -0.015484  -0.023124  0  3.956188  0
C  C94  1  0.41313298  0.34934256  0.40474354  1  -0.037757  0  -0.084254  -0.091203  0  3.980574  0
C  C95  1  0.58686971  0.65066163  0.59525093  1  -0.038164  0  -0.084215  -0.091036  0  3.980476  0
C  C96  1  0.32399358  0.34653152  0.40071723  1  -0.067627  0  -0.09458  -0.14239  0  3.990803  0
C  C97  1  0.67600892  0.65346869  0.59927924  1  -0.06779  0  -0.094528  -0.142338  0  3.990808  0
C  C98  1  0.30238814  0.34925374  0.32993785  1  -0.033433  0  -0.009941  0.057702  0  4.002775  0
C  C99  1  0.69761360  0.65074715  0.67005875  1  -0.033513  0  -0.010055  0.057457  0  4.002882  0
C  C100  1  0.37426136  0.35831294  0.26342193  1  -0.046645  0  -0.095477  -0.140542  0  4.004707  0
C  C101  1  0.62574456  0.64168716  0.73657487  1  -0.046579  0  -0.09547  -0.140416  0  4.004788  0
C  C102  1  0.46304785  0.36280305  0.26732100  1  -0.040004  0  -0.083122  -0.086283  0  3.981992  0
C  C103  1  0.53695818  0.63720169  0.73267266  1  -0.040683  0  -0.082997  -0.086077  0  3.982192  0
C  C104  1  0.20870143  0.34054696  0.32559133  1  -0.013539  0  -0.007656  0.067505  0  3.992929  0
C  C105  1  0.79130219  0.65945517  0.67440858  1  -0.013401  0  -0.0076  0.067723  0  3.992591  0
C  C106  1  0.14021461  0.32022897  0.39157709  1  -0.084871  0  -0.094228  -0.134292  0  3.984446  0
C  C107  1  0.85978664  0.67977587  0.60842424  1  -0.085004  0  -0.094338  -0.13456  0  3.984426  0
C  C108  1  0.05275740  0.31086881  0.38761030  1  -0.010676  0  -0.087951  -0.090886  0  3.997858  0
C  C109  1  0.94724462  0.68913536  0.61238872  1  -0.010665  0  -0.087781  -0.090563  0  3.997516  0
C  C110  1  0.03037335  0.31971422  0.31727404  1  -0.012002  0  -0.020768  -0.037152  0  3.978984  0
C  C111  1  0.96962634  0.68028667  0.68273070  1  -0.011987  0  -0.020913  -0.037393  0  3.979087  0
C  C112  1  0.09771946  0.33927740  0.25104725  1  0.00921  0  -0.086183  -0.088993  0  3.982426  0
C  C113  1  0.90227689  0.66072297  0.74895500  1  0.00924  0  -0.086114  -0.088895  0  3.982338  0
C  C114  1  0.18468984  0.35041837  0.25540572  1  -0.07076  0  -0.093221  -0.133329  0  3.98638  0
C  C115  1  0.81530735  0.64958065  0.74459644  1  -0.070793  0  -0.093169  -0.133338  0  3.986101  0
C  C116  1  0.93480207  0.31128944  0.31491148  1  1.542672  0  0.207723  0.575275  0  4.210895  0
C  C117  1  0.06519272  0.68870701  0.68509198  1  1.542345  0  0.207692  0.575142  0  4.210613  0
C  C118  1  0.76045284  0.49945424  0.32024351  1  1.581209  0  0.213043  0.591058  0  4.176949  0
C  C119  1  0.23955119  0.50054462  0.67975108  1  1.581566  0  0.213052  0.591247  0  4.176922  0
C  C120  1  0.75601128  0.59755874  0.32236907  1  -0.053529  0  -0.021388  -0.035131  0  3.976708  0
C  C121  1  0.24398958  0.40243824  0.67762639  1  -0.05355  0  -0.021426  -0.035325  0  3.977024  0
C  C122  1  0.79637959  0.64867389  0.25779473  1  -0.047014  0  -0.087576  -0.088992  0  3.98821  0
C  C123  1  0.20361897  0.35132514  0.74220109  1  -0.047184  0  -0.087532  -0.088939  0  3.98829  0
C  C124  1  0.79269260  0.73959523  0.26143127  1  -0.042705  0  -0.093635  -0.138902  0  3.974631  0
C  C125  1  0.20730503  0.26040579  0.73856680  1  -0.042688  0  -0.093661  -0.138882  0  3.974713  0
C  C126  1  0.74718755  0.78219430  0.32943833  1  -0.032672  0  -0.007851  0.071402  0  4.005177  0
C  C127  1  0.25281213  0.21780661  0.67056422  1  -0.03271  0  -0.007873  0.071435  0  4.005144  0
C  C128  1  0.70535076  0.73040544  0.39354160  1  -0.043268  0  -0.096407  -0.14299  0  3.994847  0
C  C129  1  0.29465275  0.26959205  0.60646035  1  -0.043288  0  -0.096451  -0.143093  0  3.994719  0
C  C130  1  0.71033829  0.63943821  0.39013714  1  -0.02597  0  -0.088453  -0.094293  0  3.996953  0
C  C131  1  0.28966522  0.36055931  0.60986096  1  -0.025789  0  -0.088424  -0.094242  0  3.997015  0
C  C132  1  0.74381282  0.87839678  0.33359029  1  -0.014503  0  -0.007767  0.066688  0  4.01075  0
C  C133  1  0.25618446  0.12160156  0.66641410  1  -0.014608  0  -0.007763  0.066694  0  4.010652  0
C  C134  1  0.74810853  0.93591386  0.26785754  1  -0.060808  0  -0.09245  -0.138535  0  3.980353  0
C  C135  1  0.25188271  0.06408929  0.73214839  1  -0.058771  0  -0.092486  -0.138675  0  3.980469  0
C  C136  1  0.74909107  0.02600252  0.27076858  1  -0.030475  0  -0.084863  -0.083015  0  3.980112  0
C  C137  1  0.25089523  0.97400210  0.72923946  1  -0.031833  0  -0.084967  -0.082946  0  3.980117  0
C  C138  1  0.74540915  0.06155740  0.33960395  1  0.045425  0  -0.021843  -0.041062  0  3.97102  0
C  C139  1  0.25457722  0.93844658  0.66040247  1  0.044878  0  -0.021762  -0.041295  0  3.970938  0
C  C140  1  0.73923602  0.00517621  0.40582229  1  -0.091467  0  -0.086201  -0.087313  0  3.994845  0
C  C141  1  0.26075703  0.99482889  0.59418033  1  -0.091642  0  -0.08617  -0.087203  0  3.994919  0
C  C142  1  0.73865914  0.91492213  0.40281260  1  -0.062254  0  -0.094599  -0.137457  0  3.989997  0
C  C143  1  0.26133935  0.08507750  0.59719087  1  -0.062567  0  -0.094621  -0.137411  0  3.990117  0
C  C144  1  0.75080882  0.15786646  0.34160820  1  1.546817  0  0.212989  0.587246  0  4.183665  0
C  C145  1  0.24918363  0.84213799  0.65839571  1  1.546766  0  0.21305  0.587427  0  4.183564  0
C  C146  1  0.74455040  0.40177519  0.55036630  1  0.488891  0  0.057952  0.108709  0  3.913762  0
C  C147  1  0.25545359  0.59822961  0.44962892  1  0.488686  0  0.05785  0.108543  0  3.913771  0
C  C148  1  0.75334314  0.40530533  0.62377525  1  -0.009343  0  -0.078083  -0.1699  0  3.927968  0
C  C149  1  0.24666948  0.59470119  0.37621568  1  -0.009083  0  -0.078112  -0.169901  0  3.92792  0
C  C150  1  0.74543363  0.32974741  0.67438055  1  -0.063542  0  0.015685  0.114688  0  3.986662  0
C  C151  1  0.25458403  0.67025694  0.32561381  1  -0.062711  0  0.015674  0.114692  0  3.986798  0
C  C152  1  0.72813337  0.25332067  0.64724826  1  -0.021085  0  -0.083008  -0.186143  0  3.959765  0
C  C153  1  0.27188096  0.74668310  0.35274855  1  -0.021435  0  -0.082976  -0.186019  0  3.959706  0
C  C154  1  0.71973866  0.25509960  0.57308965  1  0.500649  0  0.055358  0.09964  0  3.93593  0
C  C155  1  0.28026412  0.74490387  0.42691089  1  0.501398  0  0.05541  0.099781  0  3.935946  0
C  C156  1  0.75409556  0.33100511  0.75284140  1  0.012922  0  -0.006317  0.059557  0  3.998658  0
C  C157  1  0.24592177  0.66900191  0.24715117  1  0.012648  0  -0.006308  0.059481  0  3.998858  0
C  C158  1  0.71970597  0.40784090  0.79398755  1  0.002138  0  -0.084059  -0.113892  0  3.972782  0
C  C159  1  0.28030767  0.59216292  0.20600721  1  0.002673  0  -0.084003  -0.113663  0  3.972855  0
C  C160  1  0.72562998  0.40860895  0.86865219  1  -0.105049  0  -0.085875  -0.119186  0  3.982402  0
C  C161  1  0.27437595  0.59139114  0.13134516  1  -0.105053  0  -0.085856  -0.119217  0  3.982288  0
C  C162  1  0.76679872  0.33321622  0.90456523  1  0.002169  0  -0.003104  0.064837  0  3.984361  0
C  C163  1  0.23320077  0.66678077  0.09543383  1  0.002158  0  -0.003072  0.064907  0  3.984469  0
C  C164  1  0.80275151  0.25679628  0.86286575  1  -0.001384  0  -0.081376  -0.112472  0  3.945086  0
C  C165  1  0.19724910  0.74320264  0.13713510  1  -0.001595  0  -0.08144  -0.112547  0  3.94524  0
C  C166  1  0.79591487  0.25576167  0.78843588  1  -0.070185  0  -0.086554  -0.121381  0  3.982355  0
C  C167  1  0.20409554  0.74424620  0.21156094  1  -0.06953  0  -0.086602  -0.12156  0  3.982742  0
C  C168  1  0.77114927  0.33367113  0.98434002  1  -0.022045  0  0.01589  0.110429  0  3.983736  0
C  C169  1  0.22884765  0.66632458  0.01566357  1  -0.019262  0  0.015905  0.110413  0  3.983564  0
C  C170  1  0.77432393  0.41198662  0.01702016  1  -0.052758  0  -0.080859  -0.177234  0  3.955572  0
C  C171  1  0.22566905  0.58800794  0.98297893  1  -0.052727  0  -0.080856  -0.177229  0  3.955588  0
C  C172  1  0.77918576  0.40862446  0.09216346  1  0.496317  0  0.055481  0.103065  0  3.935111  0
C  C173  1  0.22080790  0.59137009  0.90783493  1  0.494369  0  0.055517  0.103163  0  3.935131  0
C  C174  1  0.77835605  0.25656304  0.10543220  1  0.442051  0  0.056135  0.108832  0  3.906946  0
C  C175  1  0.22163882  0.74343274  0.89457130  1  0.44199  0  0.056087  0.108693  0  3.907356  0
C  C176  1  0.77230491  0.25495647  0.03105553  1  0.035346  0  -0.078112  -0.163078  0  3.917934  0
C  C177  1  0.22768987  0.74504001  0.96894464  1  0.03297  0  -0.078121  -0.163  0  3.917732  0
C  C178  1  0.82263523  0.02566825  0.01340145  1  1.552959  0  0.208032  0.573713  0  4.202656  0
C  C179  1  0.17735896  0.97432760  0.98659726  1  1.553793  0  0.207901  0.573476  0  4.202646  0
C  C180  1  0.72613910  0.02150997  0.01104178  1  -0.079607  0  -0.024002  -0.042482  0  3.980683  0
C  C181  1  0.27385708  0.97849178  0.98895436  1  -0.087803  0  -0.024005  -0.042395  0  3.980904  0
C  C182  1  0.65853532  0.00164395  0.07700865  1  0.013254  0  -0.084945  -0.087154  0  3.978999  0
C  C183  1  0.34145475  0.99836328  0.92298954  1  0.020506  0  -0.084912  -0.087189  0  3.979141  0
C  C184  1  0.57084107  0.99323426  0.07258510  1  -0.0348  0  -0.090849  -0.130672  0  3.976453  0
C  C185  1  0.42915004  0.00677560  0.92740991  1  -0.034655  0  -0.090921  -0.130595  0  3.976295  0
C  C186  1  0.54658000  0.00505674  0.00245162  1  -0.007851  0  -0.003614  0.070505  0  3.984864  0
C  C187  1  0.45341397  0.99494643  0.99754162  1  0.026295  0  -0.00373  0.070173  0  3.984999  0
C  C188  1  0.61506796  0.02659545  0.93692373  1  -0.081397  0  -0.091681  -0.131306  0  3.988675  0
C  C189  1  0.38492830  0.97340564  0.06307244  1  -0.081376  0  -0.091553  -0.131072  0  3.988568  0
C  C190  1  0.70298317  0.03416914  0.94095525  1  -0.012691  0  -0.086623  -0.089511  0  3.996528  0
C  C191  1  0.29701499  0.96583323  0.05903710  1  -0.012769  0  -0.086638  -0.089554  0  3.996538  0
C  C192  1  0.01225078  0.16946359  0.98638965  1  1.568232  0  0.213739  0.58845  0  4.180197  0
C  C193  1  0.98774389  0.83052826  0.01361146  1  1.568534  0  0.213834  0.588632  0  4.179785  0
C  C194  1  0.01407508  0.26624785  0.98924468  1  -0.064762  0  -0.022303  -0.041731  0  3.977921  0
C  C195  1  0.98593121  0.73374362  0.01075493  1  -0.065076  0  -0.022417  -0.042119  0  3.978137  0
C  C196  1  0.02080069  0.32299355  0.92325508  1  -0.015375  0  -0.087806  -0.090735  0  3.994411  0
C  C197  1  0.97919096  0.67700627  0.07675212  1  -0.014846  0  -0.087752  -0.090616  0  3.994543  0
C  C198  1  0.01641105  0.41382384  0.92724811  1  -0.004274  0  -0.093802  -0.13784  0  3.980478  0
C  C199  1  0.98357822  0.58617872  0.07275722  1  -0.004336  0  -0.093916  -0.137838  0  3.980493  0
C  C200  1  0.00474130  0.45148634  0.99740518  1  -0.090976  0  -0.008474  0.06419  0  4.002517  0
C  C201  1  0.99525175  0.54851875  0.00259964  1  -0.048567  0  -0.008399  0.064238  0  4.002495  0
C  C202  1  0.00050983  0.39321010  0.06282944  1  -0.034317  0  -0.094355  -0.142137  0  3.984185  0
C  C203  1  0.99948846  0.60678555  0.93717549  1  -0.034508  0  -0.09439  -0.14223  0  3.984122  0
C  C204  1  0.00510545  0.30244904  0.05888900  1  0.027178  0  -0.084463  -0.083126  0  3.981326  0
C  C205  1  0.99489601  0.69754857  0.94110737  1  0.026791  0  -0.084379  -0.082946  0  3.980993  0
C  C206  1  0.98177412  0.07441619  0.22321166  1  0.450605  0  0.059794  0.11692  0  3.901356  0
C  C207  1  0.01822541  0.92558604  0.77679247  1  0.450485  0  0.059774  0.116842  0  3.901736  0
C  C208  1  0.98851331  0.07673971  0.29733091  1  0.004281  0  -0.078932  -0.167849  0  3.918423  0
C  C209  1  0.01149310  0.92325635  0.70267269  1  0.004024  0  -0.07896  -0.167849  0  3.918693  0
C  C210  1  0.98747141  0.99880999  0.34507663  1  -0.005237  0  0.016572  0.113104  0  3.990274  0
C  C211  1  0.01253637  0.00118600  0.65492941  1  -0.005436  0  0.016481  0.112949  0  3.990202  0
C  C212  1  0.97979620  0.92076782  0.31429878  1  -0.06018  0  -0.081768  -0.181757  0  3.965889  0
C  C213  1  0.02020936  0.07922957  0.68570546  1  -0.059838  0  -0.081754  -0.181636  0  3.96561  0
C  C214  1  0.97369973  0.92353927  0.23955267  1  0.482992  0  0.052025  0.099352  0  3.941707  0
C  C215  1  0.02630270  0.07646153  0.76045310  1  0.483154  0  0.052143  0.099479  0  3.94153  0
C  C216  1  0.99366652  0.99934547  0.42423397  1  0.000414  0  -0.00571  0.061899  0  3.994263  0
C  C217  1  0.00634676  0.00065565  0.57576767  1  0.000736  0  -0.005659  0.06183  0  3.994194  0
C  C218  1  0.03859160  0.92502845  0.45855971  1  -0.036998  0  -0.088287  -0.124624  0  3.98478  0
C  C219  1  0.96141903  0.07497209  0.54144423  1  -0.037405  0  -0.088343  -0.124683  0  3.984841  0
C  C220  1  0.04510337  0.92542801  0.53313231  1  -0.090589  0  -0.082336  -0.113175  0  3.953265  0
C  C221  1  0.95490509  0.07456797  0.46687138  1  -0.0906  0  -0.082342  -0.113347  0  3.953187  0
N  N222  1  0.72802011  0.32799767  0.52524268  1  -1.258807  0  -0.323103  -0.20735  0  3.520361  0
N  N223  1  0.27197941  0.67200462  0.47475485  1  -1.259385  0  -0.323107  -0.207385  0  3.520638  0
N  N224  1  0.78195300  0.33212104  0.13557203  1  -1.242524  0  -0.327653  -0.213046  0  3.54299  0
N  N225  1  0.21804291  0.66787738  0.86442883  1  -1.2425  0  -0.327723  -0.213157  0  3.543124  0
N  N226  1  0.97468753  0.99903648  0.19458355  1  -1.250011  0  -0.329909  -0.218163  0  3.541301  0
N  N227  1  0.02531164  0.00096311  0.80542087  1  -1.250266  0  -0.329952  -0.218226  0  3.541568  0
O  O228  1  0.59832915  0.33689183  0.40652657  1  -1.156007  0  -0.322121  -0.538681  0  2.287644  0
O  O229  1  0.40167469  0.66310307  0.59346838  1  -1.156006  0  -0.322131  -0.538713  0  2.287347  0
O  O230  1  0.63969704  0.36710496  0.27830139  1  -1.176688  0  -0.319902  -0.55927  0  2.348339  0
O  O231  1  0.36030426  0.63289396  0.72169656  1  -1.177053  0  -0.319877  -0.559282  0  2.348316  0
O  O232  1  0.91928115  0.30939028  0.24974370  1  -1.154763  0  -0.314986  -0.541576  0  2.31249  0
O  O233  1  0.08071440  0.69060544  0.75026513  1  -1.15467  0  -0.31495  -0.541567  0  2.312227  0
O  O234  1  0.87591904  0.30690228  0.37919516  1  -1.180538  0  -0.32025  -0.56821  0  2.366296  0
O  O235  1  0.12408207  0.69309263  0.62080919  1  -1.180329  0  -0.32028  -0.568128  0  2.366111  0
O  O236  1  0.73377533  0.45728749  0.38432399  1  -1.178951  0  -0.315259  -0.555584  0  2.363396  0
O  O237  1  0.26622544  0.54271015  0.61567199  1  -1.179071  0  -0.315317  -0.555654  0  2.363333  0
O  O238  1  0.79046700  0.46550230  0.25544821  1  -1.166436  0  -0.316814  -0.544231  0  2.31123  0
O  O239  1  0.20953683  0.53449257  0.74454948  1  -1.166546  0  -0.316717  -0.544244  0  2.311331  0
O  O240  1  0.76535676  0.20264626  0.27766212  1  -1.17722  0  -0.315675  -0.560274  0  2.367992  0
O  O241  1  0.23462382  0.79736054  0.72234539  1  -1.177317  0  -0.315707  -0.560278  0  2.367933  0
O  O242  1  0.74137883  0.18806867  0.40642217  1  -1.165272  0  -0.318113  -0.551389  0  2.324372  0
O  O243  1  0.25862118  0.81192957  0.59358326  1  -1.165084  0  -0.31815  -0.551454  0  2.324357  0
O  O244  1  0.84050364  0.01648374  0.07849078  1  -1.162615  0  -0.314821  -0.539044  0  2.313876  0
O  O245  1  0.15948745  0.98350956  0.92150938  1  -1.162904  0  -0.314742  -0.538851  0  2.313525  0
O  O246  1  0.88016472  0.03789780  0.94947559  1  -1.182088  0  -0.320632  -0.567372  0  2.364872  0
O  O247  1  0.11983151  0.96209797  0.05052486  1  -1.182095  0  -0.320507  -0.567198  0  2.364905  0
O  O248  1  0.99305919  0.12520268  0.05037228  1  -1.184417  0  -0.314538  -0.558638  0  2.372183  0
O  O249  1  0.00693608  0.87478982  0.94962754  1  -1.184608  0  -0.314663  -0.558741  0  2.371952  0
O  O250  1  0.02862220  0.13844772  0.92091493  1  -1.168983  0  -0.317171  -0.546647  0  2.32421  0
O  O251  1  0.97136362  0.86154971  0.07908610  1  -1.168977  0  -0.31721  -0.546765  0  2.324104  0
