# generated using pymatgen
data_NaH15C8S2(NO)2
_symmetry_space_group_name_H-M   'P 1'
_cell_length_a   10.16609418
_cell_length_b   10.12387771
_cell_length_c   13.65350000
_cell_angle_alpha   103.30287048
_cell_angle_beta   102.33939539
_cell_angle_gamma   114.23601051
_symmetry_Int_Tables_number   1
_chemical_formula_structural   NaH15C8S2(NO)2
_chemical_formula_sum   'Na4 H60 C32 S8 N8 O8'
_cell_volume   1169.38526045
_cell_formula_units_Z   4
loop_
 _symmetry_equiv_pos_site_id
 _symmetry_equiv_pos_as_xyz
  1  'x, y, z'
loop_
 _atom_site_type_symbol
 _atom_site_label
 _atom_site_symmetry_multiplicity
 _atom_site_fract_x
 _atom_site_fract_y
 _atom_site_fract_z
 _atom_site_occupancy
 _atom_site_hle17_bader_spin_density
 _atom_site_hle17_ddec_charge
 _atom_site_hle17_ddec_spin_density
 _atom_site_hle17_ddec_sum_bond_order
 _atom_site_hle17_magmom
 _atom_site_hse06_10hf_bader_spin_density
 _atom_site_hse06_10hf_ddec_charge
 _atom_site_hse06_10hf_ddec_spin_density
 _atom_site_hse06_10hf_ddec_sum_bond_order
 _atom_site_hse06_10hf_magmom
 _atom_site_hse06_bader_spin_density
 _atom_site_hse06_ddec_charge
 _atom_site_hse06_ddec_spin_density
 _atom_site_hse06_ddec_sum_bond_order
 _atom_site_hse06_magmom
 _atom_site_pbe_bader_charge
 _atom_site_pbe_bader_spin_density
 _atom_site_pbe_cm5_charge
 _atom_site_pbe_ddec_charge
 _atom_site_pbe_ddec_spin_density
 _atom_site_pbe_ddec_sum_bond_order
 _atom_site_pbe_magmom
Na  Na0  1  0.03497972  0.46218339  0.79732780  1  0  0.844933  0  0.468605  0  0  0.783133  0  0.648332  0  0  0.794485  0  0.627206  0  0.86423  0  0.585588  0.774232  0  0.664345  0
Na  Na1  1  0.16666227  0.23817192  0.70229797  1  0  0.84491  0  0.464269  0  0  0.782673  0  0.643249  0  0  0.794166  0  0.622036  0  0.865523  0  0.580466  0.773717  0  0.659259  0
Na  Na2  1  0.96502132  0.53781863  0.20267234  1  0  0.844936  0  0.468572  0  0  0.783134  0  0.648329  0  0  0.794481  0  0.627198  0  0.864244  0  0.585586  0.774221  0  0.664332  0
Na  Na3  1  0.83333867  0.76182778  0.29770396  1  0  0.844908  0  0.464272  0  0  0.782642  0  0.643278  0  0  0.794153  0  0.62206  0  0.865503  0  0.580455  0.7737  0  0.659286  0
H  H4  1  0.42857888  0.14399429  0.12142583  1  0  0.068305  0  0.939216  0  0  0.080241  0  1.011491  0  0  0.081556  0  1.010583  0  0.063622  0  0.096263  0.079348  0  1.011765  0
H  H5  1  0.52100205  0.30638718  0.37893074  1  0  0.068989  0  0.940123  0  0  0.080717  0  1.012534  0  0  0.081952  0  1.011669  0  0.067825  0  0.096437  0.079819  0  1.012882  0
H  H6  1  0.57142206  0.85600541  0.87857390  1  0  0.068313  0  0.939203  0  0  0.080241  0  1.011486  0  0  0.081555  0  1.010579  0  0.063622  0  0.096264  0.079348  0  1.011759  0
H  H7  1  0.47900146  0.69361367  0.62106960  1  0  0.068987  0  0.940142  0  0  0.080725  0  1.012545  0  0  0.081961  0  1.01168  0  0.067817  0  0.096441  0.079836  0  1.012888  0
H  H8  1  0.23795276  0.99113725  0.09065657  1  0  0.061622  0  0.999102  0  0  0.07435  0  1.070328  0  0  0.075443  0  1.069921  0  0.084374  0  0.094742  0.073476  0  1.070778  0
H  H9  1  0.39976387  0.14553533  0.40903698  1  0  0.060635  0  1.000583  0  0  0.073082  0  1.072007  0  0  0.074071  0  1.071627  0  0.066792  0  0.094743  0.072275  0  1.072427  0
H  H10  1  0.76204919  0.00886245  0.90934405  1  0  0.061629  0  0.999087  0  0  0.074337  0  1.070338  0  0  0.075429  0  1.069933  0  0.084372  0  0.094747  0.073462  0  1.070789  0
H  H11  1  0.60023908  0.85446437  0.59096234  1  0  0.060629  0  1.000561  0  0  0.073081  0  1.071991  0  0  0.074073  0  1.071606  0  0.066812  0  0.094743  0.072275  0  1.072411  0
H  H12  1  0.24915227  0.25126442  0.12080529  1  0  0.076684  0  0.954355  0  0  0.093089  0  1.020895  0  0  0.094024  0  1.021446  0  0.059232  0  0.089559  0.092574  0  1.020261  0
H  H13  1  0.62862561  0.12683176  0.37854560  1  0  0.07577  0  0.953261  0  0  0.092161  0  1.020101  0  0  0.093093  0  1.02066  0  0.054736  0  0.089371  0.091553  0  1.019631  0
H  H14  1  0.75084923  0.74873644  0.87919620  1  0  0.076681  0  0.954347  0  0  0.093085  0  1.020887  0  0  0.094018  0  1.021437  0  0.059265  0  0.089547  0.09257  0  1.020253  0
H  H15  1  0.37137432  0.87316793  0.62145470  1  0  0.075774  0  0.953275  0  0  0.092156  0  1.020115  0  0  0.093088  0  1.020675  0  0.054732  0  0.089383  0.091546  0  1.019642  0
H  H16  1  0.12360075  0.11409873  0.99130672  1  0  0.076329  0  0.941149  0  0  0.091976  0  1.008915  0  0  0.092897  0  1.009473  0  0.016662  0  0.090515  0.091326  0  1.008863  0
H  H17  1  0.62242766  0.13072090  0.50774285  1  0  0.075855  0  0.941963  0  0  0.091572  0  1.009739  0  0  0.09247  0  1.010374  0  0.025712  0  0.090196  0.090889  0  1.009727  0
H  H18  1  0.87640019  0.88590097  0.00869374  1  0  0.076334  0  0.94113  0  0  0.091981  0  1.008896  0  0  0.092899  0  1.009455  0  0.016643  0  0.090497  0.091329  0  1.008846  0
H  H19  1  0.37757127  0.86927880  0.49225730  1  0  0.075834  0  0.94194  0  0  0.09154  0  1.009728  0  0  0.092437  0  1.010366  0  0.025737  0  0.090191  0.090854  0  1.009715  0
H  H20  1  0.45446715  0.37067273  0.05165673  1  0  0.082647  0  0.909153  0  0  0.099545  0  0.959871  0  0  0.100935  0  0.960422  0  0.041893  0  0.105988  0.098939  0  0.959437  0
H  H21  1  0.81802080  0.40303234  0.44903085  1  0  0.082746  0  0.908106  0  0  0.099513  0  0.958618  0  0  0.100901  0  0.959156  0  0.05428  0  0.105639  0.098894  0  0.958217  0
H  H22  1  0.54552820  0.62932581  0.94834338  1  0  0.082647  0  0.909084  0  0  0.099557  0  0.959812  0  0  0.100947  0  0.960364  0  0.041918  0  0.105987  0.09895  0  0.959377  0
H  H23  1  0.18197857  0.59696620  0.55096917  1  0  0.082796  0  0.908076  0  0  0.099547  0  0.958572  0  0  0.100933  0  0.959112  0  0.054211  0  0.105663  0.098933  0  0.958169  0
H  H24  1  0.23267161  0.12152566  0.83150514  1  0  0.068414  0  0.955026  0  0  0.087993  0  1.017291  0  0  0.089043  0  1.017325  0  0.014354  0  0.095694  0.087429  0  1.016836  0
H  H25  1  0.79072549  0.40132432  0.66842966  1  0  0.068988  0  0.953045  0  0  0.088867  0  1.01519  0  0  0.089914  0  1.015205  0  0.022551  0  0.096132  0.088284  0  1.014785  0
H  H26  1  0.76732787  0.87847520  0.16849602  1  0  0.068402  0  0.955027  0  0  0.087976  0  1.017299  0  0  0.089024  0  1.017334  0  0.014351  0  0.09569  0.087411  0  1.016848  0
H  H27  1  0.20927388  0.59867422  0.33157036  1  0  0.068992  0  0.953053  0  0  0.088869  0  1.015195  0  0  0.089915  0  1.015209  0  0.022567  0  0.096131  0.088287  0  1.014785  0
H  H28  1  0.41839915  0.27566834  0.85670672  1  0  0.066467  0  0.986341  0  0  0.078442  0  1.061226  0  0  0.079677  0  1.061597  0  0.036828  0  0.089249  0.077402  0  1.061228  0
H  H29  1  0.91945988  0.56294379  0.64426138  1  0  0.065314  0  0.988259  0  0  0.077552  0  1.062916  0  0  0.078792  0  1.06332  0  0.048303  0  0.088404  0.07653  0  1.062855  0
H  H30  1  0.58160144  0.72433484  0.14329428  1  0  0.066476  0  0.986317  0  0  0.078458  0  1.06119  0  0  0.079683  0  1.061568  0  0.036609  0  0.089253  0.077416  0  1.061194  0
H  H31  1  0.08054050  0.43705475  0.35573880  1  0  0.065313  0  0.988257  0  0  0.077554  0  1.062902  0  0  0.078798  0  1.063303  0  0.04829  0  0.088397  0.076533  0  1.062838  0
H  H32  1  0.42348842  0.02805767  0.84883183  1  0  0.074427  0  0.97844  0  0  0.08683  0  1.047826  0  0  0.088359  0  1.046816  0  0.103446  0  0.096516  0.085634  0  1.048717  0
H  H33  1  0.68089394  0.57615689  0.65199942  1  0  0.0719  0  0.981993  0  0  0.085044  0  1.050753  0  0  0.086565  0  1.049741  0  0.088167  0  0.095911  0.083924  0  1.051536  0
H  H34  1  0.57651106  0.97194319  0.15116860  1  0  0.074433  0  0.978497  0  0  0.086825  0  1.047865  0  0  0.088358  0  1.046854  0  0.103438  0  0.096517  0.085628  0  1.048753  0
H  H35  1  0.31910499  0.42384281  0.34800072  1  0  0.071889  0  0.981993  0  0  0.085029  0  1.050761  0  0  0.086552  0  1.04975  0  0.088167  0  0.095899  0.083908  0  1.051546  0
H  H36  1  0.53245914  0.16988824  0.98144862  1  0  0.070533  0  0.938904  0  0  0.083742  0  1.007289  0  0  0.084039  0  1.007956  0  0.069848  0  0.102014  0.083248  0  1.007049  0
H  H37  1  0.68844828  0.55192226  0.51954969  1  0  0.071052  0  0.938422  0  0  0.084648  0  1.006573  0  0  0.084852  0  1.00738  0  0.066632  0  0.102196  0.084154  0  1.006328  0
H  H38  1  0.46754291  0.83011378  0.01855241  1  0  0.070567  0  0.938903  0  0  0.083776  0  1.007264  0  0  0.084074  0  1.007933  0  0.069824  0  0.102017  0.08328  0  1.007025  0
H  H39  1  0.31155165  0.44807744  0.48044988  1  0  0.071047  0  0.938391  0  0  0.084637  0  1.006555  0  0  0.084843  0  1.007364  0  0.066682  0  0.102203  0.084144  0  1.00631  0
H  H40  1  0.59476911  0.20097466  0.71958938  1  0  0.07748  0  0.947188  0  0  0.092127  0  1.016503  0  0  0.092488  0  1.01731  0  0.056559  0  0.088916  0.091608  0  1.016234  0
H  H41  1  0.98111880  0.87494437  0.78081295  1  0  0.076997  0  0.947213  0  0  0.091683  0  1.016474  0  0  0.092033  0  1.017274  0  0.053294  0  0.089003  0.091214  0  1.016129  0
H  H42  1  0.40522981  0.79902504  0.28040856  1  0  0.077472  0  0.94722  0  0  0.092122  0  1.016532  0  0  0.092482  0  1.017338  0  0.056574  0  0.088925  0.091605  0  1.016262  0
H  H43  1  0.01888058  0.12505417  0.21918707  1  0  0.076955  0  0.947231  0  0  0.091631  0  1.016513  0  0  0.091981  0  1.017312  0  0.053321  0  0.088983  0.091162  0  1.016169  0
H  H44  1  0.62257791  0.07040450  0.77867997  1  0  0.068452  0  0.956079  0  0  0.088458  0  1.020144  0  0  0.088726  0  1.020413  0  0.031227  0  0.093808  0.088199  0  1.019898  0
H  H45  1  0.79192334  0.84356806  0.72083778  1  0  0.068214  0  0.957236  0  0  0.087972  0  1.021608  0  0  0.088182  0  1.021966  0  0.041152  0  0.093987  0.087758  0  1.021276  0
H  H46  1  0.37742202  0.92959520  0.22131887  1  0  0.068413  0  0.956096  0  0  0.088421  0  1.02016  0  0  0.088688  0  1.020428  0  0.030956  0  0.093794  0.088162  0  1.019915  0
H  H47  1  0.20807402  0.15643048  0.27916265  1  0  0.068187  0  0.95725  0  0  0.087948  0  1.021609  0  0  0.08816  0  1.021966  0  0.041176  0  0.093992  0.087734  0  1.021278  0
H  H48  1  0.69838932  0.10721679  0.67530980  1  0  0.070133  0  0.953692  0  0  0.086664  0  1.022137  0  0  0.08784  0  1.021133  0  0.042543  0  0.092137  0.085738  0  1.022865  0
H  H49  1  0.93270872  0.02422072  0.82484978  1  0  0.069473  0  0.953637  0  0  0.085822  0  1.022226  0  0  0.086997  0  1.021223  0  0.041697  0  0.092048  0.084886  0  1.02297  0
H  H50  1  0.30161161  0.89278291  0.32468847  1  0  0.070133  0  0.953619  0  0  0.086663  0  1.022078  0  0  0.087838  0  1.021074  0  0.042583  0  0.092144  0.085737  0  1.022807  0
H  H51  1  0.06729121  0.97577898  0.17515199  1  0  0.069391  0  0.953665  0  0  0.085748  0  1.022255  0  0  0.086923  0  1.021251  0  0.041718  0  0.09202  0.084813  0  1.022997  0
H  H52  1  0.23063777  0.56810960  0.04985676  1  0  0.330123  0  0.90152  0  0  0.308372  0  0.973502  0  0  0.316563  0  0.966575  0  0.475698  0  0.304547  0.302179  0  0.979141  0
H  H53  1  0.01747769  0.18132953  0.45016778  1  0  0.330839  0  0.901702  0  0  0.309167  0  0.973342  0  0  0.317434  0  0.966282  0  0.487499  0  0.304996  0.302986  0  0.97895  0
H  H54  1  0.76936261  0.43188894  0.95014561  1  0  0.330155  0  0.901421  0  0  0.308371  0  0.973444  0  0  0.316568  0  0.966511  0  0.475631  0  0.304535  0.302163  0  0.979096  0
H  H55  1  0.98252213  0.81866785  0.54983138  1  0  0.33083  0  0.901714  0  0  0.309157  0  0.973352  0  0  0.317424  0  0.966293  0  0.48752  0  0.305011  0.302976  0  0.978962  0
H  H56  1  0.34380356  0.51659419  0.13167168  1  0  0.319749  0  0.927138  0  0  0.299787  0  0.998113  0  0  0.30749  0  0.992382  0  0.474702  0  0.285859  0.294423  0  1.00213  0
H  H57  1  0.88457117  0.21311980  0.36837333  1  0  0.31989  0  0.926832  0  0  0.300479  0  0.997139  0  0  0.30817  0  0.991386  0  0.473886  0  0.285594  0.295075  0  1.00124  0
H  H58  1  0.65619727  0.48340319  0.86832764  1  0  0.319764  0  0.927069  0  0  0.299744  0  0.998127  0  0  0.307447  0  0.992397  0  0.474717  0  0.28583  0.29438  0  1.002145  0
H  H59  1  0.11542931  0.78688106  0.63162799  1  0  0.319883  0  0.926827  0  0  0.300461  0  0.997145  0  0  0.308153  0  0.991397  0  0.473873  0  0.285578  0.295058  0  1.001244  0
H  H60  1  0.84338546  0.25954709  0.88861541  1  0  0.322502  0  0.979956  0  0  0.296728  0  1.066446  0  0  0.307181  0  1.054159  0  0.581829  0  0.257319  0.289269  0  1.075345  0
H  H61  1  0.87132826  0.95494416  0.61197176  1  0  0.321285  0  0.982075  0  0  0.295221  0  1.068837  0  0  0.305666  0  1.056643  0  0.580797  0  0.25675  0.287853  0  1.077568  0
H  H62  1  0.15661513  0.74045608  0.11138266  1  0  0.322504  0  0.97998  0  0  0.296692  0  1.066537  0  0  0.307144  0  1.054253  0  0.581807  0  0.2573  0.289232  0  1.075436  0
H  H63  1  0.12867167  0.04505554  0.38802854  1  0  0.321284  0  0.982068  0  0  0.295211  0  1.068842  0  0  0.305657  0  1.056646  0  0.580797  0  0.256721  0.287843  0  1.077573  0
C  C64  1  0.31056898  0.07642141  0.06215248  1  0  -0.003506  0  3.639077  0  0  -0.062834  0  3.892404  0  0  -0.058936  0  3.904453  0  0.263859  0  -0.068705  -0.064962  0  3.883888  0
C  C65  1  0.51352212  0.24742746  0.43786169  1  0  -0.004042  0  3.640101  0  0  -0.062867  0  3.892742  0  0  -0.058753  0  3.904702  0  0.278412  0  -0.069644  -0.065121  0  3.884267  0
C  C66  1  0.68943095  0.92357829  0.93784782  1  0  -0.00347  0  3.639082  0  0  -0.062805  0  3.892402  0  0  -0.058912  0  3.904452  0  0.26386  0  -0.068702  -0.064933  0  3.883887  0
C  C67  1  0.48647827  0.75257108  0.56213849  1  0  -0.004069  0  3.640103  0  0  -0.06296  0  3.892831  0  0  -0.058849  0  3.904793  0  0.27813  0  -0.069675  -0.065224  0  3.884347  0
C  C68  1  0.24516513  0.18359878  0.04371967  1  0  -0.140043  0  3.646946  0  0  -0.185356  0  3.898462  0  0  -0.18702  0  3.912697  0  -0.012044  0  -0.161988  -0.184141  0  3.888555  0
C  C69  1  0.63894397  0.20035778  0.45584482  1  0  -0.137256  0  3.646569  0  0  -0.182911  0  3.897636  0  0  -0.18456  0  3.911735  0  -0.021812  0  -0.161201  -0.181691  0  3.887902  0
C  C70  1  0.75483480  0.81640092  0.95628137  1  0  -0.140049  0  3.646878  0  0  -0.185337  0  3.898359  0  0  -0.186991  0  3.912585  0  -0.012049  0  -0.161946  -0.184122  0  3.888453  0
C  C71  1  0.36105641  0.79964076  0.54415609  1  0  -0.137223  0  3.646543  0  0  -0.182828  0  3.897487  0  0  -0.184479  0  3.911591  0  -0.02179  0  -0.161203  -0.181623  0  3.887807  0
C  C72  1  0.33710480  0.29298393  0.99225535  1  0  -0.114359  0  3.632824  0  0  -0.111974  0  3.864834  0  0  -0.117416  0  3.880018  0  -0.001562  0  -0.083217  -0.108474  0  3.854606  0
C  C73  1  0.80005395  0.34465239  0.50793232  1  0  -0.116588  0  3.631684  0  0  -0.113541  0  3.86304  0  0  -0.118964  0  3.878149  0  -0.005602  0  -0.083555  -0.110076  0  3.852846  0
C  C74  1  0.66289412  0.70701577  0.00774553  1  0  -0.11436  0  3.632784  0  0  -0.112009  0  3.864802  0  0  -0.117465  0  3.879975  0  -0.001593  0  -0.083228  -0.108507  0  3.854578  0
C  C75  1  0.19994643  0.65534615  0.49206859  1  0  -0.116775  0  3.631753  0  0  -0.113631  0  3.862974  0  0  -0.119052  0  3.878084  0  -0.005577  0  -0.083602  -0.110174  0  3.852775  0
C  C76  1  0.34825633  0.19923881  0.89216956  1  0  -0.155088  0  3.696997  0  0  -0.200497  0  3.947036  0  0  -0.20172  0  3.959931  0  -0.019274  0  -0.168516  -0.199063  0  3.937642  0
C  C77  1  0.80737584  0.45662798  0.60824307  1  0  -0.154213  0  3.694297  0  0  -0.200218  0  3.945144  0  0  -0.20146  0  3.958013  0  -0.018398  0  -0.168838  -0.198736  0  3.935739  0
C  C78  1  0.65174315  0.80076205  0.10783160  1  0  -0.155021  0  3.696985  0  0  -0.200453  0  3.947006  0  0  -0.201667  0  3.959911  0  -0.019046  0  -0.168507  -0.199011  0  3.937595  0
C  C79  1  0.19262454  0.54337056  0.39175711  1  0  -0.154202  0  3.694345  0  0  -0.200191  0  3.945104  0  0  -0.201437  0  3.957974  0  -0.018369  0  -0.168809  -0.198705  0  3.935697  0
C  C80  1  0.41687732  0.09808416  0.91982559  1  0  0.002786  0  3.617156  0  0  -0.055154  0  3.868091  0  0  -0.051113  0  3.880143  0  0.254087  0  -0.067446  -0.057626  0  3.860072  0
C  C81  1  0.67888150  0.49780018  0.58084527  1  0  0.006669  0  3.615046  0  0  -0.052305  0  3.86638  0  0  -0.048214  0  3.878411  0  0.260152  0  -0.066423  -0.054826  0  3.85835  0
C  C82  1  0.58312372  0.90191786  0.08017529  1  0  0.002653  0  3.61728  0  0  -0.055232  0  3.868068  0  0  -0.051202  0  3.880125  0  0.25412  0  -0.067474  -0.0577  0  3.860054  0
C  C83  1  0.32111944  0.50219952  0.41915519  1  0  0.006725  0  3.614985  0  0  -0.052257  0  3.866331  0  0  -0.048174  0  3.878374  0  0.260088  0  -0.066405  -0.05478  0  3.858303  0
C  C84  1  0.22464320  0.83938672  0.90626309  1  0  0.279334  0  3.806503  0  0  0.25232  0  4.114658  0  0  0.276194  0  4.123141  0  0.264758  0  0.121208  0.235806  0  4.108924  0
C  C85  1  0.43411267  0.31868655  0.59353525  1  0  0.282231  0  3.809897  0  0  0.254675  0  4.118092  0  0  0.278607  0  4.126522  0  0.283434  0  0.121748  0.238146  0  4.112296  0
C  C86  1  0.77535628  0.16061414  0.09373514  1  0  0.279387  0  3.806487  0  0  0.25233  0  4.114667  0  0  0.276202  0  4.123154  0  0.264763  0  0.121219  0.235815  0  4.108936  0
C  C87  1  0.56588726  0.68131315  0.40646359  1  0  0.282189  0  3.809971  0  0  0.25464  0  4.118158  0  0  0.27857  0  4.126586  0  0.28338  0  0.121718  0.238112  0  4.112359  0
C  C88  1  0.26521307  0.39313672  0.96955413  1  0  0.657224  0  3.770009  0  0  0.615793  0  4.053177  0  0  0.644693  0  4.051575  0  1.406317  0  0.25153  0.596039  0  4.053985  0
C  C89  1  0.92262426  0.29517084  0.53041515  1  0  0.659091  0  3.763341  0  0  0.618141  0  4.045694  0  0  0.647088  0  4.043932  0  1.41492  0  0.25192  0.598431  0  4.046466  0
C  C90  1  0.73478585  0.60686297  0.03044601  1  0  0.657216  0  3.770066  0  0  0.615792  0  4.053201  0  0  0.644727  0  4.051543  0  1.406637  0  0.251533  0.596034  0  4.054016  0
C  C91  1  0.07737511  0.70482770  0.46958560  1  0  0.659181  0  3.763184  0  0  0.618138  0  4.045637  0  0  0.647084  0  4.043877  0  1.41484  0  0.25189  0.598435  0  4.046402  0
C  C92  1  0.67617207  0.15974448  0.74561084  1  0  -0.017148  0  3.662858  0  0  -0.101425  0  3.919583  0  0  -0.09574  0  3.923935  0  0.391223  0  -0.152416  -0.105011  0  3.916652  0
C  C93  1  0.91444035  0.93077098  0.75458139  1  0  -0.015131  0  3.661505  0  0  -0.098911  0  3.918416  0  0  -0.093179  0  3.922759  0  0.381982  0  -0.152204  -0.102518  0  3.915438  0
C  C94  1  0.32382943  0.84025638  0.25438771  1  0  -0.017064  0  3.662825  0  0  -0.101347  0  3.919555  0  0  -0.095662  0  3.923907  0  0.391426  0  -0.152408  -0.104938  0  3.916627  0
C  C95  1  0.08555857  0.06922871  0.24541875  1  0  -0.014938  0  3.661448  0  0  -0.098703  0  3.918341  0  0  -0.092971  0  3.922682  0  0.381929  0  -0.152151  -0.10231  0  3.915361  0
S  S96  1  0.24121058  0.75209798  0.78890232  1  0  -0.560436  0  1.905911  0  0  -0.540092  0  2.227474  0  0  -0.553768  0  2.218246  0  -0.359189  0  -0.247859  -0.530725  0  2.234085  0
S  S97  1  0.46530589  0.45414654  0.71084952  1  0  -0.560943  0  1.90664  0  0  -0.540366  0  2.228155  0  0  -0.554074  0  2.218903  0  -0.361773  0  -0.247283  -0.531002  0  2.234642  0
S  S98  1  0.75878845  0.24790404  0.21109604  1  0  -0.560433  0  1.905831  0  0  -0.54009  0  2.227406  0  0  -0.553764  0  2.218176  0  -0.359247  0  -0.247858  -0.530722  0  2.234014  0
S  S99  1  0.53469470  0.54585664  0.28915222  1  0  -0.560931  0  1.906772  0  0  -0.540359  0  2.228276  0  0  -0.554068  0  2.219021  0  -0.361762  0  -0.247267  -0.530999  0  2.234764  0
S  S100  1  0.08631928  0.72963979  0.95117354  1  0  -0.561976  0  1.959146  0  0  -0.533633  0  2.286423  0  0  -0.548744  0  2.276899  0  -0.381615  0  -0.247638  -0.522664  0  2.294396  0
S  S101  1  0.27898121  0.13440480  0.54812507  1  0  -0.56282  0  1.961548  0  0  -0.534128  0  2.288711  0  0  -0.54921  0  2.279158  0  -0.378574  0  -0.246505  -0.523268  0  2.29679  0
S  S102  1  0.91367784  0.27036455  0.04882345  1  0  -0.561981  0  1.959136  0  0  -0.533645  0  2.286429  0  0  -0.548755  0  2.276907  0  -0.381593  0  -0.247654  -0.522674  0  2.294395  0
S  S103  1  0.72101928  0.86559606  0.45187479  1  0  -0.562826  0  1.961554  0  0  -0.534126  0  2.288712  0  0  -0.549212  0  2.279161  0  -0.378602  0  -0.246506  -0.523276  0  2.2968  0
N  N104  1  0.31836851  0.99268409  0.96266799  1  0  -0.134698  0  3.387799  0  0  -0.034751  0  3.610221  0  0  -0.054417  0  3.635269  0  -1.148475  0  -0.269368  -0.021874  0  3.593399  0
N  N105  1  0.53043623  0.35557885  0.53759023  1  0  -0.13926  0  3.39158  0  0  -0.03894  0  3.613963  0  0  -0.058668  0  3.638892  0  -1.178922  0  -0.269263  -0.025988  0  3.597168  0
N  N106  1  0.68163298  0.00731677  0.03733203  1  0  -0.134751  0  3.387901  0  0  -0.034745  0  3.610221  0  0  -0.054407  0  3.635274  0  -1.148457  0  -0.269356  -0.02187  0  3.593402  0
N  N107  1  0.46956526  0.64442201  0.46240906  1  0  -0.139214  0  3.391549  0  0  -0.038885  0  3.613928  0  0  -0.058609  0  3.638858  0  -1.178653  0  -0.269254  -0.025931  0  3.597133  0
N  N108  1  0.28541177  0.50400030  0.05592301  1  0  -0.662215  0  3.128382  0  0  -0.620622  0  3.358649  0  0  -0.643451  0  3.354273  0  -1.284015  0  -0.560345  -0.604669  0  3.362145  0
N  N109  1  0.94735178  0.23001215  0.44412991  1  0  -0.662942  0  3.12667  0  0  -0.622418  0  3.356864  0  0  -0.645289  0  3.352374  0  -1.307963  0  -0.559786  -0.60646  0  3.360395  0
N  N110  1  0.71458660  0.49599824  0.94407758  1  0  -0.662268  0  3.128199  0  0  -0.620583  0  3.358504  0  0  -0.643431  0  3.3541  0  -1.284294  0  -0.560312  -0.604608  0  3.362039  0
N  N111  1  0.05264815  0.76998755  0.55587040  1  0  -0.662924  0  3.12661  0  0  -0.622369  0  3.356834  0  0  -0.645242  0  3.352348  0  -1.307992  0  -0.559762  -0.606409  0  3.360363  0
O  O112  1  0.18977734  0.37086174  0.87591846  1  0  -0.692588  0  1.931237  0  0  -0.642429  0  2.175725  0  0  -0.662682  0  2.163931  0  -1.219475  0  -0.435731  -0.627781  0  2.183585  0
O  O113  1  0.99383159  0.31234612  0.62379038  1  0  -0.6934  0  1.929228  0  0  -0.643337  0  2.173085  0  0  -0.663663  0  2.161361  0  -1.217777  0  -0.43541  -0.628614  0  2.18093  0
O  O114  1  0.81022159  0.62913796  0.12408022  1  0  -0.692589  0  1.931247  0  0  -0.642443  0  2.175726  0  0  -0.66271  0  2.163914  0  -1.219457  0  -0.435719  -0.627791  0  2.183586  0
O  O115  1  0.00616868  0.68765010  0.37620939  1  0  -0.693431  0  1.929142  0  0  -0.643333  0  2.173049  0  0  -0.66366  0  2.161321  0  -1.217635  0  -0.435402  -0.62861  0  2.180879  0
O  O116  1  0.81718900  0.28696006  0.82400751  1  0  -0.575256  0  2.151884  0  0  -0.510164  0  2.38729  0  0  -0.52595  0  2.374374  0  -1.171606  0  -0.47718  -0.499197  0  2.396606  0
O  O117  1  0.96343042  0.99314559  0.67671218  1  0  -0.575077  0  2.150188  0  0  -0.509692  0  2.385788  0  0  -0.525577  0  2.372956  0  -1.166964  0  -0.476471  -0.498747  0  2.394986  0
O  O118  1  0.18281361  0.71304312  0.17598942  1  0  -0.575268  0  2.151806  0  0  -0.51017  0  2.387263  0  0  -0.525954  0  2.374342  0  -1.171543  0  -0.477155  -0.499203  0  2.396587  0
O  O119  1  0.03656850  0.00685411  0.32328796  1  0  -0.575125  0  2.150122  0  0  -0.50973  0  2.385725  0  0  -0.525621  0  2.372894  0  -1.166983  0  -0.476453  -0.498792  0  2.394929  0
