# generated using pymatgen
data_CdH18C24SN3O4
_symmetry_space_group_name_H-M   'P 1'
_cell_length_a   13.03505684
_cell_length_b   13.03505763
_cell_length_c   14.40354812
_cell_angle_alpha   92.03839650
_cell_angle_beta   92.03783423
_cell_angle_gamma   99.79880213
_symmetry_Int_Tables_number   1
_chemical_formula_structural   CdH18C24SN3O4
_chemical_formula_sum   'Cd4 H72 C96 S4 N12 O16'
_cell_volume   2407.96408606
_cell_formula_units_Z   4
loop_
 _symmetry_equiv_pos_site_id
 _symmetry_equiv_pos_as_xyz
  1  'x, y, z'
loop_
 _atom_site_type_symbol
 _atom_site_label
 _atom_site_symmetry_multiplicity
 _atom_site_fract_x
 _atom_site_fract_y
 _atom_site_fract_z
 _atom_site_occupancy
 _atom_site_pbe_bader_charge
 _atom_site_pbe_bader_spin_density
 _atom_site_pbe_cm5_charge
 _atom_site_pbe_ddec_charge
 _atom_site_pbe_ddec_spin_density
 _atom_site_pbe_ddec_sum_bond_order
 _atom_site_pbe_magmom
Cd  Cd0  1  0.88695123  0.46541652  0.58746810  1  1.27502  0  0.772521  0.904037  0  2.212476  0
Cd  Cd1  1  0.53458456  0.11305066  0.91253140  1  1.274966  0  0.772531  0.904027  0  2.212436  0
Cd  Cd2  1  0.11304855  0.53458195  0.41253270  1  1.274943  0  0.772533  0.904037  0  2.212453  0
Cd  Cd3  1  0.46541677  0.88695498  0.08746760  1  1.274959  0  0.77253  0.904053  0  2.212436  0
H  H4  1  0.04366241  0.27917787  0.56827598  1  0.109208  0  0.107377  0.130251  0  1.016425  0
H  H5  1  0.72082653  0.95633595  0.93172365  1  0.109279  0  0.107369  0.130209  0  1.016457  0
H  H6  1  0.95633503  0.72082018  0.43172612  1  0.109159  0  0.107346  0.130209  0  1.016419  0
H  H7  1  0.27917246  0.04366698  0.06827658  1  0.109261  0  0.10736  0.130215  0  1.01643  0
H  H8  1  0.10624651  0.10897911  0.58078640  1  0.065212  0  0.098939  0.098133  0  1.001453  0
H  H9  1  0.89102711  0.89375394  0.91921510  1  0.065127  0  0.098909  0.098089  0  1.001536  0
H  H10  1  0.89375249  0.89101998  0.41921648  1  0.06509  0  0.098907  0.098079  0  1.001465  0
H  H11  1  0.10897188  0.10624899  0.08078582  1  0.065163  0  0.09891  0.098082  0  1.001488  0
H  H12  1  0.98943025  0.95204773  0.62765896  1  0.064666  0  0.100166  0.097685  0  1.005762  0
H  H13  1  0.04795870  0.01057141  0.87234241  1  0.064555  0  0.100165  0.097664  0  1.005717  0
H  H14  1  0.01056953  0.04795150  0.37234187  1  0.064682  0  0.100165  0.097724  0  1.00575  0
H  H15  1  0.95204107  0.98942935  0.12765916  1  0.064533  0  0.100168  0.097685  0  1.005752  0
H  H16  1  0.80296433  0.95632877  0.66135156  1  0.121075  0  0.10342  0.111826  0  1.051068  0
H  H17  1  0.04367430  0.19703581  0.83864910  1  0.121048  0  0.103437  0.111842  0  1.050945  0
H  H18  1  0.19703389  0.04366865  0.33864915  1  0.121114  0  0.103442  0.111867  0  1.051074  0
H  H19  1  0.95632625  0.80296432  0.16135108  1  0.121057  0  0.10345  0.111834  0  1.050956  0
H  H20  1  0.58531423  0.11381183  0.71562207  1  0.07811  0  0.112912  0.09954  0  1.018508  0
H  H21  1  0.88618824  0.41468480  0.78437709  1  0.078088  0  0.112916  0.099539  0  1.018542  0
H  H22  1  0.41468321  0.88618699  0.28437659  1  0.078091  0  0.112914  0.099515  0  1.018556  0
H  H23  1  0.11381465  0.58531804  0.21562395  1  0.078091  0  0.112897  0.099497  0  1.018541  0
H  H24  1  0.65357616  0.01140913  0.70032946  1  0.116553  0  0.12319  0.126173  0  0.973277  0
H  H25  1  0.98859279  0.34642518  0.79966908  1  0.116524  0  0.123185  0.12618  0  0.973258  0
H  H26  1  0.34642206  0.98858906  0.29966990  1  0.116541  0  0.123215  0.126185  0  0.97328  0
H  H27  1  0.01140932  0.65357675  0.20033052  1  0.116566  0  0.123183  0.126141  0  0.973286  0
H  H28  1  0.68992488  0.05712168  0.48416976  1  0.065177  0  0.099236  0.101444  0  1.012269  0
H  H29  1  0.94287757  0.31007411  0.01583061  1  0.065181  0  0.099249  0.10146  0  1.01226  0
H  H30  1  0.31007334  0.94287651  0.51583029  1  0.065098  0  0.099239  0.101454  0  1.012256  0
H  H31  1  0.05712533  0.68992643  0.98416967  1  0.065136  0  0.099218  0.101424  0  1.0123  0
H  H32  1  0.57808661  0.98579416  0.34590659  1  0.118977  0  0.102449  0.117815  0  1.010637  0
H  H33  1  0.01420636  0.42191299  0.15409288  1  0.118976  0  0.102449  0.117825  0  1.010636  0
H  H34  1  0.42191083  0.01420466  0.65409206  1  0.118962  0  0.102443  0.117843  0  1.010589  0
H  H35  1  0.98579497  0.57808804  0.84590875  1  0.118988  0  0.102435  0.117819  0  1.010619  0
H  H36  1  0.50477835  0.22884709  0.67946953  1  0.180746  0  0.118534  0.167078  0  1.039685  0
H  H37  1  0.77115396  0.49521961  0.82052841  1  0.180736  0  0.118546  0.16709  0  1.039698  0
H  H38  1  0.49521987  0.77114956  0.32052630  1  0.180796  0  0.118544  0.167078  0  1.039649  0
H  H39  1  0.22884659  0.50478512  0.17947123  1  0.18079  0  0.118543  0.167064  0  1.039686  0
H  H40  1  0.61673529  0.55349826  0.57971528  1  0.174817  0  0.121226  0.116274  0  1.035302  0
H  H41  1  0.44650086  0.38326154  0.92028280  1  0.174565  0  0.12121  0.116316  0  1.03526  0
H  H42  1  0.38326449  0.44650097  0.42028624  1  0.174803  0  0.121213  0.116263  0  1.035274  0
H  H43  1  0.55350048  0.61673950  0.07971674  1  0.174793  0  0.121206  0.116326  0  1.035235  0
H  H44  1  0.18540588  0.13603341  0.87299954  1  0.046887  0  0.102936  0.122984  0  1.001566  0
H  H45  1  0.86396979  0.81459806  0.62699689  1  0.046768  0  0.102883  0.122897  0  1.001654  0
H  H46  1  0.81459468  0.86396442  0.12700127  1  0.046878  0  0.10291  0.122959  0  1.001596  0
H  H47  1  0.13603154  0.18540144  0.37300191  1  0.046804  0  0.102894  0.122912  0  1.00162  0
H  H48  1  0.21407608  0.13925335  0.75256300  1  0.066682  0  0.100361  0.121451  0  0.983297  0
H  H49  1  0.86074688  0.78592835  0.74743392  1  0.066819  0  0.100333  0.12142  0  0.983376  0
H  H50  1  0.78592526  0.86074461  0.24743783  1  0.06679  0  0.10035  0.121433  0  0.983309  0
H  H51  1  0.13925445  0.21407268  0.25256493  1  0.066794  0  0.100355  0.12143  0  0.983352  0
H  H52  1  0.25460011  0.46384244  0.59469775  1  0.088611  0  0.101518  0.127004  0  0.997044  0
H  H53  1  0.53615855  0.74540101  0.90530035  1  0.088637  0  0.101552  0.127075  0  0.996986  0
H  H54  1  0.74539889  0.53615666  0.40530235  1  0.088622  0  0.101515  0.127011  0  0.996999  0
H  H55  1  0.46384200  0.25460142  0.09470061  1  0.088632  0  0.101549  0.127088  0  0.996966  0
H  H56  1  0.26788050  0.58495595  0.65698073  1  0.068011  0  0.100148  0.12338  0  0.985208  0
H  H57  1  0.41504375  0.73211857  0.84301774  1  0.067955  0  0.100154  0.123395  0  0.985229  0
H  H58  1  0.73211772  0.41504301  0.34302004  1  0.067987  0  0.100158  0.123367  0  0.985206  0
H  H59  1  0.58495758  0.26788246  0.15698320  1  0.067948  0  0.100165  0.123416  0  0.985167  0
H  H60  1  0.24347542  0.58952032  0.83051078  1  0.032033  0  0.098282  0.103072  0  0.995298  0
H  H61  1  0.41048060  0.75652186  0.66948780  1  0.032038  0  0.098297  0.103099  0  0.995306  0
H  H62  1  0.75652514  0.41047904  0.16949008  1  0.032005  0  0.09829  0.103094  0  0.995302  0
H  H63  1  0.58952152  0.24347624  0.33051307  1  0.032024  0  0.098262  0.103051  0  0.995248  0
H  H64  1  0.24496470  0.49686510  0.97782076  1  0.074576  0  0.0862  0.0811  0  1.060839  0
H  H65  1  0.50313477  0.75503294  0.52217738  1  0.074552  0  0.086218  0.081145  0  1.060789  0
H  H66  1  0.75503663  0.50313363  0.02217941  1  0.074572  0  0.08622  0.081115  0  1.060802  0
H  H67  1  0.49686424  0.24496386  0.47782265  1  0.074551  0  0.086215  0.081128  0  1.060811  0
H  H68  1  0.24246326  0.30503190  0.97469719  1  0.061016  0  0.096413  0.103077  0  1.008538  0
H  H69  1  0.69496892  0.75754192  0.52529831  1  0.060445  0  0.096412  0.103064  0  1.008509  0
H  H70  1  0.75753964  0.69496634  0.02530371  1  0.06058  0  0.096391  0.103074  0  1.008561  0
H  H71  1  0.30503086  0.24245731  0.47470113  1  0.06046  0  0.096388  0.103061  0  1.008573  0
H  H72  1  0.23128191  0.29903933  0.67556297  1  0.063087  0  0.097946  0.10615  0  1.008039  0
H  H73  1  0.70096177  0.76872347  0.82443395  1  0.063181  0  0.097972  0.106127  0  1.008114  0
H  H74  1  0.76871709  0.70095899  0.32443711  1  0.063071  0  0.097941  0.106118  0  1.008048  0
H  H75  1  0.29904111  0.23128091  0.17556645  1  0.063138  0  0.097971  0.106117  0  1.008147  0
C  C76  1  0.88844163  0.21243749  0.60983130  1  0.408088  0  0.09163  0.161176  0  4.049337  0
C  C77  1  0.78756617  0.11155654  0.89016357  1  0.408108  0  0.091643  0.161005  0  4.0494  0
C  C78  1  0.11155659  0.78755994  0.39016525  1  0.408077  0  0.091743  0.161189  0  4.049254  0
C  C79  1  0.21243360  0.88844653  0.10983668  1  0.407637  0  0.091673  0.161019  0  4.049412  0
C  C80  1  0.99255792  0.20995700  0.58991875  1  0.035195  0  -0.087615  -0.14378  0  3.939996  0
C  C81  1  0.79004711  0.00744126  0.91007917  1  0.035272  0  -0.087579  -0.143568  0  3.939972  0
C  C82  1  0.00744030  0.79004196  0.41008202  1  0.035827  0  -0.087619  -0.143786  0  3.939989  0
C  C83  1  0.20995188  0.99256167  0.08992106  1  0.03567  0  -0.087622  -0.143601  0  3.939919  0
C  C84  1  0.02622799  0.11476149  0.59691458  1  -0.110448  0  -0.099774  -0.100393  0  4.043989  0
C  C85  1  0.88524532  0.97377280  0.90308664  1  -0.110417  0  -0.09987  -0.100598  0  4.043979  0
C  C86  1  0.97377179  0.88523927  0.40308561  1  -0.110975  0  -0.099707  -0.100243  0  4.044008  0
C  C87  1  0.11475445  0.02623026  0.09691501  1  -0.110308  0  -0.09985  -0.100566  0  4.043905  0
C  C88  1  0.95902484  0.02464651  0.62296898  1  -0.005404  0  -0.093847  -0.081523  0  4.037988  0
C  C89  1  0.97535941  0.04097626  0.87703325  1  -0.005767  0  -0.093786  -0.081401  0  4.037654  0
C  C90  1  0.04097339  0.97535168  0.37703176  1  -0.005656  0  -0.093856  -0.081625  0  4.037924  0
C  C91  1  0.02464036  0.95902604  0.12296698  1  -0.005681  0  -0.09377  -0.081433  0  4.037735  0
C  C92  1  0.85514200  0.02580654  0.64181618  1  -0.053631  0  -0.098639  -0.175705  0  4.015549  0
C  C93  1  0.97419929  0.14485866  0.85818441  1  -0.05302  0  -0.098663  -0.175746  0  4.015297  0
C  C94  1  0.14485856  0.97419205  0.35818326  1  -0.053358  0  -0.098659  -0.175798  0  4.015431  0
C  C95  1  0.02580204  0.85514314  0.14181585  1  -0.053271  0  -0.098643  -0.175684  0  4.015332  0
C  C96  1  0.82122289  0.12118972  0.63440783  1  0.313817  0  0.09348  0.087309  0  4.020826  0
C  C97  1  0.87881380  0.17877563  0.86558903  1  0.31359  0  0.093465  0.087408  0  4.02074  0
C  C98  1  0.17877455  0.87880680  0.36559006  1  0.313698  0  0.093363  0.087357  0  4.020745  0
C  C99  1  0.12118753  0.82122617  0.13441054  1  0.313952  0  0.093375  0.087338  0  4.020878  0
C  C100  1  0.62999069  0.07746443  0.66482658  1  0.288364  0  -0.047181  -0.102273  0  3.876434  0
C  C101  1  0.92253520  0.37000856  0.83517152  1  0.288377  0  -0.04723  -0.102358  0  3.876581  0
C  C102  1  0.37000675  0.92253286  0.33517133  1  0.288353  0  -0.04723  -0.102313  0  3.876544  0
C  C103  1  0.07746769  0.62999352  0.16482811  1  0.28836  0  -0.0472  -0.102224  0  3.87657  0
C  C104  1  0.56323014  0.03982578  0.57843924  1  -0.029778  0  -0.01555  0.085295  0  3.979655  0
C  C105  1  0.96017599  0.43677049  0.92156049  1  -0.029778  0  -0.015441  0.085449  0  3.979557  0
C  C106  1  0.43676808  0.96017164  0.42155939  1  -0.02967  0  -0.015506  0.085418  0  3.97962  0
C  C107  1  0.03982768  0.56323019  0.07843981  1  -0.029642  0  -0.015482  0.085454  0  3.979633  0
C  C108  1  0.60645107  0.03233793  0.49142944  1  -0.076145  0  -0.097301  -0.138687  0  4.002577  0
C  C109  1  0.96766198  0.39354681  0.00857048  1  -0.076124  0  -0.097369  -0.138783  0  4.002495  0
C  C110  1  0.39354638  0.96765629  0.50857045  1  -0.076029  0  -0.097249  -0.138698  0  4.002478  0
C  C111  1  0.03234091  0.60645450  0.99143052  1  -0.076065  0  -0.097308  -0.138752  0  4.002468  0
C  C112  1  0.54393398  0.99260374  0.41348892  1  -0.041088  0  -0.091035  -0.126263  0  3.97503  0
C  C113  1  0.00739544  0.45606494  0.08651137  1  -0.041108  0  -0.091063  -0.126322  0  3.975054  0
C  C114  1  0.45606346  0.00739355  0.58651038  1  -0.040955  0  -0.09108  -0.126323  0  3.974994  0
C  C115  1  0.99260668  0.54393546  0.91348888  1  -0.040995  0  -0.091048  -0.126261  0  3.97489  0
C  C116  1  0.73429449  0.25375881  0.62822040  1  0.983859  0  0.228079  0.230526  0  4.002173  0
C  C117  1  0.74624313  0.26570289  0.87177664  1  0.983362  0  0.227988  0.230479  0  4.002212  0
C  C118  1  0.26570373  0.74623861  0.37177823  1  0.984001  0  0.228032  0.230403  0  4.002297  0
C  C119  1  0.25375898  0.73430135  0.12822234  1  0.983671  0  0.228061  0.230571  0  4.002275  0
C  C120  1  0.65365485  0.31867168  0.62741590  1  0.50186  0  0.087292  0.119007  0  4.064426  0
C  C121  1  0.68132927  0.34634219  0.87258244  1  0.501509  0  0.087294  0.118948  0  4.064504  0
C  C122  1  0.34634415  0.68132665  0.37258279  1  0.501479  0  0.087315  0.119066  0  4.064375  0
C  C123  1  0.31867206  0.65366192  0.12741859  1  0.501209  0  0.087364  0.118992  0  4.0647  0
C  C124  1  0.55057309  0.29787670  0.65185179  1  -0.257215  0  -0.086249  -0.247497  0  3.863803  0
C  C125  1  0.70212464  0.44942389  0.84814623  1  -0.256824  0  -0.086237  -0.247426  0  3.863683  0
C  C126  1  0.44942435  0.70212136  0.34814545  1  -0.257205  0  -0.086306  -0.247512  0  3.863711  0
C  C127  1  0.29787746  0.55058112  0.15185347  1  -0.256729  0  -0.086316  -0.247477  0  3.863769  0
C  C128  1  0.60870259  0.47241502  0.59865151  1  0.419768  0  0.050089  -0.006693  0  3.947227  0
C  C129  1  0.52758563  0.39129331  0.90134696  1  0.420168  0  0.050168  -0.006718  0  3.947099  0
C  C130  1  0.39129719  0.52758421  0.40135001  1  0.419825  0  0.050181  -0.006565  0  3.947033  0
C  C131  1  0.47241648  0.60871016  0.09865199  1  0.419967  0  0.050162  -0.006742  0  3.947046  0
C  C132  1  0.34691854  0.15262846  0.84855940  1  1.567206  0  0.192629  0.630464  0  4.157216  0
C  C133  1  0.84737174  0.65308531  0.65143767  1  1.567178  0  0.192539  0.630384  0  4.15725  0
C  C134  1  0.65308202  0.84737090  0.15144076  1  1.567796  0  0.192556  0.63038  0  4.157344  0
C  C135  1  0.15262803  0.34691469  0.34856248  1  1.567173  0  0.192569  0.630427  0  4.157243  0
C  C136  1  0.23851201  0.17368405  0.82208779  1  -0.058427  0  -0.161421  -0.340271  0  3.933013  0
C  C137  1  0.82631745  0.76149235  0.67790992  1  -0.05851  0  -0.161321  -0.340165  0  3.932978  0
C  C138  1  0.76148777  0.82631441  0.17791163  1  -0.058506  0  -0.161365  -0.340178  0  3.933091  0
C  C139  1  0.17368311  0.23850778  0.32208819  1  -0.0585  0  -0.161377  -0.340212  0  3.93303  0
C  C140  1  0.11079160  0.50716430  0.62784913  1  1.593869  0  0.206952  0.645894  0  4.12915  0
C  C141  1  0.49283222  0.88920871  0.87215171  1  1.593624  0  0.206863  0.645787  0  4.129517  0
C  C142  1  0.88920896  0.49283506  0.37215173  1  1.593596  0  0.206934  0.645845  0  4.129285  0
C  C143  1  0.50716600  0.11079255  0.12784774  1  1.593609  0  0.206932  0.645875  0  4.12929  0
C  C144  1  0.22529920  0.50444240  0.65401568  1  -0.081066  0  -0.162987  -0.356454  0  3.950503  0
C  C145  1  0.49555502  0.77470198  0.84598400  1  -0.080782  0  -0.163038  -0.356613  0  3.950364  0
C  C146  1  0.77470214  0.49555633  0.34598448  1  -0.080877  0  -0.162996  -0.356432  0  3.950444  0
C  C147  1  0.50444398  0.22529865  0.15401684  1  -0.080793  0  -0.162999  -0.356632  0  3.95043  0
C  C148  1  0.23857303  0.45062554  0.74298492  1  -0.013869  0  -0.015416  0.146035  0  4.022269  0
C  C149  1  0.54937386  0.76143218  0.75701119  1  -0.014392  0  -0.015416  0.14614  0  4.022392  0
C  C150  1  0.76142753  0.54937229  0.25701589  1  -0.013868  0  -0.0154  0.146025  0  4.022337  0
C  C151  1  0.45062591  0.23857088  0.24298768  1  -0.013977  0  -0.015424  0.146164  0  4.022315  0
C  C152  1  0.24370610  0.50571921  0.82868578  1  -0.014919  0  -0.100618  -0.152541  0  3.977772  0
C  C153  1  0.49428116  0.75629493  0.67131392  1  -0.014863  0  -0.100629  -0.15258  0  3.977931  0
C  C154  1  0.75629291  0.49427912  0.17131430  1  -0.014954  0  -0.10066  -0.152637  0  3.977829  0
C  C155  1  0.50571939  0.24370751  0.32868703  1  -0.014862  0  -0.100566  -0.152519  0  3.977874  0
C  C156  1  0.24462292  0.45360636  0.91163733  1  -0.090605  0  -0.10194  -0.078726  0  4.065932  0
C  C157  1  0.54639661  0.75537762  0.58836012  1  -0.090608  0  -0.101929  -0.078837  0  4.066003  0
C  C158  1  0.75537686  0.54639210  0.08836347  1  -0.090494  0  -0.10188  -0.078567  0  4.06572  0
C  C159  1  0.45360550  0.24462278  0.41163874  1  -0.090626  0  -0.101954  -0.078771  0  4.066047  0
C  C160  1  0.24191394  0.34609648  0.90998422  1  -0.06942  0  -0.104159  -0.167966  0  3.998953  0
C  C161  1  0.65390330  0.75808729  0.59001200  1  -0.069015  0  -0.104141  -0.16787  0  3.998937  0
C  C162  1  0.75808740  0.65390149  0.09001593  1  -0.069037  0  -0.104225  -0.168122  0  3.998926  0
C  C163  1  0.34609648  0.24191194  0.40998744  1  -0.068969  0  -0.10413  -0.167959  0  3.999039  0
C  C164  1  0.23850391  0.28963382  0.82471202  1  -0.074017  0  -0.015126  0.136491  0  3.996814  0
C  C165  1  0.71036591  0.76150259  0.67528343  1  -0.073957  0  -0.015192  0.136453  0  3.996479  0
C  C166  1  0.76149665  0.71036478  0.17528881  1  -0.074007  0  -0.015082  0.136502  0  3.99676  0
C  C167  1  0.28963464  0.23849984  0.32471545  1  -0.073967  0  -0.01512  0.136517  0  3.996639  0
C  C168  1  0.23679368  0.34284788  0.74218766  1  -0.006455  0  -0.099449  -0.211497  0  3.95158  0
C  C169  1  0.65715060  0.76321387  0.75781081  1  -0.006005  0  -0.099421  -0.211444  0  3.951539  0
C  C170  1  0.76320610  0.65715058  0.25781315  1  -0.006427  0  -0.099429  -0.211407  0  3.951579  0
C  C171  1  0.34284916  0.23679149  0.24218952  1  -0.006426  0  -0.09948  -0.211492  0  3.951573  0
S  S172  1  0.49348063  0.40528257  0.63655952  1  0.270033  0  0.13107  0.201106  0  2.931651  0
S  S173  1  0.59471777  0.50651593  0.86343849  1  0.26945  0  0.131007  0.201017  0  2.931447  0
S  S174  1  0.50651916  0.59471512  0.36343918  1  0.269979  0  0.131027  0.201025  0  2.931596  0
S  S175  1  0.40528356  0.49348741  0.13656113  1  0.269483  0  0.131051  0.201064  0  2.931442  0
N  N176  1  0.68477413  0.41865230  0.59758403  1  -1.185702  0  -0.318772  -0.266013  0  3.439256  0
N  N177  1  0.58134746  0.31522282  0.90241319  1  -1.185465  0  -0.318781  -0.26595  0  3.439306  0
N  N178  1  0.31522565  0.58134616  0.40241608  1  -1.185396  0  -0.318785  -0.266055  0  3.439234  0
N  N179  1  0.41865465  0.68478065  0.09758577  1  -1.185609  0  -0.318788  -0.265955  0  3.439391  0
N  N180  1  0.83215865  0.29298021  0.60792543  1  -1.172034  0  -0.349898  -0.375239  0  3.453048  0
N  N181  1  0.70702150  0.16783891  0.89207205  1  -1.17195  0  -0.349802  -0.375077  0  3.452943  0
N  N182  1  0.16783879  0.70701554  0.39207243  1  -1.172175  0  -0.349859  -0.375106  0  3.453039  0
N  N183  1  0.29297904  0.83216506  0.10792757  1  -1.172022  0  -0.349852  -0.375101  0  3.452913  0
N  N184  1  0.72440012  0.14981266  0.64627693  1  -1.214868  0  -0.233131  -0.049323  0  3.692377  0
N  N185  1  0.85018878  0.27559713  0.85372177  1  -1.215027  0  -0.233044  -0.04929  0  3.692376  0
N  N186  1  0.27559732  0.85018463  0.35372168  1  -1.214887  0  -0.233098  -0.049313  0  3.692367  0
N  N187  1  0.14981255  0.72440544  0.14627783  1  -1.215118  0  -0.233071  -0.049406  0  3.692615  0
O  O188  1  0.09053579  0.56896385  0.56558131  1  -1.187762  0  -0.353619  -0.592805  0  2.269967  0
O  O189  1  0.43103128  0.90946324  0.93441911  1  -1.187819  0  -0.353595  -0.592762  0  2.270172  0
O  O190  1  0.90946476  0.43103705  0.43442029  1  -1.187729  0  -0.353607  -0.59281  0  2.270099  0
O  O191  1  0.56896383  0.09053518  0.06557876  1  -1.187773  0  -0.353649  -0.59284  0  2.270041  0
O  O192  1  0.04069360  0.44684797  0.66758626  1  -1.165807  0  -0.312873  -0.537951  0  2.2544  0
O  O193  1  0.55314606  0.95930429  0.83241724  1  -1.165739  0  -0.312832  -0.537864  0  2.254515  0
O  O194  1  0.95930540  0.55315036  0.33241312  1  -1.165803  0  -0.312879  -0.537911  0  2.254409  0
O  O195  1  0.44685372  0.04069801  0.16758438  1  -1.165681  0  -0.312856  -0.537888  0  2.254447  0
O  O196  1  0.40930046  0.13931464  0.78508415  1  -1.188171  0  -0.338109  -0.583892  0  2.167944  0
O  O197  1  0.86068730  0.59070256  0.71491470  1  -1.188072  0  -0.338068  -0.583876  0  2.16785  0
O  O198  1  0.59070088  0.86068563  0.21491676  1  -1.188173  0  -0.338118  -0.583913  0  2.167915  0
O  O199  1  0.13931482  0.40929707  0.28508482  1  -1.18806  0  -0.33813  -0.583932  0  2.167795  0
O  O200  1  0.37098574  0.15205602  0.93541150  1  -1.155367  0  -0.340315  -0.566354  0  2.175994  0
O  O201  1  0.84794422  0.62901506  0.56458676  1  -1.155414  0  -0.340298  -0.566304  0  2.176052  0
O  O202  1  0.62901403  0.84794475  0.06459007  1  -1.155953  0  -0.340265  -0.566284  0  2.176013  0
O  O203  1  0.15205400  0.37098313  0.43541190  1  -1.155378  0  -0.340256  -0.566268  0  2.176088  0
