# generated using pymatgen
data_Sm2H11C11NO16
_symmetry_space_group_name_H-M   'P 1'
_cell_length_a   7.75154129
_cell_length_b   10.98722098
_cell_length_c   12.72792672
_cell_angle_alpha   94.20317941
_cell_angle_beta   103.91371242
_cell_angle_gamma   108.28266282
_symmetry_Int_Tables_number   1
_chemical_formula_structural   Sm2H11C11NO16
_chemical_formula_sum   'Sm4 H22 C22 N2 O32'
_cell_volume   985.99603558
_cell_formula_units_Z   2
loop_
 _symmetry_equiv_pos_site_id
 _symmetry_equiv_pos_as_xyz
  1  'x, y, z'
loop_
 _atom_site_type_symbol
 _atom_site_label
 _atom_site_symmetry_multiplicity
 _atom_site_fract_x
 _atom_site_fract_y
 _atom_site_fract_z
 _atom_site_occupancy
 _atom_site_hle17_bader_spin_density
 _atom_site_hle17_ddec_charge
 _atom_site_hle17_ddec_spin_density
 _atom_site_hle17_ddec_sum_bond_order
 _atom_site_hle17_magmom
 _atom_site_hse06_10hf_bader_spin_density
 _atom_site_hse06_10hf_ddec_charge
 _atom_site_hse06_10hf_ddec_spin_density
 _atom_site_hse06_10hf_ddec_sum_bond_order
 _atom_site_hse06_10hf_magmom
 _atom_site_hse06_bader_spin_density
 _atom_site_hse06_ddec_charge
 _atom_site_hse06_ddec_spin_density
 _atom_site_hse06_ddec_sum_bond_order
 _atom_site_hse06_magmom
 _atom_site_pbe_bader_spin_density
 _atom_site_pbe_cm5_charge
 _atom_site_pbe_ddec_charge
 _atom_site_pbe_ddec_spin_density
 _atom_site_pbe_ddec_sum_bond_order
 _atom_site_pbe_magmom
Sm  Sm0  1  0.72844648  0.32198913  0.10197109  1  0  2.229357  0  1.633806  0  0  2.044785  0  2.12593  0  0  2.168052  0  1.935447  0  0  1.487152  2.011418  0  2.156618  0
Sm  Sm1  1  0.27154536  0.67801114  0.89801930  1  0  2.229477  0  1.633578  0  0  2.045008  0  2.125531  0  0  2.168188  0  1.935202  0  0  1.487199  2.011648  0  2.156205  0
Sm  Sm2  1  0.18011690  0.96403811  0.30696850  1  0  2.277374  0  1.646131  0  0  2.185833  0  1.998175  0  0  2.226658  0  1.95722  0  0  1.509135  2.086078  0  2.156222  0
Sm  Sm3  1  0.81987754  0.03595071  0.69303418  1  0  2.27734  0  1.646442  0  0  2.185798  0  1.998522  0  0  2.226615  0  1.957568  0  0  1.509265  2.08606  0  2.156551  0
H  H4  1  0.40321095  0.07174736  0.95743158  1  0  0.439657  0  0.846805  0  0  0.411809  0  0.908023  0  0  0.422709  0  0.892105  0  0  0.310141  0.404018  0  0.919608  0
H  H5  1  0.59678284  0.92827127  0.04256254  1  0  0.439728  0  0.846834  0  0  0.411854  0  0.907971  0  0  0.422778  0  0.892028  0  0  0.31017  0.404059  0  0.919568  0
H  H6  1  0.33133788  0.18543120  0.93976690  1  0  0.455489  0  0.796688  0  0  0.434034  0  0.853378  0  0  0.443658  0  0.83939  0  0  0.331522  0.427262  0  0.863442  0
H  H7  1  0.66866571  0.81458280  0.06023467  1  0  0.455618  0  0.796512  0  0  0.434172  0  0.853186  0  0  0.443785  0  0.839214  0  0  0.331602  0.427399  0  0.863252  0
H  H8  1  0.10586508  0.40392403  0.05945150  1  0  0.446268  0  0.825385  0  0  0.419409  0  0.890186  0  0  0.429789  0  0.874933  0  0  0.315738  0.411988  0  0.901282  0
H  H9  1  0.89413357  0.59608797  0.94055001  1  0  0.446325  0  0.825349  0  0  0.41945  0  0.890138  0  0  0.429846  0  0.874865  0  0  0.315757  0.412028  0  0.901235  0
H  H10  1  0.98564932  0.37372477  0.93903085  1  0  0.446698  0  0.844078  0  0  0.41769  0  0.903285  0  0  0.429733  0  0.885734  0  0  0.307887  0.409435  0  0.915442  0
H  H11  1  0.01434805  0.62629299  0.06097002  1  0  0.446709  0  0.844018  0  0  0.417659  0  0.9033  0  0  0.429709  0  0.885743  0  0  0.307864  0.409404  0  0.915459  0
H  H12  1  0.25275425  0.92887659  0.07518704  1  0  0.450583  0  0.834822  0  0  0.423428  0  0.890568  0  0  0.43334  0  0.876191  0  0  0.313186  0.415962  0  0.901333  0
H  H13  1  0.74723363  0.07112941  0.92480546  1  0  0.450585  0  0.834793  0  0  0.423418  0  0.890558  0  0  0.433332  0  0.876179  0  0  0.313172  0.415954  0  0.901323  0
H  H14  1  0.42178542  0.03435184  0.16880100  1  0  0.432255  0  0.875638  0  0  0.399545  0  0.942606  0  0  0.411996  0  0.9243  0  0  0.298638  0.391218  0  0.954453  0
H  H15  1  0.57821488  0.96564944  0.83117969  1  0  0.432164  0  0.875759  0  0  0.399475  0  0.942685  0  0  0.411924  0  0.924385  0  0  0.29865  0.391149  0  0.954532  0
H  H16  1  0.44633732  0.82906439  0.29182320  1  0  0.439548  0  0.811012  0  0  0.4236  0  0.861962  0  0  0.432238  0  0.849203  0  0  0.330113  0.417204  0  0.870664  0
H  H17  1  0.55365449  0.17093299  0.70816859  1  0  0.439558  0  0.810923  0  0  0.423614  0  0.861926  0  0  0.432251  0  0.849169  0  0  0.33013  0.417219  0  0.870577  0
H  H18  1  0.54467756  0.90550988  0.41105661  1  0  0.448563  0  0.843472  0  0  0.417624  0  0.906059  0  0  0.429247  0  0.888975  0  0  0.303646  0.408979  0  0.918562  0
H  H19  1  0.45531784  0.09448949  0.58893583  1  0  0.448613  0  0.843427  0  0  0.417652  0  0.906055  0  0  0.429275  0  0.888972  0  0  0.303632  0.409007  0  0.918559  0
H  H20  1  0.61623596  0.33842027  0.52051208  1  0  0.129018  0  0.932981  0  0  0.137459  0  0.991627  0  0  0.14172  0  0.9888  0  0  0.119935  0.134111  0  0.994282  0
H  H21  1  0.38378800  0.66157760  0.47948132  1  0  0.128956  0  0.93309  0  0  0.137524  0  0.991583  0  0  0.141787  0  0.988758  0  0  0.119995  0.134175  0  0.994238  0
H  H22  1  0.78553556  0.58133357  0.58687515  1  0  0.123031  0  0.936004  0  0  0.130275  0  0.994839  0  0  0.134721  0  0.991237  0  0  0.115191  0.126975  0  0.99759  0
H  H23  1  0.21445474  0.41864358  0.41311916  1  0  0.122929  0  0.936086  0  0  0.130202  0  0.994918  0  0  0.134653  0  0.99131  0  0  0.115169  0.126904  0  0.997669  0
H  H24  1  0.93482235  0.71592731  0.46009221  1  0  0.113764  0  0.939925  0  0  0.121188  0  1.003215  0  0  0.124557  0  1.001402  0  0  0.119415  0.119054  0  1.003935  0
H  H25  1  0.06517079  0.28406164  0.53993149  1  0  0.113618  0  0.940196  0  0  0.12106  0  1.003493  0  0  0.124435  0  1.001664  0  0  0.119373  0.118932  0  1.00421  0
C  C26  1  0.67643541  0.35112818  0.36441536  1  0  0.114906  0  3.725491  0  0  0.122039  0  3.965482  0  0  0.121196  0  3.986637  0  0  0.129103  0.121867  0  3.954041  0
C  C27  1  0.32356212  0.64885869  0.63557744  1  0  0.11522  0  3.725142  0  0  0.122223  0  3.965179  0  0  0.121388  0  3.986322  0  0  0.129175  0.122058  0  3.953735  0
C  C28  1  0.68289613  0.40290928  0.46953542  1  0  -0.078622  0  3.635851  0  0  -0.103618  0  3.883002  0  0  -0.106076  0  3.901863  0  0  -0.054805  -0.101881  0  3.870642  0
C  C29  1  0.31712151  0.59708079  0.53045895  1  0  -0.078778  0  3.635789  0  0  -0.103827  0  3.882965  0  0  -0.106293  0  3.901831  0  0  -0.054903  -0.102094  0  3.870607  0
C  C30  1  0.77594270  0.53616049  0.50544646  1  0  -0.003952  0  3.659951  0  0  -0.020844  0  3.916644  0  0  -0.020826  0  3.93478  0  0  -0.05581  -0.020829  0  3.904285  0
C  C31  1  0.22407267  0.46382474  0.49454965  1  0  -0.003702  0  3.659473  0  0  -0.020684  0  3.916244  0  0  -0.020665  0  3.934382  0  0  -0.055757  -0.020676  0  3.903899  0
C  C32  1  0.86021709  0.61189050  0.43575995  1  0  -0.07907  0  3.652295  0  0  -0.105102  0  3.903208  0  0  -0.10713  0  3.922682  0  0  -0.058152  -0.103671  0  3.890185  0
C  C33  1  0.13978450  0.38809940  0.56424384  1  0  -0.078971  0  3.652145  0  0  -0.104966  0  3.903091  0  0  -0.106971  0  3.92259  0  0  -0.058151  -0.103551  0  3.890061  0
C  C34  1  0.84944642  0.55156695  0.33263268  1  0  0.101031  0  3.745901  0  0  0.106633  0  3.987631  0  0  0.105265  0  4.009998  0  0  0.126192  0.107092  0  3.975553  0
C  C35  1  0.15055643  0.44841147  0.66738083  1  0  0.100997  0  3.745853  0  0  0.10655  0  3.98768  0  0  0.105123  0  4.010146  0  0  0.12615  0.107048  0  3.975537  0
C  C36  1  0.57244585  0.21087233  0.31474777  1  0  0.681767  0  3.854935  0  0  0.630566  0  4.15079  0  0  0.6658  0  4.141835  0  0  0.243159  0.606866  0  4.154637  0
C  C37  1  0.42757670  0.78911972  0.68524194  1  0  0.681425  0  3.855285  0  0  0.630421  0  4.150884  0  0  0.665656  0  4.141923  0  0  0.243089  0.606716  0  4.154733  0
C  C38  1  0.93792944  0.62201497  0.25122807  1  0  0.705295  0  3.852804  0  0  0.658141  0  4.140504  0  0  0.693295  0  4.131335  0  0  0.250184  0.633542  0  4.146603  0
C  C39  1  0.06205287  0.37796221  0.74878943  1  0  0.705303  0  3.852934  0  0  0.658064  0  4.140824  0  0  0.693213  0  4.131702  0  0  0.25026  0.633471  0  4.14689  0
C  C40  1  0.55561646  0.51267048  0.95601839  1  0  0.553786  0  3.947951  0  0  0.513158  0  4.243753  0  0  0.542309  0  4.242501  0  0  0.20991  0.493049  0  4.249027  0
C  C41  1  0.44438128  0.48733954  0.04397736  1  0  0.553947  0  3.947226  0  0  0.513298  0  4.24305  0  0  0.542451  0  4.241792  0  0  0.209942  0.493192  0  4.248326  0
C  C42  1  0.09967771  0.02095003  0.54177803  1  0  0.556668  0  3.937356  0  0  0.511682  0  4.246585  0  0  0.54129  0  4.237166  0  0  0.221009  0.492112  0  4.244913  0
C  C43  1  0.90032578  0.97905242  0.45822598  1  0  0.556632  0  3.937712  0  0  0.511773  0  4.246762  0  0  0.541381  0  4.237345  0  0  0.22112  0.492201  0  4.24509  0
C  C44  1  0.90363203  0.08184899  0.14305525  1  0  0.575941  0  3.876274  0  0  0.530183  0  4.173725  0  0  0.560735  0  4.166162  0  0  0.229135  0.509477  0  4.176716  0
C  C45  1  0.09636968  0.91815533  0.85694390  1  0  0.575901  0  3.876539  0  0  0.530117  0  4.174013  0  0  0.560668  0  4.166454  0  0  0.229105  0.509407  0  4.177013  0
C  C46  1  0.03056387  0.19834551  0.23545616  1  0  0.577928  0  3.922201  0  0  0.536837  0  4.221417  0  0  0.566832  0  4.215236  0  0  0.221817  0.516492  0  4.22375  0
C  C47  1  0.96944721  0.80165895  0.76454280  1  0  0.578068  0  3.922065  0  0  0.537  0  4.221251  0  0  0.566996  0  4.215063  0  0  0.221986  0.516657  0  4.223587  0
N  N48  1  0.75842023  0.42416066  0.29824991  1  0  -0.397377  0  3.313208  0  0  -0.354709  0  3.562904  0  0  -0.3733  0  3.585516  0  0  -0.367443  -0.347348  0  3.549451  0
N  N49  1  0.24157509  0.57582721  0.70175284  1  0  -0.397517  0  3.313016  0  0  -0.354784  0  3.562718  0  0  -0.373347  0  3.585348  0  0  -0.367454  -0.34744  0  3.549251  0
O  O50  1  0.57269180  0.17928524  0.21554444  1  0  -0.723265  0  2.093962  0  0  -0.663143  0  2.335808  0  0  -0.69963  0  2.322406  0  0  -0.36788  -0.644141  0  2.341529  0
O  O51  1  0.42729454  0.82070044  0.78443957  1  0  -0.723226  0  2.094189  0  0  -0.663188  0  2.335943  0  0  -0.699665  0  2.322545  0  0  -0.36788  -0.644186  0  2.341664  0
O  O52  1  0.48932115  0.13372838  0.36964877  1  0  -0.6711  0  2.020543  0  0  -0.629174  0  2.266457  0  0  -0.652494  0  2.254758  0  0  -0.36677  -0.604125  0  2.275007  0
O  O53  1  0.51068594  0.86627890  0.63034899  1  0  -0.670865  0  2.020664  0  0  -0.629011  0  2.266509  0  0  -0.652338  0  2.254823  0  0  -0.366756  -0.603967  0  2.275062  0
O  O54  1  0.92715674  0.55282031  0.16349104  1  0  -0.700876  0  2.061266  0  0  -0.639778  0  2.292849  0  0  -0.674992  0  2.27884  0  0  -0.351845  -0.621584  0  2.300802  0
O  O55  1  0.07280547  0.44715371  0.83653118  1  0  -0.700894  0  2.060871  0  0  -0.639813  0  2.292477  0  0  -0.675004  0  2.278483  0  0  -0.351813  -0.621624  0  2.300421  0
O  O56  1  0.01556044  0.74379810  0.27305633  1  0  -0.728563  0  2.057447  0  0  -0.686253  0  2.312905  0  0  -0.710081  0  2.297463  0  0  -0.412701  -0.657208  0  2.326843  0
O  O57  1  0.98442511  0.25619166  0.72696159  1  0  -0.728383  0  2.058065  0  0  -0.686036  0  2.313598  0  0  -0.709842  0  2.298139  0  0  -0.412656  -0.657004  0  2.327527  0
O  O58  1  0.66447518  0.44808421  0.95146772  1  0  -0.670911  0  2.030986  0  0  -0.616813  0  2.261681  0  0  -0.648351  0  2.247979  0  0  -0.366143  -0.600651  0  2.269009  0
O  O59  1  0.33554008  0.55194048  0.04852204  1  0  -0.670866  0  2.030829  0  0  -0.61678  0  2.261554  0  0  -0.648309  0  2.247841  0  0  -0.366173  -0.600618  0  2.268883  0
O  O60  1  0.53089743  0.59655621  0.89681573  1  0  -0.656345  0  2.031344  0  0  -0.612284  0  2.268558  0  0  -0.643288  0  2.256528  0  0  -0.375991  -0.596718  0  2.274449  0
O  O61  1  0.46909816  0.40346060  0.10319111  1  0  -0.656478  0  2.030731  0  0  -0.612409  0  2.267965  0  0  -0.643417  0  2.255924  0  0  -0.376002  -0.596844  0  2.273862  0
O  O62  1  0.76653017  0.09826115  0.07338034  1  0  -0.681773  0  2.075623  0  0  -0.613685  0  2.298408  0  0  -0.647327  0  2.287648  0  0  -0.339566  -0.595998  0  2.305354  0
O  O63  1  0.23347522  0.90175670  0.92661700  1  0  -0.681653  0  2.07581  0  0  -0.6136  0  2.298648  0  0  -0.647225  0  2.287883  0  0  -0.339478  -0.595917  0  2.305596  0
O  O64  1  0.94131096  0.97816243  0.14474565  1  0  -0.656986  0  2.021724  0  0  -0.616899  0  2.256234  0  0  -0.637927  0  2.242969  0  0  -0.356323  -0.593056  0  2.265767  0
O  O65  1  0.05867284  0.02183772  0.85524513  1  0  -0.657054  0  2.021909  0  0  -0.616944  0  2.256422  0  0  -0.637977  0  2.243165  0  0  -0.356389  -0.593102  0  2.265957  0
O  O66  1  0.00139234  0.30472751  0.23135453  1  0  -0.647703  0  2.055645  0  0  -0.602081  0  2.297812  0  0  -0.63444  0  2.286841  0  0  -0.37193  -0.586379  0  2.30397  0
O  O67  1  0.99861963  0.69527602  0.76864765  1  0  -0.647804  0  2.055664  0  0  -0.602195  0  2.297821  0  0  -0.634547  0  2.286848  0  0  -0.372032  -0.586495  0  2.303979  0
O  O68  1  0.15320038  0.17604839  0.30949481  1  0  -0.674149  0  2.04212  0  0  -0.637054  0  2.280428  0  0  -0.660189  0  2.271578  0  0  -0.384128  -0.611156  0  2.287111  0
O  O69  1  0.84681065  0.82395028  0.69050302  1  0  -0.674224  0  2.042124  0  0  -0.637149  0  2.280468  0  0  -0.660271  0  2.271591  0  0  -0.384272  -0.611259  0  2.287156  0
O  O70  1  0.23376192  0.01327463  0.50264027  1  0  -0.671517  0  2.067723  0  0  -0.621901  0  2.302537  0  0  -0.645711  0  2.291115  0  0  -0.364319  -0.596415  0  2.311792  0
O  O71  1  0.76625374  0.98673963  0.49737408  1  0  -0.671504  0  2.067747  0  0  -0.621921  0  2.302493  0  0  -0.645732  0  2.291071  0  0  -0.364435  -0.596439  0  2.311756  0
O  O72  1  0.11481311  0.05901688  0.63998560  1  0  -0.637282  0  2.037416  0  0  -0.602757  0  2.272764  0  0  -0.624251  0  2.263672  0  0  -0.353954  -0.580545  0  2.280402  0
O  O73  1  0.88517575  0.94099690  0.36001615  1  0  -0.637251  0  2.037733  0  0  -0.602765  0  2.27301  0  0  -0.624259  0  2.263919  0  0  -0.35392  -0.580551  0  2.280651  0
O  O74  1  0.44891646  0.16752313  0.96496734  1  0  -0.891236  0  1.842957  0  0  -0.844589  0  2.036637  0  0  -0.871495  0  1.996988  0  0  -0.633164  -0.833176  0  2.060252  0
O  O75  1  0.55108720  0.83249674  0.03504715  1  0  -0.891458  0  1.842749  0  0  -0.844774  0  2.036345  0  0  -0.87168  0  1.996665  0  0  -0.633251  -0.833364  0  2.059962  0
O  O76  1  0.98183407  0.34725713  0.01194418  1  0  -0.903077  0  1.819976  0  0  -0.85495  0  2.009092  0  0  -0.882813  0  1.969448  0  0  -0.639573  -0.8422  0  2.032131  0
O  O77  1  0.01816895  0.65274431  0.98805343  1  0  -0.903103  0  1.819944  0  0  -0.854964  0  2.009087  0  0  -0.882827  0  1.969361  0  0  -0.63954  -0.84222  0  2.032128  0
O  O78  1  0.31206462  0.95005707  0.15489373  1  0  -0.940344  0  1.84102  0  0  -0.900462  0  2.02817  0  0  -0.918393  0  1.99237  0  0  -0.652762  -0.877751  0  2.057604  0
O  O79  1  0.68793571  0.04994429  0.84509798  1  0  -0.940271  0  1.841152  0  0  -0.900402  0  2.028325  0  0  -0.918328  0  1.992527  0  0  -0.652777  -0.877696  0  2.057757  0
O  O80  1  0.41866555  0.85228167  0.35983505  1  0  -0.884908  0  1.800688  0  0  -0.849948  0  1.97664  0  0  -0.866565  0  1.944484  0  0  -0.619042  -0.829478  0  2.004078  0
O  O81  1  0.58132938  0.14771385  0.64016023  1  0  -0.88498  0  1.800531  0  0  -0.849996  0  1.976515  0  0  -0.866615  0  1.944362  0  0  -0.619073  -0.829533  0  2.003909  0
