# generated using pymatgen
data_AgH3C7(NO3)2
_symmetry_space_group_name_H-M   'P 1'
_cell_length_a   5.18452240
_cell_length_b   9.92298543
_cell_length_c   16.43178274
_cell_angle_alpha   89.99979197
_cell_angle_beta   94.27294194
_cell_angle_gamma   90.00156098
_symmetry_Int_Tables_number   1
_chemical_formula_structural   AgH3C7(NO3)2
_chemical_formula_sum   'Ag4 H12 C28 N8 O24'
_cell_volume   842.99880852
_cell_formula_units_Z   4
loop_
 _symmetry_equiv_pos_site_id
 _symmetry_equiv_pos_as_xyz
  1  'x, y, z'
loop_
 _atom_site_type_symbol
 _atom_site_label
 _atom_site_symmetry_multiplicity
 _atom_site_fract_x
 _atom_site_fract_y
 _atom_site_fract_z
 _atom_site_occupancy
 _atom_site_pbe_bader_spin_density
 _atom_site_pbe_cm5_charge
 _atom_site_pbe_ddec_charge
 _atom_site_pbe_ddec_spin_density
 _atom_site_pbe_ddec_sum_bond_order
 _atom_site_pbe_magmom
Ag  Ag0  1  0.18405946  0.90771873  0.47649796  1  0  0.429219  0.498197  0  1.821209  0
Ag  Ag1  1  0.81591206  0.40772616  0.02350241  1  0  0.429183  0.498137  0  1.821106  0
Ag  Ag2  1  0.81591965  0.09226440  0.52349236  1  0  0.429207  0.498269  0  1.821065  0
Ag  Ag3  1  0.18409615  0.59227410  0.97651171  1  0  0.429219  0.498231  0  1.821077  0
H  H4  1  0.24417178  0.07677910  0.29998221  1  0  0.117775  0.126106  0  1.039779  0
H  H5  1  0.75583670  0.57678031  0.19999550  1  0  0.117861  0.126237  0  1.039765  0
H  H6  1  0.75582664  0.92323426  0.70000065  1  0  0.117826  0.126144  0  1.039773  0
H  H7  1  0.24417342  0.42320383  0.80001075  1  0  0.117868  0.126139  0  1.039858  0
H  H8  1  0.25166540  0.94035053  0.05027911  1  0  0.124717  0.143416  0  1.034931  0
H  H9  1  0.74834080  0.44035698  0.44970371  1  0  0.124676  0.143407  0  1.035142  0
H  H10  1  0.74830015  0.05964772  0.94970846  1  0  0.124608  0.143393  0  1.034953  0
H  H11  1  0.25168675  0.55962514  0.55031085  1  0  0.124645  0.143383  0  1.035039  0
H  H12  1  0.84325588  0.80796222  0.23165714  1  0  0.116832  0.125745  0  1.053571  0
H  H13  1  0.15674472  0.30795804  0.26834414  1  0  0.116841  0.125717  0  1.053482  0
H  H14  1  0.15671745  0.19203805  0.76833913  1  0  0.116851  0.125714  0  1.05351  0
H  H15  1  0.84328087  0.69204323  0.73166186  1  0  0.116867  0.125744  0  1.053436  0
C  C16  1  0.55757315  0.94265565  0.27503172  1  0  -0.000804  0.010184  0  3.901288  0
C  C17  1  0.44246223  0.44266640  0.22495786  1  0  -0.000879  0.010122  0  3.901395  0
C  C18  1  0.44244267  0.05734159  0.72495154  1  0  -0.000815  0.010103  0  3.901039  0
C  C19  1  0.55753822  0.55733487  0.77504817  1  0  -0.000932  0.009767  0  3.901095  0
C  C20  1  0.33333631  0.01697923  0.25426682  1  0  -0.050836  -0.087481  0  3.853708  0
C  C21  1  0.66672484  0.51696295  0.24571895  1  0  -0.050982  -0.087711  0  3.854066  0
C  C22  1  0.66668144  0.98303010  0.74571466  1  0  -0.051017  -0.087702  0  3.854183  0
C  C23  1  0.33328336  0.48302320  0.75429395  1  0  -0.050924  -0.087394  0  3.853724  0
C  C24  1  0.22933021  0.01543085  0.17349661  1  0  0.084321  0.075741  0  3.904716  0
C  C25  1  0.77069798  0.51540239  0.32649084  1  0  0.084441  0.075761  0  3.904333  0
C  C26  1  0.77066821  0.98458856  0.82648746  1  0  0.084348  0.075825  0  3.904618  0
C  C27  1  0.22931215  0.48457671  0.67351967  1  0  0.084348  0.075657  0  3.90431  0
C  C28  1  0.33422398  0.93928166  0.11295627  1  0  -0.056247  -0.128544  0  3.891277  0
C  C29  1  0.66579189  0.43927831  0.38704077  1  0  -0.056285  -0.128482  0  3.89173  0
C  C30  1  0.66574350  0.06072163  0.88703013  1  0  -0.056138  -0.128501  0  3.891339  0
C  C31  1  0.33423570  0.56071389  0.61298231  1  0  -0.056263  -0.128392  0  3.891499  0
C  C32  1  0.55183096  0.86270321  0.13646734  1  0  0.082051  0.079421  0  3.912231  0
C  C33  1  0.44819212  0.36271636  0.36353190  1  0  0.082017  0.079373  0  3.912114  0
C  C34  1  0.44815975  0.13729605  0.86352386  1  0  0.081926  0.079212  0  3.912185  0
C  C35  1  0.55184701  0.63727483  0.63647685  1  0  0.081929  0.079068  0  3.912289  0
C  C36  1  0.66586155  0.86371754  0.21596471  1  0  -0.061646  -0.117329  0  3.89403  0
C  C37  1  0.33417896  0.36371755  0.28402580  1  0  -0.061477  -0.117144  0  3.893597  0
C  C38  1  0.33413492  0.13629381  0.78401506  1  0  -0.061456  -0.11695  0  3.893313  0
C  C39  1  0.66585633  0.63628574  0.71598773  1  0  -0.061423  -0.116857  0  3.893484  0
C  C40  1  0.70017145  0.95810331  0.35782351  1  0  0.209584  0.571815  0  4.176457  0
C  C41  1  0.29983970  0.45809856  0.14217399  1  0  0.209531  0.571716  0  4.17659  0
C  C42  1  0.29982504  0.04189897  0.64216174  1  0  0.209634  0.571817  0  4.176562  0
C  C43  1  0.70016465  0.54191481  0.85784186  1  0  0.209685  0.571823  0  4.176472  0
N  N44  1  0.00077118  0.09871992  0.15046345  1  0  0.057907  0.513064  0  4.189834  0
N  N45  1  0.99927344  0.59871137  0.34953269  1  0  0.057773  0.512996  0  4.189547  0
N  N46  1  0.99922145  0.90130151  0.84952536  1  0  0.057851  0.512882  0  4.189974  0
N  N47  1  0.00073867  0.40127479  0.65048761  1  0  0.058024  0.51322  0  4.189589  0
N  N48  1  0.67586874  0.78546429  0.07382420  1  0  0.056518  0.522457  0  4.155903  0
N  N49  1  0.32409958  0.28545339  0.42616727  1  0  0.056569  0.522428  0  4.155414  0
N  N50  1  0.32409682  0.21454202  0.92616520  1  0  0.056683  0.522507  0  4.156028  0
N  N51  1  0.67589893  0.71454083  0.57383932  1  0  0.056648  0.522639  0  4.155669  0
O  O52  1  0.91677600  0.89881403  0.36748513  1  0  -0.316143  -0.506348  0  2.416126  0
O  O53  1  0.08322790  0.39879752  0.13251905  1  0  -0.316144  -0.50635  0  2.415813  0
O  O54  1  0.08321859  0.10119228  0.63250799  1  0  -0.316131  -0.50637  0  2.415996  0
O  O55  1  0.91678806  0.60120376  0.86749708  1  0  -0.316214  -0.506393  0  2.415892  0
O  O56  1  0.59414002  0.03297367  0.40889306  1  0  -0.323884  -0.529211  0  2.436308  0
O  O57  1  0.40587183  0.53296493  0.09110614  1  0  -0.323856  -0.529053  0  2.4365  0
O  O58  1  0.40586035  0.96702761  0.59109289  1  0  -0.323975  -0.52923  0  2.436749  0
O  O59  1  0.59413253  0.46704541  0.90891093  1  0  -0.323936  -0.529143  0  2.436866  0
O  O60  1  0.89094447  0.15477711  0.20572230  1  0  -0.109821  -0.304825  0  2.002658  0
O  O61  1  0.10908597  0.65479080  0.29427337  1  0  -0.109836  -0.304899  0  2.00264  0
O  O62  1  0.10903660  0.84523828  0.79427598  1  0  -0.109726  -0.30461  0  2.003145  0
O  O63  1  0.89092222  0.34519737  0.70573406  1  0  -0.109877  -0.304971  0  2.003369  0
O  O64  1  0.92880111  0.10666816  0.07688834  1  0  -0.121795  -0.332329  0  2.038659  0
O  O65  1  0.07119176  0.60667064  0.42310901  1  0  -0.121704  -0.332209  0  2.038541  0
O  O66  1  0.07115096  0.89336335  0.92311231  1  0  -0.121859  -0.332404  0  2.038026  0
O  O67  1  0.92882803  0.39333265  0.57689868  1  0  -0.121833  -0.332356  0  2.037941  0
O  O68  1  0.56443843  0.77930432  0.00443269  1  0  -0.120205  -0.323604  0  2.061987  0
O  O69  1  0.43555853  0.27929549  0.49555459  1  0  -0.120223  -0.323613  0  2.061584  0
O  O70  1  0.43553101  0.22067478  0.99555741  1  0  -0.120383  -0.323725  0  2.061954  0
O  O71  1  0.56445544  0.72069470  0.50444871  1  0  -0.120378  -0.323792  0  2.061713  0
O  O72  1  0.88898924  0.73256115  0.09399458  1  0  -0.117523  -0.33648  0  2.052029  0
O  O73  1  0.11097218  0.23254261  0.40600113  1  0  -0.117513  -0.336424  0  2.051979  0
O  O74  1  0.11098022  0.26745222  0.90600039  1  0  -0.117472  -0.336339  0  2.052073  0
O  O75  1  0.88901860  0.76745161  0.59400711  1  0  -0.117429  -0.336411  0  2.052012  0
