# generated using pymatgen
data_NiP2H28C18S5(NO2)2
_symmetry_space_group_name_H-M   'P 1'
_cell_length_a   8.12535606
_cell_length_b   9.34478109
_cell_length_c   17.75788648
_cell_angle_alpha   100.02434741
_cell_angle_beta   100.11825087
_cell_angle_gamma   94.60217244
_symmetry_Int_Tables_number   1
_chemical_formula_structural   NiP2H28C18S5(NO2)2
_chemical_formula_sum   'Ni2 P4 H56 C36 S10 N4 O8'
_cell_volume   1298.54766568
_cell_formula_units_Z   2
loop_
 _symmetry_equiv_pos_site_id
 _symmetry_equiv_pos_as_xyz
  1  'x, y, z'
loop_
 _atom_site_type_symbol
 _atom_site_label
 _atom_site_symmetry_multiplicity
 _atom_site_fract_x
 _atom_site_fract_y
 _atom_site_fract_z
 _atom_site_occupancy
 _atom_site_hle17_ddec_charge
 _atom_site_hle17_ddec_spin_density
 _atom_site_hle17_ddec_sum_bond_order
 _atom_site_hle17_magmom
 _atom_site_hse06_10hf_ddec_charge
 _atom_site_hse06_10hf_ddec_spin_density
 _atom_site_hse06_10hf_ddec_sum_bond_order
 _atom_site_hse06_10hf_magmom
 _atom_site_hse06_ddec_charge
 _atom_site_hse06_ddec_spin_density
 _atom_site_hse06_ddec_sum_bond_order
 _atom_site_hse06_magmom
 _atom_site_pbe_cm5_charge
 _atom_site_pbe_ddec_charge
 _atom_site_pbe_ddec_spin_density
 _atom_site_pbe_ddec_sum_bond_order
 _atom_site_pbe_magmom
Ni  Ni0  1  0.00000117  0.49999900  0.50000039  1  0.429841  -1.664977  2.496282  -1.274  0.472119  -1.729249  2.873325  -1.412  0.568903  -1.842779  2.808514  -1.548  0.455122  0.416578  -1.639079  2.912349  -1.311
Ni  Ni1  1  0.99999910  0.00000148  0.00000200  1  0.418636  1.66307  2.508078  1.271  0.461296  1.728148  2.884707  1.409  0.557418  1.841712  2.820159  1.545  0.455892  0.4069  1.638529  2.922576  1.309
P  P2  1  0.27142977  0.75359571  0.53435966  1  1.001204  0.001993  4.795339  0.006  0.887228  -0.003743  5.320877  0.001  0.936963  -0.002389  5.29502  0.001  0.260308  0.852005  -0.005216  5.339452  0.0
P  P3  1  0.72857165  0.24640373  0.46563917  1  1.001262  0.001993  4.795306  0.006  0.887328  -0.003743  5.320845  0.001  0.937059  -0.002389  5.29499  0.001  0.260333  0.852101  -0.005216  5.339422  0.0
P  P4  1  0.78760410  0.24083594  0.97407193  1  0.990588  -0.001976  4.80357  -0.005  0.877475  0.003882  5.330876  -0.001  0.927392  0.002479  5.305265  -0.001  0.255455  0.842907  0.005324  5.347583  0.0
P  P5  1  0.21239789  0.75916789  0.02592789  1  0.990677  -0.001975  4.803499  -0.005  0.877544  0.003882  5.330791  -0.001  0.927458  0.002478  5.305182  -0.001  0.255491  0.842982  0.005323  5.347497  0.0
H  H6  1  0.50046055  0.57219920  0.60552232  1  0.046471  -0.000357  0.962649  0.0  0.05749  -0.00041  1.03359  0.0  0.057959  -0.00028  1.033799  0.0  0.086357  0.056913  -0.000508  1.03387  0.0
H  H7  1  0.49953572  0.42779912  0.39447487  1  0.04644  -0.000358  0.9626  0.0  0.057479  -0.00041  1.03354  0.0  0.057949  -0.00028  1.03375  0.0  0.086363  0.0569  -0.000508  1.033817  0.0
H  H8  1  0.40164818  0.67073520  0.67774319  1  0.038579  8.2e-05  0.940179  0.0  0.051731  1.5e-05  1.005875  0.0  0.05223  3.3e-05  1.005359  0.0  0.090316  0.051355  -3e-06  1.0063  0.0
H  H9  1  0.59835060  0.32926313  0.32225420  1  0.038556  8.2e-05  0.940193  0.0  0.051716  1.5e-05  1.00589  0.0  0.052215  3.3e-05  1.005375  0.0  0.090295  0.051333  -3e-06  1.006315  0.0
H  H10  1  0.70859495  0.65714635  0.72870433  1  0.106292  -1.1e-05  0.965966  0.0  0.131761  -1e-05  1.02396  0.0  0.13215  -4e-06  1.025241  0.0  0.092735  0.131344  -1.3e-05  1.023205  0.0
H  H11  1  0.29140852  0.34284976  0.27129042  1  0.106423  -1.1e-05  0.965892  0.0  0.131841  -1e-05  1.023935  0.0  0.13223  -4e-06  1.025219  0.0  0.092754  0.131431  -1.3e-05  1.023175  0.0
H  H12  1  0.66812254  0.84212594  0.72968589  1  0.104317  4e-06  0.957264  0.0  0.121671  4.2e-05  1.026063  0.0  0.12338  2.1e-05  1.025755  0.0  0.084915  0.120324  6.2e-05  1.02643  0.0
H  H13  1  0.33187830  0.15786909  0.27030969  1  0.104409  4e-06  0.957407  0.0  0.121806  4.2e-05  1.026124  0.0  0.123516  2.1e-05  1.025816  0.0  0.08498  0.120457  6.2e-05  1.026495  0.0
H  H14  1  0.76497962  0.74825644  0.65565300  1  0.112919  1e-06  0.949305  0.0  0.137956  -9.3e-05  1.004689  0.0  0.138912  -3.9e-05  1.00515  0.0  0.08585  0.137147  -0.000168  1.004621  0.0
H  H15  1  0.23502011  0.25173967  0.34434146  1  0.112982  0.0  0.949275  0.0  0.138009  -9.3e-05  1.004654  0.0  0.138965  -3.9e-05  1.005119  0.0  0.085878  0.137198  -0.000168  1.004589  0.0
H  H16  1  0.12586731  0.04253780  0.46352593  1  0.045754  3.4e-05  0.95892  0.0  0.058387  -3.8e-05  1.028667  0.0  0.058349  -1e-05  1.028934  0.0  0.091806  0.058505  -5.8e-05  1.028229  0.0
H  H17  1  0.87413536  0.95746164  0.53647244  1  0.045765  3.4e-05  0.958974  0.0  0.058379  -3.7e-05  1.028717  0.0  0.058341  -1e-05  1.028986  0.0  0.09181  0.058514  -5.8e-05  1.028265  0.0
H  H18  1  0.04414387  0.85479503  0.43865765  1  0.039727  0.000235  0.971966  0.0  0.052164  0.000157  1.040835  0.0  0.051123  0.000129  1.043128  0.0  0.094393  0.05297  0.000178  1.039066  0.0
H  H19  1  0.95585894  0.14520550  0.56134083  1  0.03975  0.000234  0.971939  0.0  0.052164  0.000157  1.040814  0.0  0.051123  0.000129  1.043108  0.0  0.094383  0.052969  0.000178  1.039055  0.0
H  H20  1  0.11904603  0.94649185  0.32223749  1  0.101182  7e-06  0.964103  0.0  0.123547  -3.7e-05  1.026807  0.0  0.12373  -2.2e-05  1.028863  0.0  0.085211  0.123486  -7.8e-05  1.025295  0.0
H  H21  1  0.88095496  0.05350430  0.67776045  1  0.101202  7e-06  0.964119  0.0  0.123545  -3.7e-05  1.026858  0.0  0.123728  -2.2e-05  1.028915  0.0  0.085216  0.123485  -7.8e-05  1.025346  0.0
H  H22  1  0.24557663  0.80822605  0.34719864  1  0.098901  -0.000215  0.98287  0.0  0.116773  -0.000262  1.052865  0.0  0.117864  -0.000194  1.053844  0.0  0.080318  0.116021  -0.000337  1.052066  0.0
H  H23  1  0.75442340  0.19177228  0.65279942  1  0.098868  -0.000214  0.982887  0.0  0.116738  -0.000262  1.05289  0.0  0.117831  -0.000194  1.053866  0.0  0.080287  0.115988  -0.000337  1.052091  0.0
H  H24  1  0.33023062  0.99673019  0.37338329  1  0.116994  4.2e-05  0.971933  0.0  0.132984  4.1e-05  1.039586  0.0  0.134933  3.5e-05  1.039154  0.0  0.08773  0.131649  4.5e-05  1.039783  0.0
H  H25  1  0.66977038  0.00326596  0.62661466  1  0.116987  4.3e-05  0.971931  0.0  0.132991  4.1e-05  1.039582  0.0  0.134942  3.5e-05  1.039147  0.0  0.087725  0.131657  4.5e-05  1.039776  0.0
H  H26  1  0.85863300  0.21459272  0.82402192  1  0.038184  -0.000212  0.949706  0.0  0.049776  -0.000153  1.02092  0.0  0.049826  -0.000132  1.021336  0.0  0.089177  0.049699  -0.000101  1.020675  0.0
H  H27  1  0.14136996  0.78540893  0.17597836  1  0.038175  -0.000212  0.949718  0.0  0.049781  -0.000153  1.020938  0.0  0.04983  -0.000132  1.021356  0.0  0.089175  0.049703  -0.000101  1.020694  0.0
H  H28  1  0.00171406  0.36887937  0.87891426  1  0.048328  0.000561  0.91823  0.0  0.060721  0.000836  0.983713  0.0  0.061321  0.00062  0.983038  0.0  0.093488  0.060154  0.000703  0.984436  0.0
H  H29  1  0.99828806  0.63112551  0.12108229  1  0.048341  0.000561  0.918252  0.0  0.060769  0.000835  0.983698  0.0  0.061369  0.000619  0.983024  0.0  0.093479  0.060204  0.000703  0.984419  0.0
H  H30  1  0.87354349  0.41047478  0.74486091  1  0.099555  1e-06  0.973531  0.0  0.122456  -1.8e-05  1.0349  0.0  0.122534  -7e-06  1.035989  0.0  0.087833  0.122421  -3.9e-05  1.034043  0.0
H  H31  1  0.12645139  0.58952245  0.25513608  1  0.099533  1e-06  0.973553  0.0  0.122449  -1.8e-05  1.034881  0.0  0.122525  -7e-06  1.03597  0.0  0.08781  0.122416  -3.9e-05  1.034023  0.0
H  H32  1  0.81886228  0.53844004  0.82063598  1  0.102828  0.000263  0.979167  0.0  0.122934  0.000253  1.043459  0.0  0.124416  0.000162  1.043451  0.0  0.080127  0.121731  0.00037  1.04366  0.0
H  H33  1  0.18113427  0.46156046  0.17936031  1  0.102872  0.000263  0.979227  0.0  0.122928  0.000253  1.043548  0.0  0.12441  0.000162  1.04354  0.0  0.080122  0.121725  0.00037  1.04375  0.0
H  H34  1  0.67014765  0.38712931  0.76745907  1  0.100106  -6.1e-05  0.966697  0.0  0.115831  -7.9e-05  1.036898  0.0  0.116731  -6.1e-05  1.038006  0.0  0.083384  0.115267  -8.7e-05  1.035978  0.0
H  H35  1  0.32984960  0.61286684  0.23253970  1  0.100116  -6.1e-05  0.966703  0.0  0.115832  -7.9e-05  1.036904  0.0  0.116731  -6.1e-05  1.038013  0.0  0.083389  0.115272  -8.7e-05  1.035982  0.0
H  H36  1  0.74718530  0.26820380  0.12775644  1  0.038083  -9e-05  0.953104  0.0  0.052187  7e-06  1.017964  0.0  0.052395  -1.3e-05  1.017991  0.0  0.090261  0.051894  2.3e-05  1.018233  0.0
H  H37  1  0.25281543  0.73180000  0.87224160  1  0.038093  -9e-05  0.953059  0.0  0.05221  8e-06  1.017917  0.0  0.052418  -1.3e-05  1.017942  0.0  0.090261  0.051915  2.3e-05  1.018189  0.0
H  H38  1  0.55859765  0.15403898  0.07785839  1  0.048595  4.9e-05  0.950318  0.0  0.060337  0.000118  1.02125  0.0  0.060952  6.1e-05  1.021269  0.0  0.086484  0.059938  0.000169  1.02088  0.0
H  H39  1  0.44140391  0.84596155  0.92214055  1  0.048603  4.9e-05  0.950311  0.0  0.060344  0.000118  1.021257  0.0  0.060952  6.1e-05  1.021281  0.0  0.086507  0.059951  0.000169  1.020878  0.0
H  H40  1  0.49932251  0.34476271  0.18462238  1  0.099119  -1.5e-05  0.959682  0.0  0.124901  -3e-06  1.01731  0.0  0.124763  -7e-06  1.019289  0.0  0.089752  0.124965  7e-06  1.016073  0.0
H  H41  1  0.50068059  0.65524002  0.81537744  1  0.099066  -1.4e-05  0.959682  0.0  0.124874  -3e-06  1.017286  0.0  0.124736  -7e-06  1.019264  0.0  0.08977  0.124935  7e-06  1.01605  0.0
H  H42  1  0.39642973  0.37579523  0.09282179  1  0.118041  -6.7e-05  0.945301  0.0  0.138339  -2.6e-05  1.00573  0.0  0.140209  -4e-05  1.004962  0.0  0.089006  0.136828  3e-05  1.00641  0.0
H  H43  1  0.60356920  0.62420423  0.90717854  1  0.118039  -6.7e-05  0.94528  0.0  0.138338  -2.6e-05  1.005717  0.0  0.140208  -4e-05  1.004946  0.0  0.089001  0.136829  3e-05  1.006393  0.0
H  H44  1  0.58530063  0.48594802  0.14239309  1  0.104222  -1.9e-05  0.947108  0.0  0.124572  -7e-06  1.009774  0.0  0.125762  -9e-06  1.009982  0.0  0.087804  0.123977  -1e-05  1.009144  0.0
H  H45  1  0.41469856  0.51405359  0.85760406  1  0.104283  -1.9e-05  0.947093  0.0  0.124604  -7e-06  1.009784  0.0  0.125792  -9e-06  1.009994  0.0  0.087821  0.124006  -1e-05  1.009158  0.0
H  H46  1  0.95934958  0.52249071  0.33177780  1  0.076157  -0.000737  0.95833  -0.001  0.085944  -0.000791  1.021139  -0.001  0.088616  -0.000571  1.017588  -0.001  0.106179  0.083775  -0.00099  1.024191  -0.001
H  H47  1  0.04064936  0.47750875  0.66822309  1  0.076163  -0.000738  0.95833  -0.001  0.085947  -0.000791  1.021136  -0.001  0.088632  -0.000572  1.017571  -0.001  0.106191  0.08378  -0.00099  1.024188  -0.001
H  H48  1  0.81988006  0.67507698  0.24333944  1  0.106394  -0.000377  0.965501  0.0  0.118582  -0.000385  1.022557  0.0  0.121381  -0.000283  1.023008  0.0  0.104593  0.116534  -0.000487  1.022492  0.0
H  H49  1  0.18011930  0.32492578  0.75666346  1  0.106383  -0.000377  0.965584  0.0  0.118555  -0.000385  1.02267  0.0  0.121354  -0.000283  1.023121  0.0  0.104585  0.116512  -0.000487  1.022599  0.0
H  H50  1  0.56093340  0.84312531  0.42793293  1  0.134197  -0.00047  0.939221  0.0  0.142097  -0.000566  0.999471  0.0  0.146477  -0.000416  0.996738  0.0  0.112313  0.138756  -0.000704  1.002169  -0.001
H  H51  1  0.43907377  0.15687968  0.57207304  1  0.134146  -0.000469  0.939174  0.0  0.142101  -0.000565  0.999371  0.0  0.146481  -0.000416  0.996637  0.0  0.112317  0.138759  -0.000704  1.002076  -0.001
H  H52  1  0.71404248  0.68558143  0.50780215  1  0.086155  -0.000723  0.951252  -0.001  0.095244  -0.000744  1.014867  -0.001  0.097809  -0.000551  1.011714  -0.001  0.109097  0.092806  -0.000963  1.01832  -0.001
H  H53  1  0.28596675  0.31442026  0.49220200  1  0.086151  -0.000724  0.951269  -0.001  0.095218  -0.000744  1.014909  -0.001  0.097766  -0.000551  1.011774  -0.001  0.109096  0.092781  -0.000963  1.018359  -0.001
H  H54  1  0.03572559  0.11498325  0.17226082  1  0.081127  0.000706  0.951078  0.001  0.091097  0.000706  1.013611  0.001  0.093313  0.00052  1.011183  0.001  0.110072  0.089128  0.000941  1.016141  0.001
H  H55  1  0.96426615  0.88501842  0.82774307  1  0.08117  0.000705  0.951134  0.001  0.091178  0.000706  1.013601  0.001  0.093392  0.000521  1.011184  0.001  0.110091  0.089217  0.000941  1.016124  0.001
H  H56  1  0.87794001  0.08084712  0.27894314  1  0.110633  -0.001561  0.998132  0.0  0.11872  -0.001492  1.064742  0.0  0.122785  -0.001133  1.062936  0.0  0.091811  0.115796  -0.001735  1.066281  0.0
H  H57  1  0.12205226  0.91914909  0.72106031  1  0.110705  -0.001559  0.998126  0.0  0.118733  -0.001492  1.064789  0.0  0.122794  -0.001133  1.062986  0.0  0.09182  0.11581  -0.001735  1.066328  0.0
H  H58  1  0.54584025  0.74129285  0.11183134  1  0.125268  0.000494  0.967216  0.0  0.128421  0.00058  1.036642  0.0  0.132817  0.00043  1.03348  0.0  0.110588  0.125406  0.000745  1.038655  0.001
H  H59  1  0.45415492  0.25870659  0.88816812  1  0.125231  0.000496  0.967201  0.0  0.128405  0.00058  1.036611  0.0  0.132801  0.00043  1.033451  0.0  0.110561  0.125389  0.000746  1.038625  0.001
H  H60  1  0.71093907  0.79563789  0.01238273  1  0.083513  0.000681  0.964309  0.001  0.092144  0.000661  1.027766  0.001  0.094465  0.000487  1.025119  0.001  0.110315  0.090211  0.000844  1.030249  0.001
H  H61  1  0.28906140  0.20436377  0.98761960  1  0.08357  0.000679  0.964244  0.001  0.092194  0.000661  1.027703  0.001  0.09452  0.000487  1.025047  0.001  0.11033  0.090257  0.000844  1.030202  0.001
C  C62  1  0.49874183  0.67973613  0.64212460  1  0.172156  -2.9e-05  3.605741  0.0  0.119309  -0.000133  3.870192  0.0  0.127854  -5.2e-05  3.875933  0.0  -0.067835  0.113588  -0.000216  3.865985  0.0
C  C63  1  0.50125791  0.32026001  0.35787268  1  0.172208  -2.9e-05  3.605576  0.0  0.119352  -0.000134  3.870031  0.0  0.127898  -5.2e-05  3.875772  0.0  -0.067851  0.113636  -0.000216  3.865821  0.0
C  C64  1  0.67005839  0.73616749  0.69187926  1  -0.323024  1.2e-05  3.694611  0.0  -0.400768  -9.6e-05  3.935144  0.0  -0.403303  -4.2e-05  3.944068  0.0  -0.252195  -0.398814  -0.000172  3.929097  0.0
C  C65  1  0.32994134  0.26382863  0.30811632  1  -0.323317  1.4e-05  3.694727  0.0  -0.40102  -9.6e-05  3.935246  0.0  -0.403555  -4.2e-05  3.944165  0.0  -0.252277  -0.399073  -0.000172  3.929206  0.0
C  C66  1  0.15644587  0.93195162  0.44317844  1  0.177508  0.000115  3.590746  0.0  0.124747  1e-06  3.851718  0.0  0.134096  1.7e-05  3.857534  0.0  -0.067158  0.118846  -3.7e-05  3.846573  0.0
C  C67  1  0.84355555  0.06804781  0.55681926  1  0.17751  0.000117  3.590919  0.0  0.124866  1e-06  3.851725  0.0  0.134208  1.7e-05  3.857549  0.0  -0.067072  0.118951  -3.7e-05  3.846581  0.0
C  C68  1  0.21718751  0.91981280  0.36695180  1  -0.340349  -0.000244  3.712459  0.0  -0.418543  -0.000333  3.957059  0.0  -0.422153  -0.000224  3.96664  0.0  -0.259914  -0.415753  -0.000449  3.949937  0.0
C  C69  1  0.78281487  0.08018445  0.63304635  1  -0.340393  -0.000246  3.71261  0.0  -0.4186  -0.000334  3.957168  0.0  -0.422212  -0.000224  3.966748  0.0  -0.25994  -0.415813  -0.000449  3.95005  0.0
C  C70  1  0.86959079  0.33119538  0.85108634  1  0.174294  0.000352  3.607211  0.0  0.119984  0.000623  3.876607  0.0  0.128741  0.000465  3.882577  0.0  -0.066415  0.113918  0.000619  3.872636  0.0
C  C71  1  0.13041092  0.66880624  0.14891214  1  0.17422  0.000351  3.607219  0.0  0.119835  0.000624  3.87667  0.0  0.12859  0.000465  3.88264  0.0  -0.066454  0.113767  0.000619  3.872699  0.0
C  C72  1  0.80348577  0.42264493  0.79267923  1  -0.325973  0.000282  3.718674  0.0  -0.402975  0.000283  3.963691  0.0  -0.405687  0.000192  3.973408  0.0  -0.252989  -0.400665  0.000414  3.956657  0.0
C  C73  1  0.19651300  0.57735341  0.20731873  1  -0.325985  0.000285  3.718763  0.0  -0.402929  0.000283  3.963786  0.0  -0.405641  0.000192  3.973504  0.0  -0.25295  -0.400621  0.000415  3.956752  0.0
C  C74  1  0.62262978  0.26646357  0.09104261  1  0.168931  -0.000114  3.604947  0.0  0.114527  9e-06  3.870499  0.0  0.122818  -3.3e-05  3.876988  0.0  -0.070244  0.10888  6.3e-05  3.866039  0.0
C  C75  1  0.37736943  0.73353805  0.90895624  1  0.168903  -0.000113  3.604903  0.0  0.114447  9e-06  3.87053  0.0  0.122746  -3.3e-05  3.877011  0.0  -0.070273  0.1088  6.3e-05  3.866066  0.0
C  C76  1  0.51977788  0.37455010  0.12956103  1  -0.306973  -8e-06  3.684661  0.0  -0.382885  8.4e-05  3.927259  0.0  -0.385434  3.3e-05  3.936694  0.0  -0.24414  -0.381049  0.000158  3.920589  0.0
C  C77  1  0.48022118  0.62545043  0.87043771  1  -0.306993  -1e-05  3.68463  0.0  -0.382885  8.4e-05  3.927227  0.0  -0.385437  3.4e-05  3.936667  0.0  -0.244187  -0.381048  0.000158  3.92056  0.0
C  C78  1  0.87140543  0.59652367  0.35080957  1  0.121228  0.007304  3.735464  0.009  0.095666  0.001445  3.986846  0.002  0.106562  0.001945  4.003657  0.003  0.037057  0.08777  0.001207  3.976838  0.002
C  C79  1  0.12859614  0.40347689  0.64919219  1  0.121284  0.007321  3.735498  0.009  0.095711  0.001445  3.986871  0.002  0.106597  0.001945  4.003677  0.003  0.037073  0.087813  0.001207  3.976868  0.002
C  C80  1  0.79267078  0.68137326  0.30163688  1  -0.182939  -0.007097  3.75073  -0.008  -0.197086  -0.002526  3.991472  -0.003  -0.205277  -0.002444  4.010961  -0.003  -0.095767  -0.191889  -0.002828  3.979363  -0.003
C  C81  1  0.20732998  0.31863060  0.69836680  1  -0.182939  -0.007115  3.750795  -0.008  -0.197077  -0.002526  3.991539  -0.003  -0.205269  -0.002445  4.011033  -0.003  -0.095789  -0.191879  -0.002828  3.979431  -0.003
C  C82  1  0.68014305  0.77515139  0.32871306  1  0.091146  0.00663  3.784851  0.007  0.106253  0.001626  4.042509  0.002  0.114282  0.001737  4.060821  0.002  0.009244  0.100248  0.001858  4.030395  0.002
C  C83  1  0.31985590  0.22484809  0.67129008  1  0.091098  0.006649  3.784967  0.007  0.106211  0.001626  4.042623  0.002  0.114239  0.001737  4.060937  0.002  0.00926  0.100204  0.001858  4.030512  0.002
C  C84  1  0.64735630  0.77355899  0.40366175  1  -0.153833  -0.008209  3.688289  -0.008  -0.173845  -0.003534  3.941739  -0.003  -0.180003  -0.003243  3.956401  -0.003  -0.088823  -0.170438  -0.004013  3.933494  -0.004
C  C85  1  0.35264975  0.22644708  0.59634367  1  -0.153782  -0.00823  3.688341  -0.008  -0.173851  -0.003533  3.941815  -0.003  -0.180008  -0.003243  3.95647  -0.003  -0.088889  -0.170444  -0.004013  3.933571  -0.004
C  C86  1  0.73417191  0.68657930  0.44888071  1  0.126071  0.007032  3.707658  0.009  0.09805  0.001314  3.965513  0.003  0.109351  0.0018  3.980817  0.003  0.040284  0.089864  0.001012  3.957794  0.002
C  C87  1  0.26583636  0.31342458  0.55112413  1  0.126146  0.007052  3.707797  0.009  0.098134  0.001314  3.965673  0.003  0.109449  0.0018  3.980977  0.003  0.040287  0.089952  0.001012  3.957951  0.002
C  C88  1  0.92634463  0.03361811  0.16168438  1  0.120448  -0.007942  3.701446  -0.009  0.094818  -0.001521  3.95127  -0.002  0.103779  -0.002035  3.969583  -0.003  0.042463  0.088387  -0.001164  3.940134  -0.002
C  C89  1  0.07364974  0.96638465  0.83831869  1  0.120282  -0.007908  3.701599  -0.009  0.094605  -0.001521  3.951394  -0.002  0.103555  -0.002035  3.969716  -0.003  0.042374  0.08817  -0.001164  3.940255  -0.002
C  C90  1  0.83992002  0.01311742  0.22076287  1  -0.161032  0.006319  3.721122  0.007  -0.175762  0.00122  3.956717  0.001  -0.182719  0.001502  3.975428  0.002  -0.086149  -0.171244  0.001208  3.94465  0.001
C  C91  1  0.16006864  0.98687986  0.77923926  1  -0.160988  0.006284  3.720919  0.007  -0.175679  0.00122  3.956513  0.001  -0.18263  0.001502  3.975227  0.002  -0.086079  -0.171164  0.001209  3.944454  0.001
C  C92  1  0.69977409  0.90742123  0.20331741  1  0.07474  -0.008175  3.778433  -0.009  0.09501  -0.001916  4.026683  -0.002  0.099707  -0.001899  4.047258  -0.002  0.005928  0.091543  -0.0024  4.012883  -0.003
C  C93  1  0.30021859  0.09257823  0.79668354  1  0.074897  -0.008144  3.778324  -0.009  0.0952  -0.001917  4.026503  -0.002  0.0999  -0.001899  4.047077  -0.002  0.006005  0.091733  -0.002401  4.012706  -0.003
C  C94  1  0.65315774  0.82519173  0.12786540  1  -0.153403  0.008747  3.717269  0.009  -0.175447  0.003651  3.970209  0.003  -0.180384  0.003365  3.985651  0.003  -0.085645  -0.172107  0.004054  3.95943  0.003
C  C95  1  0.34683369  0.17480772  0.87213489  1  -0.153428  0.008709  3.717272  0.009  -0.175488  0.003651  3.970191  0.003  -0.180431  0.003365  3.985638  0.003  -0.085645  -0.172145  0.004054  3.959411  0.003
C  C96  1  0.74507673  0.85518037  0.07218700  1  0.140453  -0.008607  3.675328  -0.01  0.113131  -0.001765  3.927621  -0.003  0.122939  -0.00221  3.9442  -0.003  0.047807  0.106016  -0.001571  3.91755  -0.002
C  C97  1  0.25492012  0.14482236  0.92781402  1  0.140415  -0.008572  3.675361  -0.01  0.113059  -0.001766  3.927642  -0.003  0.12287  -0.00221  3.944217  -0.003  0.047778  0.105942  -0.001571  3.917567  -0.002
S  S98  1  0.24879889  0.57940093  0.44899832  1  -0.488192  -0.094845  2.042072  -0.102  -0.487653  -0.066005  2.408876  -0.07  -0.521296  -0.050003  2.39776  -0.055  -0.165991  -0.465018  -0.077168  2.417559  -0.079
S  S99  1  0.75119712  0.42059524  0.55100148  1  -0.488257  -0.094837  2.042059  -0.102  -0.487706  -0.066003  2.408847  -0.07  -0.521349  -0.050001  2.397736  -0.055  -0.166006  -0.465073  -0.077166  2.417534  -0.079
S  S100  1  0.08084040  0.73553675  0.59103905  1  -0.510245  -0.09199  2.047401  -0.099  -0.512453  -0.064442  2.41214  -0.069  -0.54415  -0.049138  2.397553  -0.054  -0.177678  -0.492418  -0.07569  2.422898  -0.078
S  S101  1  0.91916131  0.26446489  0.40896112  1  -0.510231  -0.091989  2.04741  -0.099  -0.512449  -0.06444  2.412146  -0.069  -0.544144  -0.049137  2.397559  -0.054  -0.177672  -0.492408  -0.07569  2.422891  -0.078
S  S102  1  0.01137718  0.26732679  0.04492772  1  -0.485178  0.095065  2.034828  0.102  -0.487874  0.066032  2.394204  0.069  -0.520277  0.049959  2.380473  0.054  -0.166344  -0.465063  0.079088  2.402915  0.081
S  S103  1  0.98862329  0.73267488  0.95507518  1  -0.485163  0.095063  2.034861  0.102  -0.48787  0.066031  2.394252  0.069  -0.52026  0.049959  2.380501  0.054  -0.166318  -0.465063  0.079086  2.402962  0.081
S  S104  1  0.72875943  0.03079887  0.92172007  1  -0.502756  0.096221  2.023742  0.104  -0.506464  0.066806  2.38659  0.072  -0.540812  0.05088  2.375863  0.057  -0.183427  -0.484347  0.077867  2.39396  0.08
S  S105  1  0.27124243  0.96920388  0.07828191  1  -0.502755  0.09622  2.023779  0.104  -0.506442  0.066804  2.386587  0.072  -0.540806  0.050884  2.375889  0.057  -0.183417  -0.484324  0.077864  2.393954  0.08
S  S106  1  0.57325179  0.89011040  0.27389864  1  0.042337  0.001585  2.408761  0.002  0.040456  0.000694  2.728981  0.001  0.038698  0.000651  2.728118  0.001  0.066672  0.042127  0.00059  2.730099  0.0
S  S107  1  0.42674019  0.10988360  0.72610290  1  0.042282  0.001585  2.408893  0.002  0.040392  0.000694  2.729083  0.001  0.038633  0.000651  2.728221  0.001  0.066648  0.042067  0.00059  2.730201  0.0
N  N108  1  0.84748446  0.60094132  0.42425334  1  -0.295086  -0.052205  3.40951  -0.072  -0.24355  -0.033763  3.680579  -0.048  -0.276562  -0.028254  3.710426  -0.041  -0.339792  -0.222767  -0.038529  3.662217  -0.053
N  N109  1  0.15251837  0.39905925  0.57574908  1  -0.295237  -0.052219  3.409852  -0.072  -0.243666  -0.033762  3.680841  -0.048  -0.276683  -0.028254  3.710701  -0.041  -0.339775  -0.222883  -0.038527  3.662476  -0.053
N  N110  1  0.87853580  0.95781345  0.08815658  1  -0.271672  0.051477  3.397128  0.071  -0.21721  0.033182  3.66149  0.047  -0.2489  0.027925  3.692151  0.041  -0.326771  -0.197613  0.038076  3.642421  0.053
N  N111  1  0.12145718  0.04218821  0.91184572  1  -0.271765  0.051449  3.397309  0.071  -0.217225  0.033184  3.661629  0.047  -0.248915  0.027926  3.692295  0.041  -0.326806  -0.197627  0.038077  3.642558  0.053
O  O112  1  0.45293580  0.78275104  0.59134583  1  -0.440173  0.000108  2.287192  0.0  -0.357962  -0.00062  2.540286  -0.001  -0.380053  -0.000207  2.535351  0.0  -0.208152  -0.342102  -0.000974  2.543052  -0.001
O  O113  1  0.54706658  0.21724621  0.40865232  1  -0.44016  0.000108  2.287099  0.0  -0.358031  -0.00062  2.540262  -0.001  -0.380124  -0.000207  2.535329  0.0  -0.208159  -0.342165  -0.000974  2.543019  -0.001
O  O114  1  0.29026801  0.90498362  0.50404109  1  -0.435861  -7.8e-05  2.260707  0.0  -0.351737  -0.000687  2.508013  -0.001  -0.373297  -0.000222  2.502045  0.0  -0.209631  -0.335675  -0.00134  2.511513  -0.002
O  O115  1  0.70973341  0.09501580  0.49595661  1  -0.43584  -7.8e-05  2.260745  0.0  -0.35177  -0.000687  2.508039  -0.001  -0.373326  -0.000222  2.502074  0.0  -0.209658  -0.33571  -0.00134  2.511549  -0.002
O  O116  1  0.76940790  0.34724692  0.91166140  1  -0.430382  0.001106  2.272103  0.001  -0.347339  0.001888  2.522098  0.002  -0.368887  0.001097  2.516006  0.001  -0.207547  -0.332447  0.001744  2.526093  0.002
O  O117  1  0.23059770  0.65275581  0.08833862  1  -0.430446  0.001107  2.272004  0.001  -0.347364  0.001888  2.521999  0.002  -0.368909  0.001097  2.515901  0.001  -0.207564  -0.332475  0.001744  2.525994  0.002
O  O118  1  0.64653077  0.30858566  0.01822999  1  -0.429845  -0.00013  2.258402  0.0  -0.342547  0.000589  2.499125  0.001  -0.364311  0.000155  2.49309  0.0  -0.210004  -0.327406  0.000926  2.502944  0.001
O  O119  1  0.35346843  0.69141596  0.98176886  1  -0.429833  -0.00013  2.258356  0.0  -0.342495  0.000589  2.499065  0.001  -0.364256  0.000155  2.493024  0.0  -0.210015  -0.32736  0.000926  2.502884  0.001
