# generated using pymatgen
data_NiMo3H14C16(N3O5)2
_symmetry_space_group_name_H-M   'P 1'
_cell_length_a   7.93220173
_cell_length_b   11.54978835
_cell_length_c   12.96833835
_cell_angle_alpha   63.55733957
_cell_angle_beta   85.36512438
_cell_angle_gamma   79.53613236
_symmetry_Int_Tables_number   1
_chemical_formula_structural   NiMo3H14C16(N3O5)2
_chemical_formula_sum   'Ni2 Mo6 H28 C32 N12 O20'
_cell_volume   1046.10796906
_cell_formula_units_Z   2
loop_
 _symmetry_equiv_pos_site_id
 _symmetry_equiv_pos_as_xyz
  1  'x, y, z'
loop_
 _atom_site_type_symbol
 _atom_site_label
 _atom_site_symmetry_multiplicity
 _atom_site_fract_x
 _atom_site_fract_y
 _atom_site_fract_z
 _atom_site_occupancy
 _atom_site_hle17_ddec_charge
 _atom_site_hle17_ddec_spin_density
 _atom_site_hle17_ddec_sum_bond_order
 _atom_site_hle17_magmom
 _atom_site_hse06_10hf_ddec_charge
 _atom_site_hse06_10hf_ddec_spin_density
 _atom_site_hse06_10hf_ddec_sum_bond_order
 _atom_site_hse06_10hf_magmom
 _atom_site_hse06_ddec_charge
 _atom_site_hse06_ddec_spin_density
 _atom_site_hse06_ddec_sum_bond_order
 _atom_site_hse06_magmom
 _atom_site_pbe_cm5_charge
 _atom_site_pbe_ddec_charge
 _atom_site_pbe_ddec_spin_density
 _atom_site_pbe_ddec_sum_bond_order
 _atom_site_pbe_magmom
Ni  Ni0  1  0.99076244  0.75570007  0.30387718  1  0.818404  1.870912  2.193311  1.502  0.815457  1.865228  2.600053  1.602  0.899685  1.930328  2.525364  1.694  0.691868  0.75688  1.805343  2.653213  1.52
Ni  Ni1  1  0.49090124  0.05955102  0.69613279  1  0.819017  -1.871079  2.193133  -1.502  0.816144  -1.865361  2.599469  -1.602  0.899763  -1.930443  2.525926  -1.694  0.692059  0.757833  -1.805492  2.652153  -1.52
Mo  Mo2  1  0.27401858  0.01017534  0.23047347  1  2.238807  -0.002887  4.00207  -0.001  2.252569  0.007812  4.524108  0.014  2.355905  0.006336  4.485967  0.012  1.517197  2.176461  0.008898  4.55754  0.016
Mo  Mo3  1  0.77416646  0.24072895  0.76944060  1  2.239921  0.002909  4.001423  0.001  2.253914  -0.007783  4.523449  -0.014  2.357242  -0.006318  4.485221  -0.012  1.517791  2.178083  -0.008865  4.556547  -0.016
Mo  Mo4  1  0.51886174  0.26678315  0.98333192  1  2.226535  0.000291  4.014365  0.0  2.23415  0.000505  4.547011  0.001  2.334268  0.000263  4.510786  0.0  1.510737  2.158544  0.000888  4.582181  0.001
Mo  Mo5  1  0.01891107  0.25035744  0.01648932  1  2.226907  -0.000295  4.016352  0.0  2.234493  -0.000507  4.549069  -0.001  2.334644  -0.000265  4.512841  0.0  1.510715  2.15885  -0.000892  4.584289  -0.001
Mo  Mo6  1  0.63945573  0.95258307  0.09642092  1  2.203542  -0.000841  4.032019  0.001  2.201288  0.009013  4.595115  0.014  2.306824  0.006909  4.551717  0.012  1.513238  2.124064  0.010969  4.630693  0.017
Mo  Mo7  1  0.13957786  0.04904386  0.90355393  1  2.204265  0.000822  4.033406  -0.001  2.201909  -0.009015  4.596492  -0.014  2.307403  -0.006911  4.55306  -0.012  1.513177  2.124686  -0.010971  4.632112  -0.017
H  H8  1  0.36164083  0.61073386  0.37083144  1  0.075813  0.001102  0.975077  0.002  0.0794  0.000829  1.047855  0.001  0.081431  0.00056  1.04568  0.001  0.116134  0.07802  0.001113  1.049518  0.002
H  H9  1  0.86197520  0.98199200  0.62896528  1  0.076981  -0.001102  0.974513  -0.002  0.080319  -0.000828  1.047452  -0.001  0.082362  -0.000559  1.045298  -0.001  0.116228  0.078934  -0.001111  1.049081  -0.002
H  H10  1  0.51221754  0.43951449  0.55340873  1  0.108474  0.00051  0.959103  0.001  0.11581  0.000439  1.024624  0.001  0.118421  0.000305  1.024236  0.0  0.108012  0.114072  0.000581  1.024911  0.001
H  H11  1  0.01253383  0.99371871  0.44624347  1  0.108344  -0.000509  0.958795  -0.001  0.115731  -0.000438  1.024292  -0.001  0.118346  -0.000304  1.0239  0.0  0.108086  0.113955  -0.00058  1.024627  -0.001
H  H12  1  0.34271461  0.36682040  0.73750637  1  0.119389  0.000258  0.966021  0.001  0.128182  5e-06  1.027054  0.0  0.130746  1e-06  1.024995  0.0  0.110765  0.126257  2.7e-05  1.028745  0.0
H  H13  1  0.84273002  0.10494621  0.26224350  1  0.120104  -0.000259  0.965525  -0.001  0.128308  -5e-06  1.02704  0.0  0.130837  -1e-06  1.025056  0.0  0.11102  0.126383  -2.6e-05  1.028723  0.0
H  H14  1  0.03903941  0.47155653  0.73427957  1  0.128209  0.000538  0.935304  0.001  0.137207  0.000445  0.994204  0.001  0.139896  0.000296  0.993278  0.0  0.115575  0.135335  0.000603  0.994979  0.001
H  H15  1  0.53886796  0.20592509  0.26564773  1  0.127719  -0.000538  0.935102  -0.001  0.13714  -0.000445  0.993722  -0.001  0.139824  -0.000296  0.992788  0.0  0.115408  0.135272  -0.000603  0.994492  -0.001
H  H16  1  0.71826288  0.58525951  0.70325310  1  0.149434  0.000293  0.944832  0.0  0.160017  0.000221  0.999326  0.0  0.162997  0.000152  0.999042  0.0  0.116659  0.157928  0.000292  0.999637  0.0
H  H17  1  0.21804356  0.28799994  0.29684434  1  0.149291  -0.000293  0.946914  0.0  0.16008  -0.00022  1.001021  0.0  0.163068  -0.000151  1.000741  0.0  0.116794  0.157994  -0.000291  1.001306  0.0
H  H18  1  0.45938464  0.77440776  0.56437846  1  0.10955  0.000681  0.961639  0.001  0.119677  0.000496  1.022934  0.001  0.121539  0.000373  1.022295  0.001  0.124334  0.118293  0.00062  1.023472  0.001
H  H19  1  0.95920414  0.33844476  0.43565059  1  0.109661  -0.000679  0.960731  -0.001  0.119627  -0.000495  1.022235  -0.001  0.121422  -0.000373  1.02169  -0.001  0.124453  0.11822  -0.000619  1.022815  -0.001
H  H20  1  0.66641205  0.60430701  0.39900470  1  0.080246  0.001061  0.957849  0.002  0.086074  0.000805  1.025535  0.001  0.087425  0.000534  1.024698  0.001  0.117481  0.085357  0.001101  1.026039  0.002
H  H21  1  0.16669020  0.00326687  0.60109296  1  0.079868  -0.001063  0.957664  -0.002  0.085223  -0.000806  1.026109  -0.001  0.086567  -0.000534  1.025267  -0.001  0.117332  0.084523  -0.001101  1.026597  -0.002
H  H22  1  0.53259395  0.45438200  0.34967843  1  0.099843  0.000557  0.967994  0.001  0.108983  0.000464  1.030996  0.001  0.111201  0.000316  1.031613  0.0  0.104579  0.107465  0.000623  1.030669  0.001
H  H23  1  0.03285662  0.80397914  0.65039976  1  0.100247  -0.000557  0.966749  -0.001  0.109374  -0.000464  1.029868  -0.001  0.111545  -0.000316  1.030605  0.0  0.104984  0.107921  -0.000622  1.029433  -0.001
H  H24  1  0.67205476  0.38950152  0.19764056  1  0.107402  0.000237  0.952174  0.001  0.118022  -7e-06  1.009985  0.0  0.120018  -2.1e-05  1.008796  0.0  0.111415  0.116612  2.7e-05  1.01098  0.0
H  H25  1  0.17247653  0.58707600  0.80238429  1  0.107808  -0.000237  0.952169  -0.001  0.118186  7e-06  1.010354  0.0  0.120217  2.2e-05  1.009101  0.0  0.111722  0.116766  -2.6e-05  1.011361  0.0
H  H26  1  0.95163932  0.45997990  0.11514306  1  0.1237  0.00046  0.969967  0.001  0.132038  0.000336  1.030774  0.001  0.13479  0.000219  1.03015  0.0  0.111604  0.130258  0.000467  1.031114  0.001
H  H27  1  0.45187559  0.57505185  0.88498487  1  0.12384  -0.000462  0.970096  -0.001  0.132528  -0.000336  1.030443  -0.001  0.13532  -0.00022  1.029794  0.0  0.111506  0.130649  -0.000468  1.030919  -0.001
H  H28  1  0.25751551  0.50296880  0.07457337  1  0.147699  0.000356  0.958958  0.001  0.155817  0.000214  1.017185  0.0  0.158847  0.000152  1.016384  0.0  0.113557  0.153747  0.000276  1.017835  0.0
H  H29  1  0.75761994  0.57757890  0.92587145  1  0.147697  -0.000356  0.959143  -0.001  0.155809  -0.000213  1.017289  0.0  0.158943  -0.000153  1.016339  0.0  0.113558  0.153681  -0.000276  1.018011  0.0
H  H30  1  0.49925216  0.65517169  0.05893985  1  0.113149  0.000702  0.959758  0.001  0.123338  0.000453  1.020422  0.001  0.125127  0.000331  1.01941  0.001  0.124944  0.12203  0.000573  1.021269  0.001
H  H31  1  0.99939254  0.71429404  0.94122547  1  0.112314  -0.000703  0.959595  -0.001  0.122647  -0.000454  1.020361  -0.001  0.124462  -0.000331  1.019274  -0.001  0.124354  0.121324  -0.000574  1.021225  -0.001
H  H32  1  0.59025419  0.88050946  0.36781430  1  0.297101  -7.6e-05  0.893862  0.0  0.272964  4e-05  0.963609  0.0  0.279195  1.3e-05  0.959168  0.0  0.332289  0.268546  7e-05  0.966921  0.0
H  H33  1  0.09015718  0.24824075  0.63216452  1  0.296288  7.7e-05  0.894764  0.0  0.272671  -4e-05  0.963361  0.0  0.278845  -1.2e-05  0.958991  0.0  0.332491  0.26828  -7e-05  0.966658  0.0
H  H34  1  0.37558451  0.78743954  0.16946359  1  0.302873  -8.9e-05  0.948952  0.0  0.277525  3.2e-05  1.019835  0.0  0.286022  7e-06  1.013038  0.0  0.314315  0.271539  5.8e-05  1.024667  0.0
H  H35  1  0.87578202  0.95702514  0.83044164  1  0.301466  8.9e-05  0.950644  0.0  0.27754  -3.3e-05  1.019534  0.0  0.285931  -7e-06  1.012806  0.0  0.313725  0.27158  -5.9e-05  1.02438  0.0
C  C36  1  0.29613086  0.57639695  0.45349594  1  0.123058  -0.00772  3.706692  -0.01  0.094604  -0.00159  3.969516  -0.003  0.103906  -0.002235  3.987086  -0.004  0.042194  0.087892  -0.001175  3.957798  -0.002
C  C37  1  0.79634819  0.03020831  0.54633605  1  0.121079  0.007709  3.707464  0.01  0.092639  0.001584  3.970332  0.003  0.101903  0.00223  3.987878  0.004  0.042018  0.085949  0.001167  3.958624  0.002
C  C38  1  0.37833656  0.48238383  0.55451353  1  -0.120222  0.008567  3.722653  0.01  -0.136671  0.002991  3.980943  0.004  -0.143116  0.002745  4.001175  0.004  -0.085977  -0.132387  0.003518  3.967475  0.005
C  C39  1  0.87852505  0.03737146  0.44526335  1  -0.118704  -0.008573  3.72119  -0.01  -0.13525  -0.002988  3.979059  -0.004  -0.14167  -0.002743  3.999259  -0.004  -0.085683  -0.13095  -0.003515  3.9656  -0.005
C  C40  1  0.28481879  0.44244649  0.65695276  1  0.013123  -0.00901  3.662927  -0.01  -0.009924  -0.00295  3.916467  -0.003  -0.005367  -0.002852  3.932866  -0.003  -0.063683  -0.013148  -0.00337  3.905716  -0.004
C  C41  1  0.78484635  0.09976398  0.34287346  1  0.011582  0.009018  3.662647  0.01  -0.010473  0.002946  3.916074  0.003  -0.005931  0.002849  3.932466  0.003  -0.064227  -0.013715  0.003365  3.905386  0.004
C  C42  1  0.11468231  0.50062541  0.65547325  1  -0.123248  0.00751  3.65881  0.009  -0.140522  0.002639  3.905167  0.003  -0.146828  0.00244  3.923326  0.003  -0.073984  -0.136321  0.003119  3.893275  0.004
C  C43  1  0.61458815  0.15617081  0.34443273  1  -0.122839  -0.007524  3.658226  -0.009  -0.141234  -0.002636  3.904897  -0.003  -0.147471  -0.002438  3.923048  -0.003  -0.074254  -0.137068  -0.003116  3.89296  -0.004
C  C44  1  0.04106655  0.59567134  0.55094273  1  0.197878  -0.005579  3.758089  -0.007  0.199217  -0.00104  3.998213  -0.002  0.208213  -0.001613  4.016376  -0.003  0.123752  0.192634  -0.000726  3.986256  -0.002
C  C45  1  0.54098679  0.14651037  0.44902712  1  0.198786  0.005593  3.756095  0.007  0.200686  0.001041  3.995236  0.002  0.209557  0.001615  4.013509  0.003  0.124999  0.194203  0.000728  3.983167  0.002
C  C46  1  0.86597823  0.66550128  0.53783217  1  0.119837  -0.002841  3.787879  -0.002  0.110957  -0.000612  4.04984  0.0  0.118659  -0.001146  4.067916  -0.001  0.096362  0.105804  -0.000137  4.037838  0.001
C  C47  1  0.36584354  0.20308806  0.46221764  1  0.121047  0.002826  3.78488  0.002  0.112492  0.000614  4.046148  0.0  0.120258  0.001143  4.064177  0.001  0.097647  0.107299  0.000137  4.034164  -0.001
C  C48  1  0.72470690  0.65410765  0.61333492  1  -0.214462  0.000463  3.690852  0.001  -0.234802  0.000129  3.950775  0.0  -0.243591  0.000144  3.96988  0.0  -0.101071  -0.229126  0.000167  3.938051  0.0
C  C49  1  0.22451159  0.26707931  0.38672419  1  -0.215109  -0.000451  3.692422  -0.001  -0.235992  -0.00013  3.952444  0.0  -0.244807  -0.000143  3.971535  0.0  -0.101949  -0.230293  -0.000168  3.939709  0.0
C  C50  1  0.59216536  0.74707847  0.54566616  1  0.062405  -0.001598  3.655076  -0.001  0.012655  0.000233  3.922627  0.001  0.021894  -0.000315  3.936603  0.0  0.025947  0.006767  0.000705  3.913095  0.001
C  C51  1  0.09199557  0.29242884  0.45437836  1  0.063047  0.001583  3.653896  0.001  0.013022  -0.000233  3.921361  -0.001  0.022348  0.000313  3.935404  0.0  0.025804  0.007106  -0.000706  3.911819  -0.001
C  C52  1  0.72634969  0.56903622  0.33753858  1  0.134954  -0.00611  3.68774  -0.008  0.104991  -0.00087  3.957391  -0.002  0.115101  -0.001573  3.973466  -0.003  0.047349  0.097878  -0.000357  3.946224  -0.001
C  C53  1  0.22654031  0.90654498  0.66262159  1  0.135837  0.006136  3.687854  0.008  0.105989  0.000878  3.957533  0.002  0.116126  0.001583  3.973564  0.003  0.047478  0.098843  0.000367  3.946422  0.001
C  C54  1  0.65224337  0.48622746  0.30948182  1  -0.137129  0.007517  3.741646  0.009  -0.15209  0.002749  3.996109  0.004  -0.158836  0.002421  4.0162  0.003  -0.089925  -0.147514  0.003348  3.98253  0.005
C  C55  1  0.15239797  0.79569853  0.69067387  1  -0.13815  -0.007533  3.740342  -0.009  -0.153143  -0.002751  3.994781  -0.004  -0.159905  -0.002422  4.014868  -0.003  -0.090752  -0.148592  -0.003348  3.981212  -0.005
C  C56  1  0.73104930  0.44772292  0.22686335  1  0.003359  -0.007948  3.72065  -0.009  -0.013948  -0.002645  3.967012  -0.003  -0.009529  -0.002545  3.98522  -0.003  -0.06271  -0.016876  -0.003021  3.954591  -0.003
C  C57  1  0.23127320  0.67459017  0.77325844  1  0.003176  0.00796  3.721035  0.009  -0.014006  0.002651  3.967642  0.003  -0.009577  0.002548  3.985881  0.003  -0.06298  -0.016934  0.003026  3.955195  0.003
C  C58  1  0.88553604  0.48776249  0.17976484  1  -0.134006  0.006713  3.665234  0.008  -0.149841  0.002372  3.903717  0.003  -0.157626  0.0021  3.924324  0.003  -0.074619  -0.144505  0.002925  3.889738  0.004
C  C59  1  0.38575743  0.66748752  0.82038724  1  -0.134595  -0.006713  3.665224  -0.008  -0.150672  -0.002371  3.904291  -0.003  -0.158397  -0.0021  3.924761  -0.003  -0.074993  -0.145359  -0.002925  3.890445  -0.004
C  C60  1  0.95463518  0.56797658  0.21432790  1  0.197783  -0.004941  3.790111  -0.006  0.200506  -0.00092  4.030558  -0.002  0.209539  -0.001463  4.049582  -0.002  0.12776  0.193851  -0.000533  4.017921  -0.001
C  C61  1  0.45484068  0.78224152  0.78586541  1  0.198403  0.004934  3.788801  0.006  0.200339  0.000914  4.030187  0.002  0.209281  0.001462  4.049337  0.002  0.128324  0.193754  0.00053  4.017425  0.001
C  C62  1  0.11708611  0.61110162  0.17221632  1  0.112159  -0.00387  3.830027  -0.003  0.102159  -0.001128  4.093009  -0.001  0.109151  -0.001731  4.112505  -0.002  0.093167  0.097532  -0.000587  4.079905  0.0
C  C63  1  0.61727225  0.78332003  0.82795875  1  0.111586  0.003864  3.830877  0.003  0.101612  0.001127  4.094407  0.001  0.108616  0.001731  4.113928  0.002  0.092871  0.097005  0.000588  4.08122  0.0
C  C64  1  0.25011878  0.57412299  0.10858446  1  -0.23005  0.00041  3.697847  0.001  -0.248856  4e-06  3.95785  0.0  -0.258085  6.5e-05  3.976781  0.0  -0.107263  -0.242725  -3e-06  3.944895  0.0
C  C65  1  0.75026854  0.68275509  0.89167134  1  -0.229101  -0.000405  3.698656  -0.001  -0.24774  -1e-06  3.958311  0.0  -0.257016  -6.6e-05  3.977207  0.0  -0.10695  -0.24159  4e-06  3.945373  0.0
C  C66  1  0.37493202  0.64790597  0.10031960  1  0.082837  -0.003263  3.64712  -0.003  0.033723  -0.000476  3.913153  0.0  0.043219  -0.000985  3.926386  -0.001  0.029048  0.027837  -5.7e-05  3.903813  0.001
C  C67  1  0.87508450  0.74833555  0.89983269  1  0.083339  0.003268  3.645454  0.003  0.03386  0.000479  3.911591  0.0  0.043373  0.00099  3.924854  0.001  0.029312  0.027989  6e-05  3.902226  -0.001
N  N68  1  0.13097893  0.63020267  0.45104522  1  -0.31577  0.073759  3.294652  0.107  -0.283041  0.045873  3.579084  0.069  -0.312387  0.035968  3.599719  0.056  -0.319159  -0.261949  0.054725  3.564648  0.08
N  N69  1  0.63107601  0.08128429  0.54887516  1  -0.316744  -0.073723  3.295926  -0.107  -0.284002  -0.045821  3.580017  -0.069  -0.313188  -0.035919  3.60069  -0.056  -0.320218  -0.262982  -0.054679  3.565536  -0.08
N  N70  1  0.82126982  0.76045125  0.43111192  1  -0.234392  0.049621  3.175707  0.07  -0.221932  0.034354  3.477613  0.049  -0.24423  0.028154  3.497262  0.042  -0.241656  -0.206382  0.039713  3.464401  0.056
N  N71  1  0.32119964  0.19142555  0.56891034  1  -0.235088  -0.049545  3.174977  -0.07  -0.223768  -0.034328  3.476963  -0.049  -0.245933  -0.028131  3.496588  -0.042  -0.241825  -0.208283  -0.039684  3.46377  -0.056
N  N72  1  0.65556890  0.80756587  0.43789402  1  -0.12904  0.001732  3.496079  0.001  -0.062018  0.001792  3.735318  0.002  -0.07255  0.001499  3.755981  0.001  -0.268324  -0.055291  0.002001  3.721492  0.002
N  N73  1  0.15546457  0.24528167  0.56212629  1  -0.128962  -0.00173  3.497415  -0.001  -0.06077  -0.001792  3.734582  -0.002  -0.071295  -0.001498  3.755307  -0.001  -0.268913  -0.054045  -0.001999  3.720692  -0.002
N  N74  1  0.87396666  0.61064899  0.29040266  1  -0.32611  0.073014  3.258932  0.106  -0.299867  0.045343  3.548507  0.068  -0.329594  0.034832  3.570285  0.054  -0.311932  -0.277826  0.055159  3.532644  0.08
N  N75  1  0.37419086  0.90099312  0.70973825  1  -0.326078  -0.073029  3.259377  -0.106  -0.298727  -0.045364  3.548053  -0.068  -0.328355  -0.034858  3.56997  -0.054  -0.311711  -0.276763  -0.05518  3.53216  -0.08
N  N76  1  0.15934569  0.70124837  0.20047869  1  -0.222638  0.057909  3.188689  0.082  -0.211833  0.037862  3.492235  0.055  -0.23505  0.030717  3.511567  0.046  -0.243506  -0.19525  0.044122  3.478816  0.062
N  N77  1  0.65952119  0.90176524  0.79955901  1  -0.223293  -0.057949  3.190106  -0.082  -0.213032  -0.037867  3.494615  -0.055  -0.236159  -0.030721  3.514005  -0.046  -0.244123  -0.196476  -0.044127  3.481151  -0.063
N  N78  1  0.31589211  0.72153263  0.15665029  1  -0.13352  0.002519  3.467246  0.002  -0.064659  0.002111  3.700015  0.002  -0.076229  0.001747  3.719796  0.002  -0.269647  -0.057124  0.002402  3.686573  0.002
N  N79  1  0.81605373  0.87827978  0.84338628  1  -0.132157  -0.002517  3.468492  -0.002  -0.063722  -0.002107  3.699984  -0.002  -0.075232  -0.001744  3.719966  -0.002  -0.26832  -0.056233  -0.002398  3.686464  -0.002
O  O80  1  0.45297792  0.88435154  0.21018383  1  -0.945325  -0.000418  1.757972  0.0  -0.933075  -3e-05  2.048656  0.0  -0.971547  -0.000168  2.038899  0.0  -0.595246  -0.905066  0.000124  2.05604  0.001
O  O81  1  0.95320515  0.09463822  0.78974176  1  -0.945638  0.000413  1.758254  0.0  -0.934287  2.7e-05  2.049359  0.0  -0.972729  0.000165  2.039587  0.0  -0.595514  -0.906334  -0.000129  2.05673  -0.001
O  O82  1  0.11735044  0.90890446  0.28022881  1  -0.728789  0.034416  1.644142  0.052  -0.739072  0.02322  1.949168  0.035  -0.776404  0.0187  1.934595  0.028  -0.522576  -0.7128  0.027561  1.960484  0.041
O  O83  1  0.61746346  0.18915794  0.71975481  1  -0.729634  -0.034351  1.644455  -0.052  -0.739958  -0.023198  1.949511  -0.035  -0.777179  -0.018683  1.93495  -0.028  -0.523324  -0.713817  -0.027533  1.960812  -0.041
O  O84  1  0.14845633  0.18442496  0.15822281  1  -0.900057  -0.000422  1.668522  0.0  -0.898173  -0.000142  1.955686  0.0  -0.938475  -0.000183  1.947467  0.0  -0.59109  -0.868113  -0.000119  1.961938  0.0
O  O85  1  0.64847058  0.34268526  0.84165166  1  -0.900701  0.00042  1.668971  0.0  -0.898582  0.00014  1.955615  0.0  -0.938872  0.000182  1.947317  0.0  -0.591481  -0.868537  0.000117  1.961757  0.0
O  O86  1  0.17911925  0.06050450  0.03779228  1  -0.989051  0.000194  1.728867  0.001  -0.990304  -0.000169  2.042042  0.0  -1.032911  -1.5e-05  2.033743  0.0  -0.5946  -0.958009  -0.000371  2.047124  0.0
O  O87  1  0.67925653  0.09827222  0.96224100  1  -0.988772  -0.000197  1.727576  -0.001  -0.989983  0.000168  2.040566  0.0  -1.032657  1.5e-05  2.032423  0.0  -0.594576  -0.957736  0.00037  2.04564  0.0
O  O88  1  0.50531260  0.38219489  0.03492443  1  -0.706972  0.000124  1.423767  0.0  -0.691385  7.7e-05  1.658976  0.0  -0.715427  4.6e-05  1.647633  0.0  -0.521973  -0.673932  0.000123  1.668431  0.0
O  O89  1  0.00557771  0.41733074  0.96503035  1  -0.70754  -0.000123  1.424532  0.0  -0.691665  -7.8e-05  1.659538  0.0  -0.715841  -4.6e-05  1.648311  0.0  -0.52182  -0.674217  -0.000123  1.668993  0.0
O  O90  1  0.32006144  0.29368086  0.92367831  1  -0.755743  0.000481  1.58514  0.001  -0.759731  0.00027  1.866413  0.0  -0.789405  0.000174  1.857067  0.0  -0.522923  -0.737484  0.00042  1.873604  0.001
O  O91  1  0.82010499  0.21768960  0.07611811  1  -0.755678  -0.000481  1.58518  -0.001  -0.759939  -0.000271  1.86688  0.0  -0.789441  -0.000174  1.857233  0.0  -0.523187  -0.737744  -0.000421  1.874186  -0.001
O  O92  1  0.62603153  0.83965517  0.04675523  1  -0.680903  0.008091  1.467507  0.012  -0.674457  0.004886  1.725482  0.008  -0.70032  0.003488  1.718541  0.006  -0.514574  -0.656147  0.006654  1.731279  0.01
O  O93  1  0.12638771  0.88643356  0.95314296  1  -0.68049  -0.008088  1.468664  -0.012  -0.673845  -0.00488  1.726477  -0.008  -0.699731  -0.003481  1.719557  -0.006  -0.513673  -0.655467  -0.006647  1.732152  -0.01
O  O94  1  0.49102823  0.11087800  0.12091790  1  -1.0093  0.001737  1.807767  0.003  -1.001622  0.001325  2.113908  0.002  -1.045286  0.000889  2.106596  0.001  -0.608613  -0.968086  0.001889  2.118489  0.002
O  O95  1  0.99104797  0.23197632  0.87894207  1  -1.00971  -0.001736  1.807458  -0.003  -1.002444  -0.001323  2.114422  -0.002  -1.045911  -0.000888  2.106622  -0.001  -0.608753  -0.968947  -0.001887  2.119033  -0.002
O  O96  1  0.82321629  0.89648801  0.18185675  1  -0.749334  0.0341  1.67293  0.051  -0.757807  0.022174  1.995368  0.033  -0.79568  0.017416  1.977018  0.026  -0.53392  -0.730467  0.026859  2.008607  0.039
O  O97  1  0.32335074  0.07833853  0.81816892  1  -0.750361  -0.034041  1.674096  -0.051  -0.758369  -0.022153  1.995772  -0.033  -0.796147  -0.0174  1.97756  -0.025  -0.534743  -0.731074  -0.026837  2.00896  -0.039
O  O98  1  0.34211648  0.00609518  0.35472873  1  -0.711153  -0.00178  1.449189  -0.003  -0.701307  -0.000811  1.694573  -0.001  -0.725252  -0.000944  1.685402  -0.002  -0.520909  -0.684598  -0.000691  1.702235  -0.001
O  O99  1  0.84213044  0.36087347  0.64511262  1  -0.710624  0.001779  1.448421  0.003  -0.701074  0.000807  1.69388  0.001  -0.725053  0.000944  1.684744  0.002  -0.520288  -0.684411  0.00069  1.701442  0.001
