# generated using pymatgen
data_ZnH12(C3O)4
_symmetry_space_group_name_H-M   'P 1'
_cell_length_a   15.84551372
_cell_length_b   17.56694330
_cell_length_c   17.56695283
_cell_angle_alpha   111.37611388
_cell_angle_beta   107.49492287
_cell_angle_gamma   107.49529624
_symmetry_Int_Tables_number   1
_chemical_formula_structural   ZnH12(C3O)4
_chemical_formula_sum   'Zn12 H144 C144 O48'
_cell_volume   3851.90604443
_cell_formula_units_Z   12
loop_
 _symmetry_equiv_pos_site_id
 _symmetry_equiv_pos_as_xyz
  1  'x, y, z'
loop_
 _atom_site_type_symbol
 _atom_site_label
 _atom_site_symmetry_multiplicity
 _atom_site_fract_x
 _atom_site_fract_y
 _atom_site_fract_z
 _atom_site_occupancy
 _atom_site_pbe_bader_charge
 _atom_site_pbe_bader_spin_density
 _atom_site_pbe_cm5_charge
 _atom_site_pbe_ddec_charge
 _atom_site_pbe_ddec_spin_density
 _atom_site_pbe_ddec_sum_bond_order
 _atom_site_pbe_magmom
Zn  Zn0  1  0.62650640  0.62809685  0.25235487  1  1.321238  0  0.698923  0.926257  0  2.344985  0
Zn  Zn1  1  0.37421333  0.74768460  0.37582967  1  1.317331  0  0.6989  0.926185  0  2.345155  0
Zn  Zn2  1  0.99831885  0.62423474  0.37180793  1  1.324973  0  0.699156  0.926613  0  2.343076  0
Zn  Zn3  1  0.50168106  0.62819231  0.37576299  1  1.324912  0  0.69913  0.926585  0  2.343023  0
Zn  Zn4  1  0.87349167  0.74764375  0.37190347  1  1.320965  0  0.69894  0.926299  0  2.344991  0
Zn  Zn5  1  0.12578715  0.62416904  0.25231482  1  1.317516  0  0.698952  0.926205  0  2.345025  0
Zn  Zn6  1  0.37349262  0.37190290  0.74764347  1  1.321266  0  0.698957  0.926275  0  2.34491  0
Zn  Zn7  1  0.62578702  0.25231515  0.62416903  1  1.317297  0  0.698912  0.926121  0  2.345181  0
Zn  Zn8  1  0.00168115  0.37576432  0.62819213  1  1.324971  0  0.699157  0.926617  0  2.343001  0
Zn  Zn9  1  0.49831866  0.37180882  0.62423604  1  1.32497  0  0.69913  0.926556  0  2.343085  0
Zn  Zn10  1  0.12650767  0.25235531  0.62809585  1  1.320972  0  0.698936  0.926276  0  2.345011  0
Zn  Zn11  1  0.87421285  0.37583002  0.74768467  1  1.317505  0  0.698922  0.926172  0  2.345041  0
H  H12  1  0.21662100  0.43505756  0.15006834  1  0.092953  0  0.105306  0.111304  0  1.031296  0
H  H13  1  0.06649403  0.84983553  0.28491209  1  0.079225  0  0.105475  0.111261  0  1.030598  0
H  H14  1  0.78158713  0.71499092  0.56487922  1  0.087564  0  0.105447  0.110653  0  1.030847  0
H  H15  1  0.71841399  0.43512154  0.28500834  1  0.087551  0  0.105468  0.110659  0  1.030796  0
H  H16  1  0.28337877  0.84993109  0.56494167  1  0.092948  0  0.105292  0.111293  0  1.031325  0
H  H17  1  0.43350518  0.71508677  0.15016408  1  0.079249  0  0.105463  0.111265  0  1.030504  0
H  H18  1  0.78337837  0.56494288  0.84993262  1  0.09296  0  0.105295  0.111325  0  1.031308  0
H  H19  1  0.93350632  0.15016422  0.71508775  1  0.079216  0  0.105482  0.111268  0  1.030582  0
H  H20  1  0.21841322  0.28500883  0.43512005  1  0.087541  0  0.105457  0.110655  0  1.030854  0
H  H21  1  0.28158671  0.56487889  0.71499127  1  0.08752  0  0.105439  0.110638  0  1.03085  0
H  H22  1  0.71662158  0.15006866  0.43505816  1  0.092964  0  0.105313  0.111321  0  1.031262  0
H  H23  1  0.56649384  0.28491298  0.84983596  1  0.079218  0  0.105484  0.111254  0  1.030593  0
H  H24  1  0.38560125  0.46667613  0.00348911  1  0.110488  0  0.1114  0.117108  0  1.023059  0
H  H25  1  0.38202687  0.99647224  0.46315795  1  0.108493  0  0.111438  0.116724  0  1.022702  0
H  H26  1  0.91900632  0.53683828  0.53333783  1  0.113978  0  0.111498  0.116983  0  1.023204  0
H  H27  1  0.58099284  0.46666321  0.46316095  1  0.11397  0  0.111508  0.117023  0  1.023236  0
H  H28  1  0.11439982  0.99651120  0.53332502  1  0.1105  0  0.111385  0.117106  0  1.023081  0
H  H29  1  0.11797186  0.53684168  0.00352863  1  0.108459  0  0.111448  0.11676  0  1.022668  0
H  H30  1  0.61439841  0.53332224  0.99651004  1  0.110459  0  0.111382  0.117079  0  1.023084  0
H  H31  1  0.61797245  0.00352544  0.53684085  1  0.10853  0  0.111455  0.116754  0  1.022669  0
H  H32  1  0.08099336  0.46316147  0.46666240  1  0.113988  0  0.111499  0.116982  0  1.02322  0
H  H33  1  0.41900892  0.53334067  0.53684077  1  0.114025  0  0.111529  0.11703  0  1.023208  0
H  H34  1  0.88560053  0.00348855  0.46667539  1  0.110485  0  0.111399  0.11712  0  1.023075  0
H  H35  1  0.88202682  0.46315738  0.99646993  1  0.108452  0  0.111447  0.116752  0  1.022687  0
H  H36  1  0.07089404  0.28693166  0.85266202  1  0.095524  0  0.106956  0.108733  0  1.026381  0
H  H37  1  0.21809667  0.14724621  0.43417924  1  0.082484  0  0.107011  0.109611  0  1.02712  0
H  H38  1  0.78410088  0.56586285  0.71315049  1  0.082892  0  0.107053  0.108785  0  1.026253  0
H  H39  1  0.71589698  0.28685048  0.43413712  1  0.082967  0  0.107038  0.108746  0  1.026214  0
H  H40  1  0.42910603  0.14733719  0.71306922  1  0.095511  0  0.106968  0.108735  0  1.026409  0
H  H41  1  0.28190175  0.56581981  0.85275309  1  0.082521  0  0.107012  0.10962  0  1.027115  0
H  H42  1  0.92910499  0.71306809  0.14733746  1  0.095537  0  0.106951  0.108759  0  1.026376  0
H  H43  1  0.78190500  0.85275354  0.56582209  1  0.08245  0  0.106993  0.109584  0  1.027123  0
H  H44  1  0.21589982  0.43413758  0.28684970  1  0.082888  0  0.107054  0.108782  0  1.026226  0
H  H45  1  0.28410141  0.71315065  0.56586382  1  0.082901  0  0.107036  0.108755  0  1.0262  0
H  H46  1  0.57089366  0.85266256  0.28693101  1  0.095511  0  0.106954  0.108725  0  1.026413  0
H  H47  1  0.71809828  0.43418063  0.14724691  1  0.082528  0  0.107004  0.109603  0  1.027118  0
H  H48  1  0.05604373  0.42356192  0.11981442  1  0.052067  0  0.085717  0.127763  0  1.027147  0
H  H49  1  0.93617188  0.88018189  0.30374001  1  0.035869  0  0.085802  0.128269  0  1.026295  0
H  H50  1  0.63249336  0.69626805  0.57643887  1  0.056376  0  0.0859  0.128181  0  1.026992  0
H  H51  1  0.86750748  0.42356135  0.30373128  1  0.056419  0  0.085894  0.128187  0  1.026976  0
H  H52  1  0.44395702  0.88018652  0.57643898  1  0.052085  0  0.08573  0.127785  0  1.027138  0
H  H53  1  0.56382726  0.69625948  0.11981802  1  0.035851  0  0.085797  0.128278  0  1.026189  0
H  H54  1  0.94395596  0.57643782  0.88018524  1  0.052067  0  0.08571  0.127751  0  1.027131  0
H  H55  1  0.06382815  0.11981855  0.69626056  1  0.035876  0  0.085792  0.128265  0  1.026323  0
H  H56  1  0.36750664  0.30373101  0.42356119  1  0.056425  0  0.085888  0.128176  0  1.02695  0
H  H57  1  0.13249189  0.57643909  0.69626854  1  0.056418  0  0.085903  0.128203  0  1.026955  0
H  H58  1  0.55604336  0.11981461  0.42356194  1  0.052066  0  0.085724  0.127752  0  1.027152  0
H  H59  1  0.43617243  0.30374027  0.88018221  1  0.035867  0  0.085814  0.128294  0  1.026256  0
H  H60  1  0.08233967  0.34016218  0.14230980  1  -0.004622  0  0.08035  0.104616  0  1.057446  0
H  H61  1  0.93995010  0.85767024  0.19782911  1  0.01073  0  0.080113  0.10475  0  1.058212  0
H  H62  1  0.74217053  0.80218058  0.65982973  1  0.013911  0  0.080188  0.104674  0  1.058639  0
H  H63  1  0.75782955  0.34017090  0.19781979  1  0.013782  0  0.0802  0.104685  0  1.058612  0
H  H64  1  0.41766032  0.85768995  0.65983728  1  -0.004634  0  0.080325  0.104606  0  1.057492  0
H  H65  1  0.56004950  0.80217086  0.14232900  1  0.010726  0  0.080109  0.104746  0  1.058225  0
H  H66  1  0.91766068  0.65983757  0.85769003  1  -0.00463  0  0.080332  0.104611  0  1.057489  0
H  H67  1  0.06004959  0.14232951  0.80217054  1  0.010728  0  0.080111  0.104742  0  1.058223  0
H  H68  1  0.25782915  0.19781917  0.34017107  1  0.01376  0  0.080185  0.104663  0  1.058636  0
H  H69  1  0.24216982  0.65982954  0.80218061  1  0.01379  0  0.080195  0.104688  0  1.058589  0
H  H70  1  0.58233971  0.14231049  0.34016272  1  -0.004614  0  0.080325  0.104584  0  1.057501  0
H  H71  1  0.43995053  0.19782958  0.85767044  1  0.010733  0  0.080116  0.104751  0  1.058223  0
H  H72  1  0.95725607  0.31720852  0.08489228  1  0.008926  0  0.086192  0.121759  0  0.994049  0
H  H73  1  0.87225807  0.91507240  0.23229263  1  0.00842  0  0.086254  0.121983  0  0.995422  0
H  H74  1  0.64003915  0.76770571  0.68279002  1  0.020383  0  0.086574  0.12241  0  0.99417  0
H  H75  1  0.85996007  0.31720994  0.23229429  1  0.020368  0  0.086587  0.122434  0  0.994175  0
H  H76  1  0.54274371  0.91510792  0.68279166  1  0.008928  0  0.086198  0.121771  0  0.994048  0
H  H77  1  0.62774190  0.76770705  0.08492722  1  0.00844  0  0.086264  0.121991  0  0.995416  0
H  H78  1  0.04274361  0.68279123  0.91510738  1  0.008927  0  0.086212  0.121786  0  0.994065  0
H  H79  1  0.12774262  0.08492804  0.76770756  1  0.008418  0  0.086257  0.121991  0  0.995391  0
H  H80  1  0.35995987  0.23229403  0.31721003  1  0.020377  0  0.086597  0.12245  0  0.99416  0
H  H81  1  0.14003930  0.68279049  0.76770553  1  0.020395  0  0.086591  0.122446  0  0.99416  0
H  H82  1  0.45725632  0.08489251  0.31720892  1  0.008933  0  0.086205  0.121758  0  0.99405  0
H  H83  1  0.37225779  0.23229270  0.91507244  1  0.008433  0  0.086259  0.12199  0  0.995428  0
H  H84  1  0.05587682  0.19330460  0.00814832  1  0.028665  0  0.084801  0.119138  0  1.015373  0
H  H85  1  0.04762715  0.99184079  0.18512056  1  0.02409  0  0.08493  0.119041  0  1.014756  0
H  H86  1  0.86255701  0.81491804  0.80671958  1  0.020206  0  0.084894  0.119109  0  1.014023  0
H  H87  1  0.63744337  0.19327960  0.18508261  1  0.020213  0  0.084896  0.119118  0  1.014012  0
H  H88  1  0.44412294  0.99185125  0.80669654  1  0.028637  0  0.084795  0.119122  0  1.01535  0
H  H89  1  0.45237233  0.81487945  0.00815940  1  0.024086  0  0.08493  0.119049  0  1.014718  0
H  H90  1  0.94412287  0.80669515  0.99185077  1  0.028538  0  0.084797  0.11913  0  1.015375  0
H  H91  1  0.95237253  0.00815896  0.81487910  1  0.02409  0  0.084942  0.119061  0  1.014786  0
H  H92  1  0.13744302  0.18508240  0.19328099  1  0.020296  0  0.084897  0.119112  0  1.014032  0
H  H93  1  0.36255764  0.80672015  0.81491798  1  0.020204  0  0.084892  0.119115  0  1.013994  0
H  H94  1  0.55587775  0.00814919  0.19330478  1  0.028522  0  0.084795  0.119133  0  1.015349  0
H  H95  1  0.54762704  0.18512099  0.99184042  1  0.02409  0  0.084937  0.119054  0  1.014779  0
H  H96  1  0.99080334  0.16781635  0.89296022  1  0.023613  0  0.082693  0.111615  0  1.049492  0
H  H97  1  0.09774054  0.10702265  0.27484269  1  0.03346  0  0.082266  0.110704  0  1.04981  0
H  H98  1  0.82296795  0.72521128  0.83219552  1  0.008676  0  0.082221  0.110427  0  1.049252  0
H  H99  1  0.67703206  0.16780458  0.27478912  1  0.008662  0  0.082202  0.110375  0  1.049288  0
H  H100  1  0.50919643  0.10703972  0.83218401  1  0.023608  0  0.082686  0.111588  0  1.049512  0
H  H101  1  0.40225981  0.72515699  0.89297799  1  0.033471  0  0.082256  0.110682  0  1.049856  0
H  H102  1  0.00919569  0.83218340  0.10703869  1  0.023616  0  0.082701  0.111635  0  1.049488  0
H  H103  1  0.90226016  0.89297779  0.72515749  1  0.033475  0  0.082281  0.110731  0  1.049818  0
H  H104  1  0.17703208  0.27478916  0.16780562  1  0.008667  0  0.0822  0.11038  0  1.049307  0
H  H105  1  0.32296829  0.83219517  0.72521128  1  0.008667  0  0.082201  0.110373  0  1.049291  0
H  H106  1  0.49080461  0.89296141  0.16781708  1  0.023626  0  0.082699  0.111627  0  1.049474  0
H  H107  1  0.59773987  0.27484275  0.10702224  1  0.03348  0  0.082282  0.110733  0  1.049811  0
H  H108  1  0.92793004  0.16834033  0.96138982  1  0.032936  0  0.086956  0.120855  0  0.996293  0
H  H109  1  0.96644473  0.03861800  0.20692506  1  0.009715  0  0.086527  0.120401  0  0.997741  0
H  H110  1  0.75954902  0.79309952  0.83166648  1  0.009172  0  0.08681  0.120454  0  0.996052  0
H  H111  1  0.74045107  0.16833374  0.20690103  1  0.00918  0  0.086811  0.120462  0  0.99604  0
H  H112  1  0.57206969  0.03860973  0.83166012  1  0.03294  0  0.086947  0.12082  0  0.996293  0
H  H113  1  0.53355591  0.79307568  0.96138289  1  0.010357  0  0.086546  0.12043  0  0.997798  0
H  H114  1  0.07206999  0.83166011  0.03861018  1  0.032935  0  0.086955  0.120854  0  0.99628  0
H  H115  1  0.03355530  0.96138243  0.79307608  1  0.010368  0  0.086544  0.120426  0  0.997824  0
H  H116  1  0.24045035  0.20690092  0.16833391  1  0.009184  0  0.086809  0.120463  0  0.996044  0
H  H117  1  0.25954928  0.83166601  0.79309938  1  0.00918  0  0.086811  0.120461  0  0.99604  0
H  H118  1  0.42793135  0.96139140  0.16834098  1  0.03295  0  0.086948  0.120828  0  0.996304  0
H  H119  1  0.46644378  0.20692407  0.03861677  1  0.010348  0  0.086544  0.120421  0  0.997829  0
H  H120  1  0.87846064  0.28498691  0.93035660  1  0.015218  0  0.083679  0.119083  0  1.004477  0
H  H121  1  0.94806508  0.06969799  0.35464378  1  0.015919  0  0.08359  0.119283  0  1.004371  0
H  H122  1  0.59349301  0.64536973  0.71502539  1  0.013381  0  0.0835  0.119191  0  1.004114  0
H  H123  1  0.90650651  0.28497549  0.35463010  1  0.01311  0  0.083515  0.119228  0  1.004084  0
H  H124  1  0.62153926  0.06964443  0.71501457  1  0.015205  0  0.083683  0.119089  0  1.004484  0
H  H125  1  0.55193454  0.64535627  0.93030268  1  0.015929  0  0.083607  0.119327  0  1.004352  0
H  H126  1  0.12153873  0.71501353  0.06964322  1  0.015171  0  0.083684  0.119094  0  1.004456  0
H  H127  1  0.05193495  0.93030245  0.64535622  1  0.015915  0  0.083594  0.119289  0  1.004371  0
H  H128  1  0.40650703  0.35463071  0.28497518  1  0.013088  0  0.083505  0.119204  0  1.004139  0
H  H129  1  0.09349352  0.71502495  0.64536990  1  0.013105  0  0.083512  0.119238  0  1.004098  0
H  H130  1  0.37845977  0.93035531  0.28498548  1  0.015135  0  0.083676  0.119086  0  1.004462  0
H  H131  1  0.44806448  0.35464348  0.06969680  1  0.0159  0  0.0836  0.119322  0  1.004355  0
H  H132  1  0.93796812  0.27796223  0.85908377  1  0.046404  0  0.081314  0.116434  0  1.049998  0
H  H133  1  0.07883757  0.14092899  0.41885098  1  0.023745  0  0.081469  0.117267  0  1.04964  0
H  H134  1  0.66003701  0.58113313  0.72203127  1  0.030038  0  0.081177  0.117252  0  1.049108  0
H  H135  1  0.83996191  0.27796900  0.41886671  1  0.030041  0  0.081191  0.117275  0  1.049063  0
H  H136  1  0.56203235  0.14091691  0.72203921  1  0.046386  0  0.081319  0.116453  0  1.049961  0
H  H137  1  0.42116235  0.58114889  0.85907105  1  0.023736  0  0.08147  0.117274  0  1.049641  0
H  H138  1  0.06203157  0.72203752  0.14091532  1  0.046396  0  0.081319  0.116446  0  1.049988  0
H  H139  1  0.92116313  0.85907144  0.58114977  1  0.023762  0  0.081467  0.117294  0  1.049626  0
H  H140  1  0.33996201  0.41886662  0.27796878  1  0.03004  0  0.081196  0.11729  0  1.049052  0
H  H141  1  0.16003812  0.72203144  0.58113330  1  0.030033  0  0.0812  0.117315  0  1.049057  0
H  H142  1  0.43796768  0.85908353  0.27796079  1  0.046381  0  0.081309  0.11643  0  1.049976  0
H  H143  1  0.57883734  0.41885086  0.14092861  1  0.023736  0  0.08147  0.117279  0  1.049645  0
H  H144  1  0.97158002  0.38685504  0.94986181  1  0.053857  0  0.087101  0.128997  0  1.014166  0
H  H145  1  0.02168298  0.05018827  0.43700222  1  0.014144  0  0.086936  0.128734  0  1.014973  0
H  H146  1  0.58476526  0.56301918  0.61315548  1  0.019882  0  0.086976  0.129003  0  1.015145  0
H  H147  1  0.91523346  0.38684462  0.43697987  1  0.019888  0  0.086969  0.129009  0  1.015158  0
H  H148  1  0.52842126  0.05013948  0.61314748  1  0.053903  0  0.087109  0.128999  0  1.014142  0
H  H149  1  0.47831663  0.56299740  0.94981120  1  0.014155  0  0.086926  0.128729  0  1.014972  0
H  H150  1  0.02842067  0.61314540  0.05013838  1  0.053864  0  0.087089  0.128977  0  1.014155  0
H  H151  1  0.97831705  0.94981217  0.56299835  1  0.01416  0  0.086941  0.128736  0  1.014971  0
H  H152  1  0.41523377  0.43698057  0.38684457  1  0.019883  0  0.086973  0.129014  0  1.015139  0
H  H153  1  0.08476623  0.61315513  0.56301922  1  0.01988  0  0.086968  0.129009  0  1.015156  0
H  H154  1  0.47157842  0.94986026  0.38685275  1  0.053888  0  0.087101  0.128989  0  1.014145  0
H  H155  1  0.52168306  0.43700235  0.05018846  1  0.014148  0  0.086931  0.128726  0  1.014988  0
C  C156  1  0.13067967  0.35210434  0.00130298  1  -0.017814  0  0.002374  0.065661  0  3.8497  0
C  C157  1  0.12926920  0.99862552  0.35072890  1  0.009201  0  0.003016  0.067024  0  3.849004  0
C  C158  1  0.77866115  0.64926852  0.64793675  1  0.047398  0  0.003144  0.068322  0  3.849718  0
C  C159  1  0.72133893  0.35206340  0.35073142  1  0.047669  0  0.003139  0.068322  0  3.849635  0
C  C160  1  0.36932018  0.99869656  0.64789614  1  -0.017784  0  0.002383  0.065658  0  3.849717  0
C  C161  1  0.37072976  0.64926921  0.00137360  1  0.009278  0  0.00305  0.06705  0  3.849097  0
C  C162  1  0.86931902  0.64789472  0.99869616  1  -0.017693  0  0.0024  0.065699  0  3.849873  0
C  C163  1  0.87073115  0.00137423  0.64927151  1  0.009205  0  0.00303  0.067048  0  3.849007  0
C  C164  1  0.22133854  0.35073123  0.35206291  1  0.04738  0  0.003126  0.0683  0  3.849674  0
C  C165  1  0.27866211  0.64793773  0.64926968  1  0.047606  0  0.003143  0.06829  0  3.849726  0
C  C166  1  0.63068086  0.00130456  0.35210553  1  -0.01776  0  0.002387  0.065724  0  3.849848  0
C  C167  1  0.62926958  0.35072985  0.99862514  1  0.009392  0  0.003005  0.06698  0  3.849107  0
C  C168  1  0.21832115  0.41483678  0.08440141  1  0.002357  0  -0.074225  -0.119386  0  3.892687  0
C  C169  1  0.13383065  0.91552128  0.33035858  1  0.033167  0  -0.074592  -0.119758  0  3.891949  0
C  C170  1  0.80353845  0.66958817  0.58516817  1  -0.024528  0  -0.074634  -0.119908  0  3.895175  0
C  C171  1  0.69646079  0.41483334  0.33041222  1  -0.024509  0  -0.074661  -0.119935  0  3.895114  0
C  C172  1  0.28167923  0.91559853  0.58516260  1  0.002378  0  -0.074212  -0.119397  0  3.892641  0
C  C173  1  0.36616870  0.66963913  0.08447731  1  0.033158  0  -0.074577  -0.119705  0  3.892025  0
C  C174  1  0.78167854  0.58516297  0.91559825  1  0.002338  0  -0.074152  -0.119329  0  3.892584  0
C  C175  1  0.86616935  0.08447778  0.66964092  1  0.033102  0  -0.074605  -0.11974  0  3.891965  0
C  C176  1  0.19646158  0.33041227  0.41483184  1  -0.02449  0  -0.074623  -0.119885  0  3.895159  0
C  C177  1  0.30354027  0.58516916  0.66958939  1  -0.024471  0  -0.074627  -0.119897  0  3.895125  0
C  C178  1  0.71832011  0.08440053  0.41483728  1  0.002353  0  -0.074108  -0.119269  0  3.892564  0
C  C179  1  0.63383065  0.33035993  0.91552200  1  0.033157  0  -0.074587  -0.119621  0  3.89199  0
C  C180  1  0.30998469  0.45618416  0.08559112  1  -0.103899  0  -0.020898  -0.051376  0  3.995452  0
C  C181  1  0.22432518  0.91435579  0.37054756  1  -0.06525  0  -0.020994  -0.051121  0  3.993954  0
C  C182  1  0.85385259  0.62940475  0.54383144  1  -0.068199  0  -0.020978  -0.051426  0  3.996214  0
C  C183  1  0.64614778  0.45616909  0.37059474  1  -0.068164  0  -0.020967  -0.051367  0  3.996329  0
C  C184  1  0.19001446  0.91440895  0.54381506  1  -0.103877  0  -0.020879  -0.051301  0  3.995356  0
C  C185  1  0.27567590  0.62945038  0.08564342  1  -0.065233  0  -0.021025  -0.051222  0  3.994005  0
C  C186  1  0.69001433  0.54381559  0.91440836  1  -0.103993  0  -0.020973  -0.051457  0  3.995311  0
C  C187  1  0.77567414  0.08564189  0.62945068  1  -0.065215  0  -0.021018  -0.051234  0  3.993936  0
C  C188  1  0.14614810  0.37059569  0.45616931  1  -0.068299  0  -0.021011  -0.051469  0  3.996342  0
C  C189  1  0.35385527  0.54383341  0.62940627  1  -0.068061  0  -0.021045  -0.05147  0  3.996197  0
C  C190  1  0.80998523  0.08559080  0.45618517  1  -0.103693  0  -0.020966  -0.051459  0  3.995347  0
C  C191  1  0.72432376  0.37054799  0.91435573  1  -0.065247  0  -0.021031  -0.051273  0  3.993981  0
C  C192  1  0.31511147  0.43416009  0.00288019  1  0.070245  0  -0.070923  -0.095382  0  3.943382  0
C  C193  1  0.31215100  0.99707258  0.43123476  1  -0.02163  0  -0.071356  -0.096647  0  3.941537  0
C  C194  1  0.88106692  0.56877066  0.56589851  1  0.011784  0  -0.071382  -0.095985  0  3.940807  0
C  C195  1  0.61893243  0.43410160  0.43122773  1  0.01181  0  -0.071395  -0.096091  0  3.940937  0
C  C196  1  0.18488975  0.99712044  0.56584022  1  0.070226  0  -0.07089  -0.095372  0  3.943439  0
C  C197  1  0.18784839  0.56876359  0.00292759  1  -0.021512  0  -0.071369  -0.096675  0  3.941452  0
C  C198  1  0.68488687  0.56583828  0.99712031  1  0.06998  0  -0.070938  -0.095381  0  3.943298  0
C  C199  1  0.68784932  0.00292579  0.56876457  1  -0.021676  0  -0.071311  -0.096523  0  3.941559  0
C  C200  1  0.11893409  0.43122908  0.43410151  1  0.011781  0  -0.071347  -0.095936  0  3.940884  0
C  C201  1  0.38107062  0.56590091  0.56877328  1  0.012064  0  -0.071336  -0.095993  0  3.940731  0
C  C202  1  0.81511094  0.00288000  0.43416053  1  0.070053  0  -0.070905  -0.095371  0  3.943332  0
C  C203  1  0.81215161  0.43123547  0.99707134  1  -0.021617  0  -0.071387  -0.096685  0  3.941454  0
C  C204  1  0.22845887  0.37247097  0.91925600  1  -0.05195  0  -0.020472  -0.050689  0  3.992221  0
C  C205  1  0.30909228  0.08067245  0.45312930  1  -0.00853  0  -0.019798  -0.047285  0  3.991517  0
C  C206  1  0.85616108  0.54691332  0.62763808  1  -0.030198  0  -0.019605  -0.047633  0  3.993053  0
C  C207  1  0.64383752  0.37236280  0.45308529  1  -0.03015  0  -0.019579  -0.047569  0  3.993135  0
C  C208  1  0.27154221  0.08074305  0.62752987  1  -0.051959  0  -0.020495  -0.050735  0  3.992372  0
C  C209  1  0.19090735  0.54687045  0.91932730  1  -0.008465  0  -0.019779  -0.047219  0  3.991451  0
C  C210  1  0.77154013  0.62752740  0.08074297  1  -0.051893  0  -0.020449  -0.050617  0  3.992127  0
C  C211  1  0.69090905  0.91932661  0.54687170  1  -0.008537  0  -0.019855  -0.047485  0  3.991718  0
C  C212  1  0.14383826  0.45308574  0.37236180  1  -0.030222  0  -0.019598  -0.047639  0  3.993181  0
C  C213  1  0.35616291  0.62764109  0.54691550  1  -0.030356  0  -0.019564  -0.047605  0  3.993013  0
C  C214  1  0.72845845  0.91925601  0.37247037  1  -0.051961  0  -0.02051  -0.050708  0  3.992302  0
C  C215  1  0.80909234  0.45312930  0.08067179  1  -0.007979  0  -0.019781  -0.047223  0  3.99136  0
C  C216  1  0.13742962  0.33254065  0.91905347  1  -0.027108  0  -0.070243  -0.109648  0  3.888662  0
C  C217  1  0.21826913  0.08086893  0.41340231  1  -0.068596  0  -0.070511  -0.112456  0  3.891409  0
C  C218  1  0.80504944  0.58664251  0.66754851  1  -0.062341  0  -0.070688  -0.112265  0  3.89192  0
C  C219  1  0.69494822  0.33245165  0.41335609  1  -0.062592  0  -0.070659  -0.112183  0  3.891982  0
C  C220  1  0.36257186  0.08094770  0.66746134  1  -0.027115  0  -0.070256  -0.109621  0  3.888724  0
C  C221  1  0.28172940  0.58659675  0.91913098  1  -0.068718  0  -0.070564  -0.112565  0  3.891512  0
C  C222  1  0.86257007  0.66745910  0.08094619  1  -0.027201  0  -0.070313  -0.109813  0  3.888867  0
C  C223  1  0.78173153  0.91913013  0.58659907  1  -0.068653  0  -0.070508  -0.112394  0  3.891424  0
C  C224  1  0.19494959  0.41335723  0.33245097  1  -0.062339  0  -0.070701  -0.112252  0  3.891921  0
C  C225  1  0.30505184  0.66755016  0.58664385  1  -0.062303  0  -0.07067  -0.11216  0  3.891963  0
C  C226  1  0.63742817  0.91905274  0.33253980  1  -0.027097  0  -0.070263  -0.109687  0  3.888798  0
C  C227  1  0.71826995  0.41340231  0.08086834  1  -0.069145  0  -0.070508  -0.112474  0  3.891482  0
C  C228  1  0.02947040  0.30563562  0.99748103  1  0.084694  0  -0.013239  0.236984  0  3.809946  0
C  C229  1  0.03188732  0.00248757  0.30811431  1  0.07168  0  -0.01364  0.237889  0  3.809007  0
C  C230  1  0.72385737  0.69188674  0.69437369  1  0.078142  0  -0.013915  0.2366  0  3.809516  0
C  C231  1  0.77614149  0.30562706  0.30811313  1  0.078127  0  -0.013875  0.236582  0  3.809567  0
C  C232  1  0.47052991  0.00251949  0.69436525  1  0.084513  0  -0.013222  0.236993  0  3.809979  0
C  C233  1  0.46811236  0.69188621  0.99751271  1  0.071871  0  -0.013649  0.23795  0  3.80884  0
C  C234  1  0.97052862  0.69436413  0.00251845  1  0.084682  0  -0.013206  0.23698  0  3.809923  0
C  C235  1  0.96811337  0.99751287  0.69188701  1  0.071969  0  -0.013658  0.237878  0  3.808867  0
C  C236  1  0.27614165  0.30811301  0.30562693  1  0.078176  0  -0.01389  0.236594  0  3.80948  0
C  C237  1  0.22385819  0.69437269  0.69188653  1  0.078193  0  -0.013889  0.236583  0  3.809556  0
C  C238  1  0.52947046  0.99748163  0.30563567  1  0.084685  0  -0.013231  0.236904  0  3.81002  0
C  C239  1  0.53188701  0.30811423  0.00248768  1  0.071896  0  -0.013672  0.237834  0  3.808932  0
C  C240  1  0.03232886  0.34955514  0.09186475  1  -0.044877  0  -0.247777  -0.416209  0  3.898692  0
C  C241  1  0.94037767  0.90812410  0.25766649  1  -0.052851  0  -0.247566  -0.417564  0  3.899424  0
C  C242  1  0.68277867  0.74232829  0.65044125  1  -0.085252  0  -0.247691  -0.417128  0  3.899974  0
C  C243  1  0.81722232  0.34955853  0.25767179  1  -0.085179  0  -0.247714  -0.417148  0  3.899934  0
C  C244  1  0.46767089  0.90813464  0.65044487  1  -0.044887  0  -0.247784  -0.416246  0  3.898759  0
C  C245  1  0.55962136  0.74233366  0.09187548  1  -0.052821  0  -0.247568  -0.417584  0  3.899353  0
C  C246  1  0.96767083  0.65044460  0.90813434  1  -0.044882  0  -0.247772  -0.416216  0  3.898758  0
C  C247  1  0.05962236  0.09187634  0.74233351  1  -0.052869  0  -0.247569  -0.417576  0  3.899422  0
C  C248  1  0.31722168  0.25767145  0.34955859  1  -0.085172  0  -0.247675  -0.41711  0  3.899846  0
C  C249  1  0.18277737  0.65044121  0.74232787  1  -0.085224  0  -0.247709  -0.417168  0  3.899876  0
C  C250  1  0.53232980  0.09186580  0.34955588  1  -0.044913  0  -0.247772  -0.416147  0  3.89876  0
C  C251  1  0.44037801  0.25766678  0.90812434  1  -0.052851  0  -0.24759  -0.417579  0  3.89943  0
C  C252  1  0.99962731  0.20265109  0.96305201  1  -0.092202  0  -0.241985  -0.413841  0  3.899897  0
C  C253  1  0.03647525  0.03693637  0.23957319  1  -0.065231  0  -0.241392  -0.412727  0  3.90035  0
C  C254  1  0.79695577  0.76045235  0.79736051  1  -0.04374  0  -0.24173  -0.412385  0  3.896998  0
C  C255  1  0.70304336  0.20263910  0.23954733  1  -0.043745  0  -0.241732  -0.412355  0  3.896976  0
C  C256  1  0.50037208  0.03694803  0.79734931  1  -0.092179  0  -0.241969  -0.413758  0  3.899897  0
C  C257  1  0.46352476  0.76042671  0.96306354  1  -0.065857  0  -0.241408  -0.412768  0  3.900402  0
C  C258  1  0.00037272  0.79734935  0.03694856  1  -0.092066  0  -0.242  -0.413851  0  3.899893  0
C  C259  1  0.96352545  0.96306407  0.76042756  1  -0.065899  0  -0.241407  -0.412779  0  3.900426  0
C  C260  1  0.20304326  0.23954740  0.20263897  1  -0.043833  0  -0.241741  -0.412366  0  3.896974  0
C  C261  1  0.29695667  0.79736134  0.76045268  1  -0.043736  0  -0.24173  -0.412344  0  3.896948  0
C  C262  1  0.49962795  0.96305241  0.20265126  1  -0.09207  0  -0.24199  -0.413813  0  3.899878  0
C  C263  1  0.53647458  0.23957235  0.03693577  1  -0.065869  0  -0.241397  -0.412747  0  3.900415  0
C  C264  1  0.95008019  0.31438756  0.93004812  1  -0.095055  0  -0.249206  -0.417492  0  3.880278  0
C  C265  1  0.01998552  0.06996869  0.38432852  1  -0.020503  0  -0.249081  -0.419053  0  3.881227  0
C  C266  1  0.63573095  0.61568276  0.68561815  1  -0.033049  0  -0.248843  -0.418933  0  3.88056  0
C  C267  1  0.86426865  0.31438265  0.38431705  1  -0.032747  0  -0.24889  -0.419024  0  3.880541  0
C  C268  1  0.54992081  0.06995275  0.68561357  1  -0.094899  0  -0.249244  -0.417543  0  3.880237  0
C  C269  1  0.48001621  0.61567234  0.93003212  1  -0.020715  0  -0.2491  -0.419124  0  3.881173  0
C  C270  1  0.04992051  0.68561288  0.06995207  1  -0.095  0  -0.249219  -0.417487  0  3.880184  0
C  C271  1  0.98001517  0.93003174  0.61567223  1  -0.020722  0  -0.2491  -0.419101  0  3.881176  0
C  C272  1  0.36426940  0.38431699  0.31438226  1  -0.032734  0  -0.24888  -0.41902  0  3.880564  0
C  C273  1  0.13573104  0.68561710  0.61568204  1  -0.03274  0  -0.248883  -0.41907  0  3.880579  0
C  C274  1  0.45007922  0.93004769  0.31438701  1  -0.094991  0  -0.249212  -0.417469  0  3.880198  0
C  C275  1  0.51998382  0.38432810  0.06996845  1  -0.020704  0  -0.249102  -0.419106  0  3.881276  0
C  C276  1  0.40245232  0.52641396  0.17416779  1  1.539791  0  0.230345  0.608852  0  4.143247  0
C  C277  1  0.22826943  0.82579785  0.35220221  1  1.540401  0  0.230723  0.609455  0  4.140363  0
C  C278  1  0.87607678  0.64772130  0.47358250  1  1.547962  0  0.23012  0.608086  0  4.143326  0
C  C279  1  0.62392202  0.52641775  0.35227819  1  1.547981  0  0.230132  0.608153  0  4.143336  0
C  C280  1  0.09754786  0.82583080  0.47358497  1  1.539813  0  0.230312  0.608781  0  4.143242  0
C  C281  1  0.27173065  0.64779627  0.17420217  1  1.54058  0  0.230697  0.609465  0  4.140577  0
C  C282  1  0.59754570  0.47358510  0.82583116  1  1.540117  0  0.230327  0.60879  0  4.143284  0
C  C283  1  0.77173126  0.17420259  0.64779741  1  1.540357  0  0.230723  0.609504  0  4.140391  0
C  C284  1  0.12392325  0.35227914  0.52641751  1  1.547943  0  0.230116  0.608068  0  4.143362  0
C  C285  1  0.37607805  0.47358406  0.64772118  1  1.547688  0  0.230139  0.608102  0  4.143285  0
C  C286  1  0.90245249  0.17416895  0.52641543  1  1.539792  0  0.230339  0.608869  0  4.143241  0
C  C287  1  0.72826904  0.35220348  0.82579749  1  1.540534  0  0.230692  0.609443  0  4.140427  0
C  C288  1  0.23391021  0.35268524  0.83109508  1  1.547966  0  0.230455  0.612882  0  4.136494  0
C  C289  1  0.40269830  0.16886035  0.52147362  1  1.56847  0  0.231146  0.612428  0  4.131608  0
C  C290  1  0.88136298  0.47851169  0.64741246  1  1.551185  0  0.231504  0.612509  0  4.135222  0
C  C291  1  0.61863571  0.35258929  0.52148897  1  1.551209  0  0.231464  0.612427  0  4.135229  0
C  C292  1  0.26610061  0.16890759  0.64732203  1  1.547893  0  0.23055  0.612846  0  4.136192  0
C  C293  1  0.09729951  0.47852643  0.83114249  1  1.568259  0  0.231215  0.612529  0  4.131559  0
C  C294  1  0.76609014  0.64731451  0.16890475  1  1.547958  0  0.230445  0.612882  0  4.136498  0
C  C295  1  0.59730533  0.83113802  0.47852719  1  1.568396  0  0.231276  0.612608  0  4.131375  0
C  C296  1  0.11863671  0.52148806  0.35258663  1  1.551227  0  0.231522  0.61252  0  4.135247  0
C  C297  1  0.38136337  0.64741321  0.47851152  1  1.551084  0  0.231544  0.612603  0  4.135022  0
C  C298  1  0.73390008  0.83109285  0.35267872  1  1.547893  0  0.23058  0.612841  0  4.136251  0
C  C299  1  0.90270052  0.52147401  0.16885751  1  1.568258  0  0.231199  0.612517  0  4.131537  0
O  O300  1  0.48173402  0.56167790  0.16885403  1  -1.185134  0  -0.307132  -0.536168  0  2.393156  0
O  O301  1  0.31288754  0.83115135  0.39277458  1  -1.175617  0  -0.307853  -0.537231  0  2.392193  0
O  O302  1  0.92010766  0.60714838  0.43833712  1  -1.181926  0  -0.307645  -0.536197  0  2.393513  0
O  O303  1  0.57989001  0.56166116  0.39284837  1  -1.181949  0  -0.307626  -0.536251  0  2.393656  0
O  O304  1  0.01826611  0.83114369  0.43832259  1  -1.185114  0  -0.307118  -0.536111  0  2.393136  0
O  O305  1  0.18711772  0.60722578  0.16885056  1  -1.175927  0  -0.307798  -0.537169  0  2.392402  0
O  O306  1  0.51826671  0.43832391  0.83114496  1  -1.185161  0  -0.307122  -0.536118  0  2.393273  0
O  O307  1  0.68711413  0.16884840  0.60722448  1  -1.175611  0  -0.307804  -0.537174  0  2.392267  0
O  O308  1  0.07989303  0.39285206  0.56166363  1  -1.181921  0  -0.307643  -0.536201  0  2.393545  0
O  O309  1  0.42010867  0.43833790  0.60714905  1  -1.181926  0  -0.307664  -0.536223  0  2.393582  0
O  O310  1  0.98173389  0.16885537  0.56167690  1  -1.185122  0  -0.307147  -0.536173  0  2.393167  0
O  O311  1  0.81288231  0.39277466  0.83114831  1  -1.176204  0  -0.307784  -0.537146  0  2.392356  0
O  O312  1  0.39510539  0.54688978  0.24899312  1  -1.166073  0  -0.311049  -0.55577  0  2.414488  0
O  O313  1  0.14611560  0.75096646  0.29786277  1  -1.167488  0  -0.311044  -0.555776  0  2.413915  0
O  O314  1  0.84822990  0.70204978  0.45309730  1  -1.162932  0  -0.31077  -0.555394  0  2.414478  0
O  O315  1  0.65177023  0.54690374  0.29794886  1  -1.163175  0  -0.310788  -0.555409  0  2.414398  0
O  O316  1  0.10489492  0.75100605  0.45311066  1  -1.16611  0  -0.31105  -0.555782  0  2.414433  0
O  O317  1  0.35388804  0.70213662  0.24903251  1  -1.167384  0  -0.311047  -0.555807  0  2.413965  0
O  O318  1  0.60489465  0.45311066  0.75100688  1  -1.166075  0  -0.311014  -0.555722  0  2.414468  0
O  O319  1  0.85388473  0.24903191  0.70213599  1  -1.167432  0  -0.311029  -0.555768  0  2.413932  0
O  O320  1  0.15177011  0.29794927  0.54690219  1  -1.162934  0  -0.310767  -0.555365  0  2.414422  0
O  O321  1  0.34822880  0.45309601  0.70204948  1  -1.16314  0  -0.310758  -0.555378  0  2.414388  0
O  O322  1  0.89510508  0.24899301  0.54689054  1  -1.166089  0  -0.311063  -0.555818  0  2.414495  0
O  O323  1  0.64611128  0.29786106  0.75096516  1  -1.167054  0  -0.311046  -0.555767  0  2.413863  0
O  O324  1  0.32030848  0.38717948  0.83726017  1  -1.172006  0  -0.306318  -0.53723  0  2.389773  0
O  O325  1  0.48296274  0.16271313  0.54974418  1  -1.178219  0  -0.306835  -0.537624  0  2.388762  0
O  O326  1  0.93325991  0.45015074  0.61292210  1  -1.180842  0  -0.307104  -0.537828  0  2.38874  0
O  O327  1  0.56674136  0.38707784  0.54985037  1  -1.180874  0  -0.307095  -0.537798  0  2.388892  0
O  O328  1  0.17969741  0.16274600  0.61282345  1  -1.171743  0  -0.306366  -0.537217  0  2.389386  0
O  O329  1  0.01703739  0.45025406  0.83728711  1  -1.17831  0  -0.306832  -0.537654  0  2.388885  0
O  O330  1  0.67969155  0.61282095  0.16273926  1  -1.171995  0  -0.306288  -0.537226  0  2.389784  0
O  O331  1  0.51703753  0.83728248  0.45025243  1  -1.178063  0  -0.30694  -0.537742  0  2.388631  0
O  O332  1  0.06674012  0.54984969  0.38707790  1  -1.180836  0  -0.307139  -0.53787  0  2.388795  0
O  O333  1  0.43326010  0.61292811  0.45015090  1  -1.180698  0  -0.307159  -0.537874  0  2.388828  0
O  O334  1  0.82030294  0.83725375  0.38717582  1  -1.171741  0  -0.306386  -0.537257  0  2.389449  0
O  O335  1  0.98296198  0.54974638  0.16271328  1  -1.178302  0  -0.306834  -0.537637  0  2.388895  0
O  O336  1  0.15156074  0.30337348  0.75643958  1  -1.167319  0  -0.311146  -0.554771  0  2.416693  0
O  O337  1  0.39496059  0.24349581  0.54684279  1  -1.163942  0  -0.310926  -0.554096  0  2.41245  0
O  O338  1  0.84827079  0.45316327  0.69669462  1  -1.162259  0  -0.311161  -0.553912  0  2.414192  0
O  O339  1  0.65173186  0.30330726  0.54683863  1  -1.162436  0  -0.311133  -0.553867  0  2.414083  0
O  O340  1  0.34844738  0.24356092  0.69663658  1  -1.167548  0  -0.311208  -0.554752  0  2.416691  0
O  O341  1  0.10503747  0.45315919  0.75650324  1  -1.163869  0  -0.310985  -0.554203  0  2.412399  0
O  O342  1  0.84843829  0.69662627  0.24355933  1  -1.167313  0  -0.311133  -0.554767  0  2.416751  0
O  O343  1  0.60504303  0.75650256  0.45316086  1  -1.164024  0  -0.310965  -0.554155  0  2.412446  0
O  O344  1  0.15172856  0.54683579  0.30330412  1  -1.162283  0  -0.311158  -0.55391  0  2.414247  0
O  O345  1  0.34826288  0.69669318  0.45315879  1  -1.162529  0  -0.311143  -0.553955  0  2.414036  0
O  O346  1  0.65155328  0.75643814  0.30336480  1  -1.167563  0  -0.311219  -0.554739  0  2.41672  0
O  O347  1  0.89496055  0.54683987  0.24349571  1  -1.163865  0  -0.310965  -0.554199  0  2.41236  0
