# generated using pymatgen
data_CuH8C11SN4
_symmetry_space_group_name_H-M   'P 1'
_cell_length_a   9.20889117
_cell_length_b   11.30542525
_cell_length_c   11.30550586
_cell_angle_alpha   91.18650491
_cell_angle_beta   101.84974384
_cell_angle_gamma   101.85017572
_symmetry_Int_Tables_number   1
_chemical_formula_structural   CuH8C11SN4
_chemical_formula_sum   'Cu4 H32 C44 S4 N16'
_cell_volume   1124.95635115
_cell_formula_units_Z   4
loop_
 _symmetry_equiv_pos_site_id
 _symmetry_equiv_pos_as_xyz
  1  'x, y, z'
loop_
 _atom_site_type_symbol
 _atom_site_label
 _atom_site_symmetry_multiplicity
 _atom_site_fract_x
 _atom_site_fract_y
 _atom_site_fract_z
 _atom_site_occupancy
 _atom_site_pbe_bader_spin_density
 _atom_site_pbe_cm5_charge
 _atom_site_pbe_ddec_charge
 _atom_site_pbe_ddec_spin_density
 _atom_site_pbe_ddec_sum_bond_order
 _atom_site_pbe_magmom
Cu  Cu0  1  0.26745206  0.75471518  0.85121671  1  0  0.498935  0.319814  0  2.676751  0
Cu  Cu1  1  0.23252803  0.14878171  0.24528576  1  0  0.498903  0.319679  0  2.676657  0
Cu  Cu2  1  0.73252776  0.24528219  0.14878382  1  0  0.498885  0.319831  0  2.676376  0
Cu  Cu3  1  0.76745075  0.85121200  0.75470479  1  0  0.498822  0.319764  0  2.676302  0
H  H4  1  0.59284127  0.07429287  0.83232971  1  0  0.111524  0.078217  0  1.002743  0
H  H5  1  0.90716828  0.16767154  0.92571002  1  0  0.111526  0.078251  0  1.002776  0
H  H6  1  0.40717254  0.92571196  0.16766669  1  0  0.1115  0.078247  0  1.002842  0
H  H7  1  0.09284514  0.83232700  0.07429680  1  0  0.111548  0.078279  0  1.002742  0
H  H8  1  0.46395579  0.18915858  0.95594875  1  0  0.103914  0.125521  0  1.043068  0
H  H9  1  0.03603840  0.04404659  0.81083922  1  0  0.103892  0.125479  0  1.043135  0
H  H10  1  0.53605289  0.81084350  0.04404765  1  0  0.103919  0.125484  0  1.043084  0
H  H11  1  0.96395911  0.95595089  0.18915530  1  0  0.103898  0.12551  0  1.043105  0
H  H12  1  0.29653573  0.26329392  0.01215624  1  0  0.10172  0.097546  0  1.044784  0
H  H13  1  0.20346809  0.98784322  0.73671199  1  0  0.101791  0.097715  0  1.044606  0
H  H14  1  0.70347071  0.73670364  0.98784236  1  0  0.101688  0.097529  0  1.044616  0
H  H15  1  0.79653642  0.01215975  0.26328818  1  0  0.10178  0.097688  0  1.044595  0
H  H16  1  0.17327584  0.39817566  0.11554263  1  0  0.102524  0.110405  0  1.032597  0
H  H17  1  0.32672218  0.88445610  0.60182418  1  0  0.102507  0.110375  0  1.032581  0
H  H18  1  0.82672567  0.60181554  0.88445860  1  0  0.10252  0.110438  0  1.032655  0
H  H19  1  0.67328056  0.11554865  0.39817397  1  0  0.102481  0.110341  0  1.032633  0
H  H20  1  0.16567043  0.60388661  0.04360940  1  0  0.10616  0.071155  0  1.072228  0
H  H21  1  0.33432251  0.95638604  0.39611126  1  0  0.106173  0.071146  0  1.072163  0
H  H22  1  0.83432801  0.39610548  0.95639401  1  0  0.106162  0.071131  0  1.072224  0
H  H23  1  0.66567372  0.04361505  0.60388489  1  0  0.106199  0.071163  0  1.072214  0
H  H24  1  0.40417487  0.55132858  0.77847114  1  0  0.115095  0.090512  0  1.006788  0
H  H25  1  0.09582028  0.22152281  0.44867515  1  0  0.115109  0.090579  0  1.006733  0
H  H26  1  0.59582791  0.44867619  0.22153056  1  0  0.115116  0.09057  0  1.006731  0
H  H27  1  0.90417819  0.77847380  0.55132658  1  0  0.115078  0.090508  0  1.006688  0
H  H28  1  0.42360597  0.44027476  0.37262705  1  0  0.097434  0.110731  0  1.005834  0
H  H29  1  0.07638972  0.62737499  0.55972696  1  0  0.097495  0.110856  0  1.005812  0
H  H30  1  0.57638965  0.55972814  0.62737169  1  0  0.09748  0.110821  0  1.005777  0
H  H31  1  0.92360969  0.37262525  0.44027587  1  0  0.097481  0.110769  0  1.005787  0
H  H32  1  0.34545600  0.41717006  0.50445326  1  0  0.096084  0.106433  0  1.024691  0
H  H33  1  0.15454155  0.49554631  0.58283287  1  0  0.096088  0.106481  0  1.024673  0
H  H34  1  0.65454226  0.58283015  0.49554586  1  0  0.096091  0.106462  0  1.024677  0
H  H35  1  0.84545872  0.50445302  0.41716832  1  0  0.096075  0.106428  0  1.024681  0
C  C36  1  0.52387918  0.28468627  0.64989867  1  0  0.239866  0.319614  0  4.090487  0
C  C37  1  0.97612257  0.35010544  0.71531770  1  0  0.239971  0.319758  0  4.090386  0
C  C38  1  0.47612715  0.71531942  0.35010184  1  0  0.239939  0.319696  0  4.090181  0
C  C39  1  0.02388469  0.64989938  0.28468825  1  0  0.240007  0.319861  0  4.090469  0
C  C40  1  0.55258633  0.15445805  0.79908672  1  0  0.06019  0.150818  0  3.976937  0
C  C41  1  0.94741977  0.20091532  0.84554593  1  0  0.060141  0.150764  0  3.977017  0
C  C42  1  0.44742687  0.84554859  0.20091226  1  0  0.060161  0.150655  0  3.977332  0
C  C43  1  0.05259101  0.79908591  0.15445963  1  0  0.060138  0.150723  0  3.976846  0
C  C44  1  0.47948044  0.21735772  0.86720690  1  0  -0.095616  -0.24322  0  3.929235  0
C  C45  1  0.02051699  0.13279241  0.78264396  1  0  -0.095603  -0.243206  0  3.929401  0
C  C46  1  0.52052650  0.78264616  0.13279103  1  0  -0.095683  -0.243171  0  3.929503  0
C  C47  1  0.97948191  0.86720600  0.21735523  1  0  -0.09562  -0.243223  0  3.929304  0
C  C48  1  0.43318850  0.32003242  0.81839660  1  0  0.131104  0.25128  0  4.008111  0
C  C49  1  0.06680595  0.18160067  0.67996976  1  0  0.131127  0.251282  0  4.008124  0
C  C50  1  0.56681714  0.67997056  0.18160463  1  0  0.131105  0.251104  0  4.008158  0
C  C51  1  0.93318826  0.81839679  0.32002777  1  0  0.131175  0.251316  0  4.008084  0
C  C52  1  0.35890630  0.39580408  0.88438901  1  0  -0.004485  -0.009303  0  3.956367  0
C  C53  1  0.14109041  0.11560844  0.60419854  1  0  -0.004521  -0.009261  0  3.956281  0
C  C54  1  0.64109258  0.60419432  0.11560840  1  0  -0.004454  -0.009184  0  3.956402  0
C  C55  1  0.85890873  0.88439087  0.39580070  1  0  -0.004506  -0.009244  0  3.956381  0
C  C56  1  0.29486276  0.35401146  0.98212777  1  0  -0.063504  -0.060605  0  3.918382  0
C  C57  1  0.20514453  0.01787206  0.64599751  1  0  -0.063516  -0.060774  0  3.918263  0
C  C58  1  0.70513812  0.64598606  0.01787083  1  0  -0.063433  -0.060471  0  3.918188  0
C  C59  1  0.79486087  0.98213001  0.35400367  1  0  -0.063543  -0.060825  0  3.918265  0
C  C60  1  0.22593424  0.42921196  0.04063115  1  0  -0.082861  -0.11129  0  3.949076  0
C  C61  1  0.27406648  0.95937160  0.57079058  1  0  -0.082863  -0.111233  0  3.949297  0
C  C62  1  0.77406840  0.57078376  0.95936770  1  0  -0.082893  -0.111456  0  3.949141  0
C  C63  1  0.72593492  0.04063224  0.42920733  1  0  -0.082867  -0.111176  0  3.94921  0
C  C64  1  0.22084413  0.54379910  0.00008088  1  0  0.042198  0.092699  0  3.914809  0
C  C65  1  0.27914972  0.99991406  0.45620375  1  0  0.042122  0.092641  0  3.914679  0
C  C66  1  0.77915809  0.45619482  0.99992141  1  0  0.042217  0.092802  0  3.914482  0
C  C67  1  0.72084408  0.00008611  0.54379376  1  0  0.042185  0.092692  0  3.914679  0
C  C68  1  0.35202980  0.51380802  0.85162553  1  0  0.04941  0.061982  0  3.89138  0
C  C69  1  0.14796622  0.14836714  0.48619501  1  0  0.049332  0.061787  0  3.891599  0
C  C70  1  0.64796917  0.48619491  0.14837463  1  0  0.049343  0.061872  0  3.891613  0
C  C71  1  0.85202981  0.85163305  0.51380286  1  0  0.049395  0.061886  0  3.891609  0
C  C72  1  0.45147751  0.43922498  0.47175284  1  0  -0.154313  -0.183873  0  3.956128  0
C  C73  1  0.04852501  0.52825013  0.56077659  1  0  -0.154395  -0.18414  0  3.956271  0
C  C74  1  0.54852457  0.56077708  0.52824869  1  0  -0.154379  -0.184074  0  3.956246  0
C  C75  1  0.95148064  0.47175285  0.43922554  1  0  -0.154367  -0.183943  0  3.956085  0
C  C76  1  0.58259267  0.83549556  0.79663504  1  0  -0.063225  -0.143714  0  3.944968  0
C  C77  1  0.91738465  0.20335044  0.16448716  1  0  -0.063347  -0.143849  0  3.945377  0
C  C78  1  0.41737663  0.16449173  0.20334767  1  0  -0.063303  -0.143697  0  3.94554  0
C  C79  1  0.08260669  0.79664431  0.83551428  1  0  -0.063376  -0.143833  0  3.945124  0
S  S80  1  0.54854457  0.31582547  0.50317030  1  0  0.040867  0.008463  0  2.699958  0
S  S81  1  0.95144951  0.49683129  0.68417175  1  0  0.040836  0.008464  0  2.699935  0
S  S82  1  0.45145526  0.68417656  0.49682821  1  0  0.040856  0.008491  0  2.699882  0
S  S83  1  0.04855187  0.50316805  0.31582962  1  0  0.040826  0.008361  0  2.699964  0
N  N84  1  0.45639111  0.35395281  0.70888022  1  0  -0.312445  -0.372989  0  3.290493  0
N  N85  1  0.04360817  0.29112264  0.64605004  1  0  -0.312502  -0.372963  0  3.290296  0
N  N86  1  0.54361721  0.64605200  0.29112149  1  0  -0.312494  -0.372945  0  3.29043  0
N  N87  1  0.95639568  0.70887762  0.35395263  1  0  -0.312506  -0.373019  0  3.290338  0
N  N88  1  0.57555290  0.18646391  0.69019525  1  0  -0.315139  -0.32794  0  3.312077  0
N  N89  1  0.92445520  0.30980901  0.81353955  1  0  -0.315101  -0.32799  0  3.312126  0
N  N90  1  0.42446028  0.81354272  0.30980196  1  0  -0.315062  -0.327838  0  3.312075  0
N  N91  1  0.07555608  0.69019404  0.18646967  1  0  -0.315188  -0.32804  0  3.312123  0
N  N92  1  0.28429840  0.58606847  0.90736547  1  0  -0.354496  -0.214082  0  3.661197  0
N  N93  1  0.21569196  0.09263289  0.41393660  1  0  -0.3544  -0.213945  0  3.661167  0
N  N94  1  0.71569992  0.41393176  0.09263896  1  0  -0.354505  -0.214121  0  3.661034  0
N  N95  1  0.78430138  0.90736547  0.58606081  1  0  -0.354467  -0.214019  0  3.661107  0
N  N96  1  0.46072452  0.81579365  0.81938778  1  0  -0.450837  -0.328097  0  3.692021  0
N  N97  1  0.03925440  0.18060432  0.18419677  1  0  -0.450754  -0.327957  0  3.692264  0
N  N98  1  0.53925366  0.18419738  0.18061059  1  0  -0.450798  -0.328105  0  3.692245  0
N  N99  1  0.96072852  0.81939217  0.81580335  1  0  -0.450737  -0.32806  0  3.691697  0
