# generated using pymatgen
data_LuH6(C2N3)3
_symmetry_space_group_name_H-M   'P 1'
_cell_length_a   9.15253188
_cell_length_b   9.15255404
_cell_length_c   12.45653242
_cell_angle_alpha   91.33231104
_cell_angle_beta   91.33175720
_cell_angle_gamma   118.67674874
_symmetry_Int_Tables_number   1
_chemical_formula_structural   LuH6(C2N3)3
_chemical_formula_sum   'Lu4 H24 C24 N36'
_cell_volume   914.52892842
_cell_formula_units_Z   4
loop_
 _symmetry_equiv_pos_site_id
 _symmetry_equiv_pos_as_xyz
  1  'x, y, z'
loop_
 _atom_site_type_symbol
 _atom_site_label
 _atom_site_symmetry_multiplicity
 _atom_site_fract_x
 _atom_site_fract_y
 _atom_site_fract_z
 _atom_site_occupancy
 _atom_site_hle17_bader_spin_density
 _atom_site_hle17_ddec_charge
 _atom_site_hle17_ddec_spin_density
 _atom_site_hle17_ddec_sum_bond_order
 _atom_site_hle17_magmom
 _atom_site_hse06_10hf_bader_spin_density
 _atom_site_hse06_10hf_ddec_charge
 _atom_site_hse06_10hf_ddec_spin_density
 _atom_site_hse06_10hf_ddec_sum_bond_order
 _atom_site_hse06_10hf_magmom
 _atom_site_hse06_bader_spin_density
 _atom_site_hse06_ddec_charge
 _atom_site_hse06_ddec_spin_density
 _atom_site_hse06_ddec_sum_bond_order
 _atom_site_hse06_magmom
 _atom_site_pbe_bader_spin_density
 _atom_site_pbe_cm5_charge
 _atom_site_pbe_ddec_charge
 _atom_site_pbe_ddec_spin_density
 _atom_site_pbe_ddec_sum_bond_order
 _atom_site_pbe_magmom
Lu  Lu0  1  0.52011072  0.25860915  0.42782764  1  0  1.365876  0  2.806476  0  0  1.153181  0  3.307109  0  0  1.207352  0  3.275486  0  0  1.594647  1.11367  0  3.329478  0
Lu  Lu1  1  0.74138553  0.47989185  0.07216943  1  0  1.365949  0  2.806482  0  0  1.153271  0  3.307011  0  0  1.207399  0  3.275471  0  0  1.594589  1.113718  0  3.32943  0
Lu  Lu2  1  0.47989453  0.74139044  0.57217084  1  0  1.365841  0  2.806625  0  0  1.153079  0  3.307223  0  0  1.207268  0  3.275616  0  0  1.594606  1.113571  0  3.329615  0
Lu  Lu3  1  0.25861059  0.52011147  0.92782655  1  0  1.366095  0  2.80622  0  0  1.153455  0  3.30665  0  0  1.207517  0  3.275165  0  0  1.594641  1.113893  0  3.329083  0
H  H4  1  0.21894907  0.29262829  0.23812793  1  0  0.10663  0  0.965561  0  0  0.114685  0  1.030198  0  0  0.116542  0  1.030475  0  0  0.121645  0.113351  0  1.030035  0
H  H5  1  0.70736943  0.78105618  0.26187123  1  0  0.106651  0  0.965548  0  0  0.11466  0  1.030236  0  0  0.116537  0  1.030494  0  0  0.121604  0.113341  0  1.030061  0
H  H6  1  0.78105767  0.70736756  0.76187051  1  0  0.106653  0  0.965534  0  0  0.114694  0  1.030202  0  0  0.116535  0  1.030494  0  0  0.121607  0.113343  0  1.030054  0
H  H7  1  0.29263445  0.21894963  0.73812572  1  0  0.10667  0  0.965531  0  0  0.114721  0  1.030177  0  0  0.116583  0  1.030451  0  0  0.121645  0.113392  0  1.03001  0
H  H8  1  0.12900190  0.54103221  0.27433474  1  0  0.111162  0  0.962353  0  0  0.117872  0  1.025039  0  0  0.120178  0  1.024631  0  0  0.121624  0.116767  0  1.024492  0
H  H9  1  0.45896614  0.87100164  0.22566401  1  0  0.111245  0  0.962219  0  0  0.11791  0  1.024956  0  0  0.120209  0  1.024551  0  0  0.121613  0.116794  0  1.024421  0
H  H10  1  0.87100035  0.45896114  0.72566198  1  0  0.111232  0  0.96221  0  0  0.117925  0  1.024933  0  0  0.120221  0  1.024539  0  0  0.1216  0.116807  0  1.024407  0
H  H11  1  0.54103206  0.12899919  0.77433358  1  0  0.111214  0  0.962337  0  0  0.117916  0  1.025022  0  0  0.120215  0  1.024621  0  0  0.121619  0.116803  0  1.024489  0
H  H12  1  0.90013183  0.25816511  0.33626123  1  0  0.101897  0  0.977326  0  0  0.106844  0  1.047388  0  0  0.10916  0  1.046613  0  0  0.120156  0.10505  0  1.048418  0
H  H13  1  0.74182949  0.09987147  0.16373771  1  0  0.101947  0  0.977202  0  0  0.106862  0  1.04731  0  0  0.109198  0  1.046514  0  0  0.12017  0.105102  0  1.048303  0
H  H14  1  0.09987055  0.74183075  0.66374116  1  0  0.101929  0  0.977285  0  0  0.106863  0  1.047367  0  0  0.10918  0  1.0466  0  0  0.120155  0.105086  0  1.048379  0
H  H15  1  0.25817281  0.90013560  0.83626486  1  0  0.101918  0  0.977265  0  0  0.106868  0  1.047325  0  0  0.109188  0  1.046536  0  0  0.120172  0.105051  0  1.048377  0
H  H16  1  0.97667887  0.01052110  0.39903795  1  0  0.102924  0  0.971763  0  0  0.109927  0  1.037834  0  0  0.11236  0  1.037139  0  0  0.118056  0.108198  0  1.038516  0
H  H17  1  0.98947807  0.02332488  0.10095830  1  0  0.102988  0  0.971709  0  0  0.109987  0  1.037797  0  0  0.112419  0  1.037094  0  0  0.118082  0.10825  0  1.038478  0
H  H18  1  0.02332203  0.98947849  0.60096447  1  0  0.102952  0  0.971727  0  0  0.109974  0  1.037791  0  0  0.112409  0  1.037092  0  0  0.118067  0.108236  0  1.038479  0
H  H19  1  0.01052363  0.97668094  0.89904102  1  0  0.102961  0  0.971745  0  0  0.109989  0  1.037808  0  0  0.11243  0  1.037095  0  0  0.118061  0.108256  0  1.038485  0
H  H20  1  0.15241500  0.89545771  0.16023239  1  0  0.111367  0  0.972174  0  0  0.117509  0  1.038427  0  0  0.120409  0  1.0368  0  0  0.122385  0.115353  0  1.039792  0
H  H21  1  0.10453933  0.84757951  0.33977058  1  0  0.111355  0  0.972191  0  0  0.117491  0  1.038438  0  0  0.120373  0  1.036847  0  0  0.12238  0.11533  0  1.039801  0
H  H22  1  0.84758261  0.10454189  0.83977078  1  0  0.111364  0  0.972162  0  0  0.117539  0  1.038359  0  0  0.120432  0  1.036747  0  0  0.122388  0.115376  0  1.03973  0
H  H23  1  0.89545451  0.15242132  0.66023014  1  0  0.111333  0  0.972123  0  0  0.117488  0  1.038345  0  0  0.120365  0  1.036772  0  0  0.122394  0.115322  0  1.039723  0
H  H24  1  0.35778081  0.09523636  0.00298633  1  0  0.100491  0  0.989497  0  0  0.108537  0  1.054723  0  0  0.110313  0  1.055024  0  0  0.121126  0.106644  0  1.055688  0
H  H25  1  0.90476426  0.64221309  0.49701792  1  0  0.100443  0  0.989615  0  0  0.108522  0  1.054802  0  0  0.110318  0  1.055055  0  0  0.121103  0.106637  0  1.055757  0
H  H26  1  0.64221215  0.90476947  0.99701606  1  0  0.1005  0  0.989496  0  0  0.108589  0  1.054668  0  0  0.110377  0  1.054936  0  0  0.121107  0.106682  0  1.055668  0
H  H27  1  0.09523326  0.35778401  0.50298441  1  0  0.100506  0  0.989549  0  0  0.10859  0  1.054732  0  0  0.110381  0  1.055004  0  0  0.121136  0.106697  0  1.055702  0
C  C28  1  0.26293124  0.39201179  0.29937727  1  0  0.007642  0  3.672619  0  0  -0.032718  0  3.945769  0  0  -0.029538  0  3.961816  0  0  0.01821  -0.034606  0  3.934988  0
C  C29  1  0.60798893  0.73707560  0.20062056  1  0  0.007611  0  3.672722  0  0  -0.032695  0  3.945848  0  0  -0.029519  0  3.961855  0  0  0.018256  -0.034603  0  3.935059  0
C  C30  1  0.73707620  0.60798780  0.70061964  1  0  0.007582  0  3.672672  0  0  -0.03277  0  3.945822  0  0  -0.029555  0  3.961851  0  0  0.018252  -0.034624  0  3.935022  0
C  C31  1  0.39201445  0.26293146  0.79937720  1  0  0.007535  0  3.672656  0  0  -0.032832  0  3.945828  0  0  -0.029664  0  3.961866  0  0  0.018179  -0.034719  0  3.935045  0
C  C32  1  0.21763176  0.51533937  0.31766852  1  0  -0.006587  0  3.712634  0  0  -0.037069  0  3.985603  0  0  -0.0359  0  4.001374  0  0  0.01308  -0.03776  0  3.974145  0
C  C33  1  0.48466028  0.78237138  0.18232903  1  0  -0.006624  0  3.712578  0  0  -0.03705  0  3.985529  0  0  -0.035884  0  4.001294  0  0  0.013128  -0.037759  0  3.974093  0
C  C34  1  0.78237289  0.48465896  0.68232672  1  0  -0.006651  0  3.712366  0  0  -0.037145  0  3.985351  0  0  -0.03599  0  4.001133  0  0  0.013062  -0.037851  0  3.973919  0
C  C35  1  0.51533901  0.21762945  0.81766776  1  0  -0.006616  0  3.712677  0  0  -0.037048  0  3.985601  0  0  -0.035864  0  4.001367  0  0  0.013105  -0.037766  0  3.974179  0
C  C36  1  0.83017226  0.14843758  0.38203017  1  0  -0.009358  0  3.725679  0  0  -0.044079  0  3.993377  0  0  -0.04103  0  4.009437  0  0  0.016085  -0.046295  0  3.983273  0
C  C37  1  0.85156049  0.16982881  0.11796623  1  0  -0.009333  0  3.725652  0  0  -0.044065  0  3.993383  0  0  -0.041008  0  4.009459  0  0  0.016097  -0.046301  0  3.983273  0
C  C38  1  0.16982694  0.85156076  0.61796899  1  0  -0.009414  0  3.725835  0  0  -0.044131  0  3.993545  0  0  -0.041085  0  4.009615  0  0  0.016097  -0.046369  0  3.98343  0
C  C39  1  0.14844558  0.83017702  0.88203477  1  0  -0.00932  0  3.725632  0  0  -0.04409  0  3.993367  0  0  -0.041024  0  4.009436  0  0  0.016092  -0.046278  0  3.983285  0
C  C40  1  0.86797455  0.02505121  0.41324134  1  0  -0.021185  0  3.735822  0  0  -0.049561  0  4.002012  0  0  -0.049304  0  4.018619  0  0  0.009341  -0.049725  0  3.990691  0
C  C41  1  0.97494794  0.13202879  0.08675615  1  0  -0.021238  0  3.73583  0  0  -0.04964  0  4.002057  0  0  -0.049393  0  4.018673  0  0  0.009304  -0.049793  0  3.990735  0
C  C42  1  0.13202623  0.97494589  0.58675943  1  0  -0.021234  0  3.735925  0  0  -0.049612  0  4.002091  0  0  -0.049363  0  4.018714  0  0  0.009311  -0.049779  0  3.99079  0
C  C43  1  0.02505315  0.86797578  0.91324234  1  0  -0.021291  0  3.735794  0  0  -0.049684  0  4.001963  0  0  -0.049441  0  4.018577  0  0  0.009323  -0.049847  0  3.990638  0
C  C44  1  0.27173898  0.00830890  0.16809146  1  0  -0.020012  0  3.714895  0  0  -0.049657  0  3.98534  0  0  -0.049258  0  4.001185  0  0  0.010133  -0.049948  0  3.975047  0
C  C45  1  0.99169040  0.72825842  0.33191122  1  0  -0.019894  0  3.714608  0  0  -0.0496  0  3.985209  0  0  -0.049202  0  4.001009  0  0  0.010109  -0.049871  0  3.974866  0
C  C46  1  0.72825874  0.99169319  0.83191015  1  0  -0.019999  0  3.714626  0  0  -0.049704  0  3.985161  0  0  -0.049324  0  4.001012  0  0  0.010096  -0.049971  0  3.974842  0
C  C47  1  0.00830463  0.27174490  0.66808795  1  0  -0.019893  0  3.7145  0  0  -0.049586  0  3.985074  0  0  -0.049202  0  4.000911  0  0  0.010098  -0.049871  0  3.974771  0
C  C48  1  0.37505919  0.10654135  0.08948213  1  0  0.014006  0  3.687418  0  0  -0.027305  0  3.957972  0  0  -0.023615  0  3.974362  0  0  0.020667  -0.029196  0  3.946616  0
C  C49  1  0.89346011  0.62493883  0.41052218  1  0  0.013939  0  3.687303  0  0  -0.027421  0  3.957875  0  0  -0.023692  0  3.974211  0  0  0.020636  -0.029307  0  3.94648  0
C  C50  1  0.62493645  0.89346323  0.91052029  1  0  0.013909  0  3.687332  0  0  -0.027405  0  3.957849  0  0  -0.023692  0  3.97421  0  0  0.020671  -0.029305  0  3.946494  0
C  C51  1  0.10653930  0.37506450  0.58947948  1  0  0.013936  0  3.687298  0  0  -0.027396  0  3.95781  0  0  -0.023694  0  3.974193  0  0  0.02066  -0.029306  0  3.946474  0
N  N52  1  0.38280108  0.41522006  0.37426910  1  0  -0.244192  0  3.209084  0  0  -0.197365  0  3.487738  0  0  -0.208378  0  3.507453  0  0  -0.28831  -0.18967  0  3.473986  0
N  N53  1  0.58477477  0.61719910  0.12572979  1  0  -0.2443  0  3.209379  0  0  -0.197386  0  3.488023  0  0  -0.208382  0  3.507701  0  0  -0.288289  -0.189672  0  3.47425  0
N  N54  1  0.61719791  0.58477331  0.62573239  1  0  -0.244167  0  3.209319  0  0  -0.197254  0  3.487972  0  0  -0.208288  0  3.507675  0  0  -0.288249  -0.189549  0  3.474193  0
N  N55  1  0.41522403  0.38280297  0.87426862  1  0  -0.244277  0  3.209197  0  0  -0.197343  0  3.487822  0  0  -0.208306  0  3.507502  0  0  -0.288266  -0.189618  0  3.474055  0
N  N56  1  0.41024734  0.54910883  0.43451815  1  0  -0.156832  0  3.27553  0  0  -0.115388  0  3.552938  0  0  -0.123229  0  3.574633  0  0  -0.244774  -0.109599  0  3.537681  0
N  N57  1  0.45088708  0.58975167  0.06548191  1  0  -0.156759  0  3.275631  0  0  -0.115465  0  3.553169  0  0  -0.123315  0  3.574864  0  0  -0.244803  -0.109658  0  3.537895  0
N  N58  1  0.58974838  0.45088454  0.56548408  1  0  -0.156769  0  3.275541  0  0  -0.115427  0  3.553068  0  0  -0.123272  0  3.574774  0  0  -0.244801  -0.10964  0  3.537826  0
N  N59  1  0.54910982  0.41024419  0.93451797  1  0  -0.156819  0  3.275642  0  0  -0.115427  0  3.553113  0  0  -0.123285  0  3.574825  0  0  -0.244792  -0.109631  0  3.537855  0
N  N60  1  0.31227103  0.61152866  0.40282901  1  0  -0.258609  0  3.122237  0  0  -0.218691  0  3.393826  0  0  -0.227621  0  3.412768  0  0  -0.281458  -0.212794  0  3.381312  0
N  N61  1  0.38847012  0.68773079  0.09717092  1  0  -0.258637  0  3.12222  0  0  -0.218747  0  3.393836  0  0  -0.227675  0  3.412794  0  0  -0.281493  -0.212844  0  3.381319  0
N  N62  1  0.68772806  0.38846718  0.59716931  1  0  -0.258614  0  3.122005  0  0  -0.218701  0  3.393599  0  0  -0.227609  0  3.412556  0  0  -0.281458  -0.212812  0  3.381115  0
N  N63  1  0.61152619  0.31226382  0.90282893  1  0  -0.258525  0  3.122249  0  0  -0.218711  0  3.393863  0  0  -0.22764  0  3.412822  0  0  -0.28148  -0.212806  0  3.381367  0
N  N64  1  0.68020736  0.11248159  0.42104527  1  0  -0.240166  0  3.206692  0  0  -0.194765  0  3.484499  0  0  -0.205318  0  3.502983  0  0  -0.287694  -0.187003  0  3.471891  0
N  N65  1  0.88751282  0.31979393  0.07895389  1  0  -0.240192  0  3.206762  0  0  -0.194839  0  3.484568  0  0  -0.205373  0  3.503087  0  0  -0.287721  -0.187084  0  3.471995  0
N  N66  1  0.31979114  0.88751302  0.57895462  1  0  -0.240164  0  3.206696  0  0  -0.194697  0  3.484478  0  0  -0.205235  0  3.502969  0  0  -0.287682  -0.186934  0  3.471875  0
N  N67  1  0.11248829  0.68021065  0.92104781  1  0  -0.240157  0  3.206682  0  0  -0.1947  0  3.48445  0  0  -0.205241  0  3.502969  0  0  -0.287702  -0.186948  0  3.471861  0
N  N68  1  0.62909818  0.97195966  0.47392039  1  0  -0.14534  0  3.249578  0  0  -0.107922  0  3.533811  0  0  -0.115051  0  3.553402  0  0  -0.23519  -0.102211  0  3.519606  0
N  N69  1  0.02803724  0.37090372  0.02607806  1  0  -0.145261  0  3.249545  0  0  -0.10777  0  3.533699  0  0  -0.114919  0  3.553317  0  0  -0.235104  -0.102055  0  3.519497  0
N  N70  1  0.37089922  0.02803495  0.52607788  1  0  -0.14537  0  3.249449  0  0  -0.108028  0  3.533764  0  0  -0.115186  0  3.553381  0  0  -0.235205  -0.102311  0  3.519549  0
N  N71  1  0.97196276  0.62910085  0.97392202  1  0  -0.145507  0  3.249599  0  0  -0.108131  0  3.533918  0  0  -0.115264  0  3.553533  0  0  -0.235233  -0.102412  0  3.519709  0
N  N72  1  0.73947443  0.91653802  0.47086229  1  0  -0.259444  0  3.104324  0  0  -0.223717  0  3.383464  0  0  -0.231587  0  3.401024  0  0  -0.275406  -0.217974  0  3.371763  0
N  N73  1  0.08345839  0.26052651  0.02913555  1  0  -0.259632  0  3.104506  0  0  -0.223892  0  3.383654  0  0  -0.231746  0  3.40122  0  0  -0.275475  -0.218146  0  3.371956  0
N  N74  1  0.26052297  0.08345658  0.52913759  1  0  -0.259359  0  3.104267  0  0  -0.22364  0  3.383409  0  0  -0.231492  0  3.400987  0  0  -0.275368  -0.217896  0  3.37172  0
N  N75  1  0.91654270  0.73947806  0.97086375  1  0  -0.259304  0  3.104198  0  0  -0.223567  0  3.383362  0  0  -0.231424  0  3.400931  0  0  -0.275342  -0.217814  0  3.371651  0
N  N76  1  0.35026140  0.07550366  0.26460336  1  0  -0.267942  0  3.099518  0  0  -0.228077  0  3.373493  0  0  -0.235926  0  3.390112  0  0  -0.27361  -0.223116  0  3.363314  0
N  N77  1  0.92449180  0.64973564  0.23539920  1  0  -0.267942  0  3.099332  0  0  -0.228128  0  3.373345  0  0  -0.235956  0  3.389939  0  0  -0.273574  -0.223165  0  3.363143  0
N  N78  1  0.64973830  0.92449345  0.73539820  1  0  -0.267977  0  3.099299  0  0  -0.228121  0  3.3733  0  0  -0.235967  0  3.389943  0  0  -0.273604  -0.223165  0  3.363128  0
N  N79  1  0.07550313  0.35026519  0.76460073  1  0  -0.267941  0  3.099237  0  0  -0.228171  0  3.373281  0  0  -0.235993  0  3.389885  0  0  -0.273623  -0.223182  0  3.363071  0
N  N80  1  0.49517359  0.20821347  0.24481800  1  0  -0.150973  0  3.248833  0  0  -0.111305  0  3.526976  0  0  -0.11863  0  3.547469  0  0  -0.234492  -0.106302  0  3.513349  0
N  N81  1  0.79178259  0.50482316  0.25518373  1  0  -0.150962  0  3.248915  0  0  -0.111244  0  3.527013  0  0  -0.11858  0  3.54755  0  0  -0.234412  -0.10624  0  3.513408  0
N  N82  1  0.50482779  0.79178488  0.75518281  1  0  -0.150905  0  3.24892  0  0  -0.111256  0  3.527048  0  0  -0.118596  0  3.54759  0  0  -0.23445  -0.106253  0  3.513454  0
N  N83  1  0.20821442  0.49517519  0.74481620  1  0  -0.15104  0  3.248938  0  0  -0.111325  0  3.527068  0  0  -0.11861  0  3.547564  0  0  -0.234436  -0.106306  0  3.513441  0
N  N84  1  0.51366938  0.23097031  0.13933043  1  0  -0.241409  0  3.194242  0  0  -0.190919  0  3.464927  0  0  -0.201932  0  3.48448  0  0  -0.286217  -0.182808  0  3.450664  0
N  N85  1  0.76902606  0.48632492  0.36067128  1  0  -0.241368  0  3.194158  0  0  -0.190835  0  3.464805  0  0  -0.201856  0  3.484382  0  0  -0.286221  -0.182733  0  3.450555  0
N  N86  1  0.48632714  0.76902929  0.86067032  1  0  -0.241353  0  3.194225  0  0  -0.190851  0  3.464893  0  0  -0.201835  0  3.484451  0  0  -0.286197  -0.182741  0  3.450647  0
N  N87  1  0.23097374  0.51367467  0.63932952  1  0  -0.241401  0  3.194172  0  0  -0.190879  0  3.464861  0  0  -0.20191  0  3.484439  0  0  -0.286236  -0.182776  0  3.450602  0
