# generated using pymatgen
data_CoH30C44(N5O3)2
_symmetry_space_group_name_H-M   'P 1'
_cell_length_a   12.13137236
_cell_length_b   13.97036718
_cell_length_c   14.73356101
_cell_angle_alpha   62.61921780
_cell_angle_beta   67.73951850
_cell_angle_gamma   78.36528759
_symmetry_Int_Tables_number   1
_chemical_formula_structural   CoH30C44(N5O3)2
_chemical_formula_sum   'Co2 H60 C88 N20 O12'
_cell_volume   2050.89811446
_cell_formula_units_Z   2
loop_
 _symmetry_equiv_pos_site_id
 _symmetry_equiv_pos_as_xyz
  1  'x, y, z'
loop_
 _atom_site_type_symbol
 _atom_site_label
 _atom_site_symmetry_multiplicity
 _atom_site_fract_x
 _atom_site_fract_y
 _atom_site_fract_z
 _atom_site_occupancy
 _atom_site_pbe_bader_charge
 _atom_site_pbe_bader_spin_density
 _atom_site_pbe_cm5_charge
 _atom_site_pbe_ddec_charge
 _atom_site_pbe_ddec_spin_density
 _atom_site_pbe_ddec_sum_bond_order
 _atom_site_pbe_magmom
Co  Co0  1  0.31512704  0.58443202  0.04935774  1  1.294425  2.603526  0.672367  0.893704  2.83047  2.416943  2.582
Co  Co1  1  0.68487711  0.41556361  0.95063840  1  1.294527  2.603543  0.672279  0.89356  2.830465  2.416877  2.582
H  H2  1  0.11438724  0.64326682  0.17013559  1  0.642501  -0.000184  0.291127  0.347387  -0.000374  1.002681  0.0
H  H3  1  0.88562494  0.35672964  0.82985160  1  0.642389  -0.000184  0.291123  0.347469  -0.000374  1.002593  0.0
H  H4  1  0.29655425  0.63827545  0.48574717  1  0.459306  -1.6e-05  0.332877  0.293087  -1.3e-05  0.902892  0.0
H  H5  1  0.70344250  0.36172660  0.51424910  1  0.459283  -1.6e-05  0.332863  0.293057  -1.3e-05  0.902991  0.0
H  H6  1  0.10224257  0.82115995  0.26782555  1  0.481934  -8e-06  0.330537  0.295768  -2.1e-05  0.903118  0.0
H  H7  1  0.89775069  0.17883809  0.73218509  1  0.481901  -9e-06  0.330481  0.295623  -2.1e-05  0.903189  0.0
H  H8  1  0.25139710  0.04136182  0.48825090  1  0.510275  1e-06  0.298197  0.243634  3e-06  1.038767  0.0
H  H9  1  0.74860764  0.95863869  0.51175582  1  0.510483  1e-06  0.298208  0.243622  3e-06  1.038804  0.0
H  H10  1  0.83071852  0.18803662  0.20475297  1  0.077502  0.000206  0.101256  0.098875  0.000101  1.05083  0.0
H  H11  1  0.16927908  0.81196545  0.79524779  1  0.077277  0.000206  0.10126  0.098881  0.000101  1.050797  0.0
H  H12  1  0.59012504  0.52750397  0.66348450  1  0.064544  0.000218  0.104312  0.102906  9e-05  1.014094  0.0
H  H13  1  0.40988538  0.47251345  0.33649202  1  0.065249  0.000218  0.104305  0.102893  9e-05  1.014139  0.0
H  H14  1  0.05351323  0.09871707  0.94876775  1  0.085763  2.2e-05  0.105248  0.111886  -6e-06  1.009474  0.0
H  H15  1  0.94649203  0.90127134  0.05124207  1  0.085596  2.2e-05  0.105253  0.111899  -6e-06  1.009563  0.0
H  H16  1  0.62107516  0.79210275  0.48406010  1  0.064926  -5e-06  0.107012  0.071712  -9e-06  1.013529  0.0
H  H17  1  0.37891729  0.20789526  0.51594062  1  0.064858  -5e-06  0.107058  0.071818  -9e-06  1.013575  0.0
H  H18  1  0.49776357  0.83258541  0.36791145  1  0.09423  7e-06  0.105106  0.110133  6e-06  1.027103  0.0
H  H19  1  0.50222693  0.16741663  0.63208879  1  0.094113  7e-06  0.105148  0.110231  6e-06  1.027059  0.0
H  H20  1  0.65743207  0.11649904  0.38639876  1  0.134324  -5e-06  0.104555  0.065074  -1.1e-05  1.06756  0.0
H  H21  1  0.34255412  0.88349896  0.61360729  1  0.134207  -5e-06  0.104569  0.065104  -1.1e-05  1.067542  0.0
H  H22  1  0.49803088  0.58045514  0.52169797  1  0.043337  0.000111  0.099857  0.103626  5.3e-05  1.012573  0.0
H  H23  1  0.50197082  0.41955821  0.47828166  1  0.042382  0.000111  0.099829  0.103575  5.3e-05  1.012491  0.0
H  H24  1  0.36946244  0.61347530  0.21802902  1  0.126664  0.001434  0.112919  0.082733  0.000421  1.045343  0.001
H  H25  1  0.63054553  0.38651549  0.78196059  1  0.127028  0.001433  0.112909  0.082726  0.000421  1.045257  0.001
H  H26  1  0.13168183  0.93828023  0.08048206  1  0.076374  0.000128  0.099364  0.107237  4.6e-05  1.047127  0.0
H  H27  1  0.86831442  0.06170897  0.91953832  1  0.075571  0.000128  0.099251  0.107083  4.6e-05  1.04725  0.0
H  H28  1  0.53861963  0.17095712  0.26420200  1  0.087081  2.8e-05  0.104822  0.111771  9e-06  1.032641  0.0
H  H29  1  0.46136915  0.82904251  0.73580389  1  0.086994  2.8e-05  0.104835  0.111881  9e-06  1.032502  0.0
H  H30  1  0.29850944  0.68555334  0.82671882  1  0.137317  -0.000135  0.10478  0.106194  -0.000253  1.077215  0.0
H  H31  1  0.70149662  0.31443988  0.17327439  1  0.136783  -0.000135  0.104758  0.106196  -0.000253  1.077051  0.0
H  H32  1  0.28612841  0.09585918  0.02545132  1  0.07607  3e-05  0.106785  0.113525  -6e-06  1.02698  0.0
H  H33  1  0.71385947  0.90414124  0.97455246  1  0.076128  3e-05  0.106761  0.113542  -5e-06  1.027048  0.0
H  H34  1  0.34540211  0.82763613  0.91816324  1  0.091256  0.001203  0.11664  0.08654  0.000136  1.012212  0.001
H  H35  1  0.65460503  0.17235146  0.08183821  1  0.091021  0.001203  0.116627  0.086634  0.000136  1.012028  0.001
H  H36  1  0.20675020  0.73869418  0.68485904  1  0.092847  0.000146  0.107304  0.113362  5.9e-05  1.032456  0.0
H  H37  1  0.79325100  0.26130790  0.31513654  1  0.093076  0.000146  0.107315  0.113363  5.9e-05  1.032439  0.0
H  H38  1  0.29047372  0.21222011  0.42237818  1  0.057281  -3e-06  0.100227  0.101726  -3e-06  1.064923  0.0
H  H39  1  0.70952350  0.78779083  0.57761949  1  0.057215  -3e-06  0.100216  0.101659  -3e-06  1.064924  0.0
H  H40  1  0.38236659  0.34880290  0.10086999  1  0.137821  0.001502  0.114773  0.089085  0.000328  1.07535  0.001
H  H41  1  0.61764135  0.65120649  0.89912982  1  0.137957  0.001501  0.114724  0.089018  0.000327  1.075399  0.001
H  H42  1  0.23955208  0.40689283  0.33049806  1  0.096046  4e-06  0.100924  0.104767  -0.000108  1.026087  0.0
H  H43  1  0.76043290  0.59311322  0.66950212  1  0.096655  4e-06  0.100941  0.104785  -0.000108  1.025927  0.0
H  H44  1  0.91427688  0.03279974  0.33559207  1  0.091146  1e-05  0.10553  0.116642  6e-06  1.028764  0.0
H  H45  1  0.08571951  0.96720880  0.66441234  1  0.091261  1e-05  0.105519  0.116544  6e-06  1.028766  0.0
H  H46  1  0.06860290  0.40982800  0.94487452  1  0.151163  0.000649  0.108925  0.127026  0.000293  1.028235  0.0
H  H47  1  0.93140765  0.59018302  0.05512242  1  0.151102  0.000649  0.108902  0.126916  0.000293  1.028265  0.0
H  H48  1  0.13623049  0.55537982  0.96475322  1  0.103655  0.001267  0.117072  0.090003  0.000289  1.025416  0.001
H  H49  1  0.86377996  0.44463362  0.03524269  1  0.103767  0.001266  0.117058  0.090039  0.000288  1.025494  0.001
H  H50  1  0.96205205  0.32438418  0.26881593  1  0.092473  5.2e-05  0.099649  0.097031  2.7e-05  1.027677  0.0
H  H51  1  0.03795153  0.67560339  0.73118594  1  0.092351  5.2e-05  0.099671  0.096995  2.7e-05  1.02765  0.0
H  H52  1  0.01447112  0.12857729  0.35808347  1  0.102263  7e-06  0.097936  0.105711  -1e-06  1.078255  0.0
H  H53  1  0.98552238  0.87141431  0.64193399  1  0.102315  7e-06  0.097922  0.105658  -1e-06  1.078339  0.0
H  H54  1  0.35872911  0.98543854  0.94715760  1  0.083985  0.000754  0.109433  0.119996  0.000351  1.001578  0.0
H  H55  1  0.64127626  0.01454983  0.05283862  1  0.083626  0.000754  0.109411  0.119907  0.000351  1.001688  0.0
H  H56  1  0.38906139  0.76365524  0.25921681  1  0.109499  0.000716  0.103914  0.109992  0.00034  1.033915  0.0
H  H57  1  0.61092833  0.23632339  0.74079187  1  0.109342  0.000716  0.10394  0.110024  0.00034  1.033924  0.0
H  H58  1  0.38518328  0.19349060  0.22108852  1  0.080318  -1.5e-05  0.107994  0.117119  -3.8e-05  1.033927  0.0
H  H59  1  0.61482243  0.80650989  0.77890772  1  0.080311  -1.5e-05  0.107988  0.117144  -3.8e-05  1.033973  0.0
H  H60  1  0.15004360  0.22190191  0.02389474  1  0.09326  -9.1e-05  0.104033  0.102586  -0.000184  1.038938  0.0
H  H61  1  0.84994744  0.77810502  0.97612084  1  0.09285  -9.1e-05  0.104057  0.102625  -0.000184  1.038842  0.0
C  C62  1  0.09626131  0.37764777  0.29466012  1  0.021849  0.00016  -0.033874  -0.076673  -0.000162  4.028236  0.0
C  C63  1  0.90373568  0.62234785  0.70534297  1  0.021444  0.00016  -0.03392  -0.076626  -0.000162  4.028206  0.0
C  C64  1  0.89920025  0.13473903  0.17735323  1  -0.12435  -4.6e-05  -0.085955  -0.079433  -0.000191  3.977523  0.0
C  C65  1  0.10079831  0.86526063  0.82265168  1  -0.123832  -4.7e-05  -0.085974  -0.079428  -0.000192  3.977702  0.0
C  C66  1  0.50518835  0.57263095  0.66925150  1  0.031654  -0.00059  -0.084946  -0.07956  -0.000969  4.000364  0.0
C  C67  1  0.49482233  0.42738002  0.33072912  1  0.031633  -0.000588  -0.084794  -0.079534  -0.000967  4.000362  0.0
C  C68  1  0.50679413  0.00528223  0.30612998  1  -0.029289  -4.8e-05  0.010067  0.079899  -3.9e-05  3.957317  0.0
C  C69  1  0.49320604  0.99472228  0.69386824  1  -0.028908  -4.8e-05  0.010071  0.079886  -3.9e-05  3.9573  0.0
C  C70  1  0.02325348  0.08336692  0.03371811  1  -0.005089  0.000374  -0.085871  -0.083096  -2e-05  4.004738  0.0
C  C71  1  0.97674184  0.91662548  0.96629030  1  -0.005072  0.000373  -0.085896  -0.083232  -2e-05  4.005079  0.0
C  C72  1  0.34576919  0.66319898  0.59431351  1  0.30757  -0.001308  0.103804  0.258212  -0.001476  4.030646  -0.001
C  C73  1  0.65423101  0.33680551  0.40568267  1  0.307486  -0.001307  0.10378  0.2582  -0.001475  4.030674  -0.001
C  C74  1  0.60157840  0.87578683  0.43380673  1  0.474578  -4e-06  0.040253  0.08509  -4e-06  3.993877  0.0
C  C75  1  0.39840690  0.12421196  0.56619585  1  0.474795  -4e-06  0.040111  0.084883  -4e-06  3.993884  0.0
C  C76  1  0.53240766  0.89763972  0.36943398  1  0.008684  5.1e-05  -0.083357  -0.153668  2.3e-05  3.942982  0.0
C  C77  1  0.46758293  0.10236070  0.63056355  1  0.00823  5.1e-05  -0.083304  -0.153621  2.3e-05  3.943086  0.0
C  C78  1  0.37681338  0.97730665  0.13397141  1  0.508188  -3e-05  0.116639  0.201099  -0.000361  4.022651  0.0
C  C79  1  0.62318451  0.02268977  0.86602631  1  0.50792  -3e-05  0.11657  0.200863  -0.000361  4.023034  0.0
C  C80  1  0.62140405  0.05572635  0.37921532  1  0.442747  -5e-06  0.040706  0.096037  -1.8e-05  3.97965  0.0
C  C81  1  0.37858925  0.94427168  0.62079124  1  0.442324  -5e-06  0.040718  0.096227  -1.8e-05  3.979644  0.0
C  C82  1  0.12650770  0.88185393  0.35838833  1  1.561117  -0.000115  0.349664  0.554264  -0.00014  4.12388  0.0
C  C83  1  0.87348889  0.11814977  0.64161813  1  1.561666  -0.000116  0.349623  0.554216  -0.00014  4.124044  0.0
C  C84  1  0.45355230  0.60209982  0.58975790  1  -0.02653  0.001002  -0.10212  -0.199621  0.000443  3.993115  0.001
C  C85  1  0.54645533  0.39792001  0.41022046  1  -0.02595  0.001002  -0.102203  -0.199629  0.000442  3.993024  0.001
C  C86  1  0.36867773  0.69740523  0.16046232  1  0.447142  -0.007067  0.041808  0.097515  -0.007532  3.940146  -0.004
C  C87  1  0.63132485  0.30258556  0.83953574  1  0.446783  -0.007065  0.041847  0.097633  -0.00753  3.939966  -0.004
C  C88  1  0.06815493  0.99513897  0.10678249  1  -0.022772  0.000607  -0.097617  -0.192804  0.000294  3.991063  0.0
C  C89  1  0.93184542  0.00485990  0.89322561  1  -0.022211  0.000607  -0.097494  -0.192406  0.000295  3.990885  0.0
C  C90  1  0.55315435  0.08556005  0.31209391  1  -0.032645  9.8e-05  -0.0878  -0.173712  5.9e-05  3.933072  0.0
C  C91  1  0.44683707  0.91444039  0.68791149  1  -0.032353  9.8e-05  -0.087838  -0.173985  5.9e-05  3.933031  0.0
C  C92  1  0.34243377  0.66309528  0.75936716  1  -0.125527  -0.000163  -0.084463  -0.086316  -0.000599  3.990672  0.0
C  C93  1  0.65758096  0.33690203  0.24062974  1  -0.12467  -0.000162  -0.084503  -0.086439  -0.000599  3.990483  0.0
C  C94  1  0.43698425  0.03188682  0.23352980  1  0.544166  0.000306  0.118041  0.20041  8.6e-05  4.026313  0.0
C  C95  1  0.56300921  0.96810797  0.76647337  1  0.543897  0.000306  0.118053  0.200507  8.6e-05  4.026331  0.0
C  C96  1  0.32706575  0.07988006  0.08540219  1  -0.010354  -0.001518  -0.077507  -0.202332  -0.001678  3.886759  -0.001
C  C97  1  0.67292495  0.92011714  0.91460078  1  -0.010288  -0.001518  -0.077499  -0.202328  -0.001678  3.886828  -0.001
C  C98  1  0.35413082  0.81650762  0.99334926  1  0.503764  -0.007979  0.043334  0.096768  -0.008844  3.950341  -0.005
C  C99  1  0.64587191  0.18347913  0.00665255  1  0.503579  -0.007977  0.043284  0.096614  -0.008843  3.950012  -0.005
C  C100  1  0.29062190  0.69259533  0.68067682  1  0.075682  0.000699  -0.089321  -0.166598  0.000302  3.96397  0.001
C  C101  1  0.70937990  0.30741241  0.31932152  1  0.075412  0.000698  -0.089285  -0.166529  0.000302  3.964209  0.001
C  C102  1  0.06478508  0.49206469  0.23579476  1  1.481193  0.001573  0.217972  0.574925  0.000709  4.133403  0.001
C  C103  1  0.93523074  0.50793097  0.76418692  1  1.480836  0.001576  0.217938  0.574866  0.00071  4.133312  0.001
C  C104  1  0.21755555  0.23732023  0.38956441  1  -0.054902  -0.000148  -0.10629  -0.203691  -0.000137  3.978062  0.0
C  C105  1  0.78244295  0.76268105  0.61043913  1  -0.054877  -0.000148  -0.106308  -0.203605  -0.000137  3.978098  0.0
C  C106  1  0.15539825  0.15728735  0.39730145  1  0.351448  0.000275  0.106881  0.26573  0.000136  3.99418  0.0
C  C107  1  0.84459560  0.84271875  0.60270141  1  0.351124  0.000275  0.106905  0.265674  0.000136  3.994219  0.0
C  C108  1  0.93676329  0.15369776  0.06814418  1  0.010365  0.004829  -0.029408  -0.066486  0.002551  4.007506  0.004
C  C109  1  0.06324047  0.84630516  0.93185907  1  0.010313  0.00483  -0.029485  -0.066641  0.002551  4.007975  0.004
C  C110  1  0.30865571  0.35699144  0.07273076  1  0.515874  -0.005583  0.050722  0.056311  -0.006493  3.890364  -0.004
C  C111  1  0.69134803  0.64301149  0.92727452  1  0.515659  -0.00558  0.050747  0.056314  -0.00649  3.8903  -0.004
C  C112  1  0.23251096  0.78708122  0.47108237  1  1.595858  -0.000176  0.346103  0.54964  -0.000223  4.143133  0.0
C  C113  1  0.76748831  0.21292329  0.52891749  1  1.595085  -0.000176  0.34597  0.549482  -0.000223  4.143434  0.0
C  C114  1  0.37257812  0.88788390  0.10800124  1  0.028967  -0.010799  0.008023  0.073407  -0.01163  3.968744  -0.007
C  C115  1  0.62741550  0.11210766  0.89200127  1  0.028978  -0.010798  0.008045  0.07354  -0.011628  3.968759  -0.007
C  C116  1  0.45044597  0.60311860  0.75522238  1  -0.071042  0.00913  -0.029085  -0.062338  0.004669  3.987966  0.007
C  C117  1  0.54956696  0.39688109  0.24476452  1  -0.071792  0.009128  -0.029113  -0.062289  0.004667  3.987751  0.007
C  C118  1  0.88519298  0.24393863  0.98891579  1  1.53292  0.000253  0.211739  0.564334  -0.00085  4.186417  0.0
C  C119  1  0.11481457  0.75606026  0.01108127  1  1.532593  0.000252  0.211691  0.564208  -0.000852  4.186379  0.0
C  C120  1  0.18876490  0.34579360  0.33877953  1  -0.073304  0.000258  -0.08623  -0.065693  -2.7e-05  3.993024  0.0
C  C121  1  0.81123185  0.65420766  0.66122048  1  -0.074059  0.000258  -0.086218  -0.06574  -2.8e-05  3.992827  0.0
C  C122  1  0.94583883  0.04817739  0.25066555  1  0.015146  -0.0  -0.090782  -0.163068  -5.2e-05  3.946561  0.0
C  C123  1  0.05415340  0.95182387  0.74934399  1  0.015301  0.0  -0.090684  -0.162756  -5.2e-05  3.946443  0.0
C  C124  1  0.03093074  0.97716246  0.21570109  1  0.341917  -0.0003  0.104168  0.253574  -0.000357  4.017779  0.0
C  C125  1  0.96906765  0.02284124  0.78430210  1  0.34197  -0.0003  0.104193  0.2533  -0.000358  4.018083  0.0
C  C126  1  0.13451448  0.39150755  0.98486678  1  0.003941  0.004229  -0.079472  -0.113596  0.002141  3.938415  0.003
C  C127  1  0.86548453  0.60850181  0.01513849  1  0.003919  0.004229  -0.079311  -0.113149  0.002141  3.938036  0.003
C  C128  1  0.50157663  0.57430808  0.84254800  1  1.546152  0.002564  0.220065  0.585186  0.001064  4.145154  0.004
C  C129  1  0.49842612  0.42569965  0.15744395  1  1.546538  0.002563  0.220105  0.585345  0.001064  4.144983  0.004
C  C130  1  0.17338206  0.47338485  0.99328610  1  0.46267  -0.003599  0.048632  0.098766  -0.003919  3.916926  -0.002
C  C131  1  0.82662679  0.52662454  0.00671071  1  0.46268  -0.0036  0.048492  0.098373  -0.003917  3.916681  -0.002
C  C132  1  0.03334128  0.29805139  0.30395261  1  -0.05262  0.000255  -0.083983  -0.067067  0.000116  3.987101  0.0
C  C133  1  0.96665559  0.70194745  0.69604571  1  -0.052153  0.000255  -0.083928  -0.06696  0.000116  3.987004  0.0
C  C134  1  0.06179954  0.18916882  0.35397213  1  0.028236  7e-06  -0.103896  -0.184141  -1.2e-05  3.956851  0.0
C  C135  1  0.93819011  0.81083081  0.64603620  1  0.028543  7e-06  -0.103922  -0.184167  -1.2e-05  3.957044  0.0
C  C136  1  0.36045033  0.90462369  0.01076106  1  -0.090198  0.005114  -0.084426  -0.172086  0.002415  3.955657  0.004
C  C137  1  0.63955146  0.09536467  0.98923762  1  -0.089559  0.005113  -0.084379  -0.171992  0.002415  3.955608  0.004
C  C138  1  0.18054071  0.96174625  0.43720373  1  1.560634  2.7e-05  0.348262  0.547085  7e-06  4.103254  0.0
C  C139  1  0.81945749  0.03826149  0.56280046  1  1.560068  2.7e-05  0.348214  0.54704  7e-06  4.103105  0.0
C  C140  1  0.37924582  0.78063128  0.18283224  1  -0.039166  0.004833  -0.084341  -0.15861  0.00219  3.951968  0.004
C  C141  1  0.62074952  0.21936190  0.81716903  1  -0.038976  0.004832  -0.084377  -0.158728  0.002189  3.951965  0.004
C  C142  1  0.32806191  0.16070794  0.11626261  1  -0.0507  0.000641  0.015463  0.131575  0.000246  3.984244  0.001
C  C143  1  0.67193238  0.83928847  0.88373960  1  -0.050445  0.00064  0.015615  0.131799  0.000246  3.984278  0.001
C  C144  1  0.38436237  0.13468261  0.19233379  1  0.007871  -0.002488  -0.078069  -0.205007  -0.002689  3.892586  -0.001
C  C145  1  0.61564326  0.86532029  0.80765870  1  0.00776  -0.002487  -0.078201  -0.205241  -0.002688  3.892794  -0.001
C  C146  1  0.18300403  0.28767426  0.02588756  1  -0.041757  -0.006266  -0.062788  -0.063913  -0.006782  3.90979  -0.004
C  C147  1  0.81698870  0.71233589  0.97412066  1  -0.041112  -0.006265  -0.062768  -0.063956  -0.006781  3.909532  -0.004
C  C148  1  0.27254091  0.26872192  0.07121772  1  -0.035718  0.003649  -0.001585  0.020817  0.001813  3.970177  0.003
C  C149  1  0.72745571  0.73128178  0.92878535  1  -0.036061  0.003646  -0.001675  0.02063  0.001812  3.970458  0.003
N  N150  1  0.25919229  0.45675765  0.03693790  1  -1.239107  0.04779  -0.322907  -0.262182  0.02524  3.59407  0.044
N  N151  1  0.74081151  0.54324367  0.96307011  1  -1.239067  0.047781  -0.322864  -0.261958  0.025233  3.59344  0.044
N  N152  1  0.64641842  0.95284131  0.43932214  1  -1.226758  3.5e-05  -0.315241  -0.259522  2e-05  3.3799  0.0
N  N153  1  0.35357067  0.04715185  0.56068242  1  -1.226354  3.5e-05  -0.315194  -0.259599  1.9e-05  3.379807  0.0
N  N154  1  0.29383110  0.69246046  0.51455145  1  -1.258716  2.6e-05  -0.39272  -0.385492  -3e-06  3.539358  0.0
N  N155  1  0.70616999  0.30754404  0.48544378  1  -1.258445  2.6e-05  -0.392684  -0.385417  -3e-06  3.539438  0.0
N  N156  1  0.43037293  0.95350662  0.20719135  1  -1.202832  -0.001788  -0.308122  -0.335831  -0.001914  3.295343  -0.001
N  N157  1  0.56962669  0.04649061  0.79280615  1  -1.202663  -0.001788  -0.30808  -0.335741  -0.001914  3.295405  -0.001
N  N158  1  0.35552962  0.71375715  0.06743098  1  -1.206136  0.049085  -0.325506  -0.243858  0.025823  3.556857  0.045
N  N159  1  0.64447657  0.28623204  0.93256802  1  -1.206083  0.049086  -0.325424  -0.243812  0.025824  3.556624  0.045
N  N160  1  0.07803578  0.88577114  0.28638136  1  -1.253053  4.1e-05  -0.389949  -0.375111  -5e-06  3.508171  0.0
N  N161  1  0.92195303  0.11422609  0.71363439  1  -1.25341  4.1e-05  -0.389843  -0.374832  -5e-06  3.508724  0.0
N  N162  1  0.12192826  0.97137484  0.37204372  1  -1.218619  5.2e-05  -0.339929  -0.515915  2.2e-05  3.224965  0.0
N  N163  1  0.87807455  0.02862969  0.62795843  1  -1.218452  5.2e-05  -0.339843  -0.51589  2.2e-05  3.224796  0.0
N  N164  1  0.17974466  0.78675705  0.40572803  1  -1.237313  0.000424  -0.364636  -0.576421  0.000216  3.22859  0.0
N  N165  1  0.82025021  0.21324583  0.59427593  1  -1.236813  0.000424  -0.364623  -0.576408  0.000216  3.228641  0.0
N  N166  1  0.19220609  0.05047362  0.44891697  1  -1.289769  0.000117  -0.387243  -0.370444  4.7e-05  3.564222  0.0
N  N167  1  0.80779750  0.94953333  0.55108456  1  -1.289443  0.000117  -0.387253  -0.370314  4.7e-05  3.563976  0.0
N  N168  1  0.23563856  0.87042438  0.49152070  1  -1.238681  -0.00033  -0.347384  -0.540144  -0.000354  3.219437  0.0
N  N169  1  0.76436251  0.12957933  0.50848099  1  -1.238553  -0.00033  -0.347307  -0.540054  -0.000355  3.219528  0.0
O  O170  1  0.44901781  0.61524658  0.91130656  1  -1.172582  0.097574  -0.319488  -0.56694  0.04937  2.440262  0.081
O  O171  1  0.55097755  0.38474580  0.08869574  1  -1.172675  0.097575  -0.31953  -0.567049  0.049374  2.440046  0.081
O  O172  1  0.14714135  0.56187726  0.20851617  1  -1.171067  0.033405  -0.338843  -0.535564  0.017648  2.38237  0.026
O  O173  1  0.85287108  0.43811355  0.79147139  1  -1.170604  0.033389  -0.3388  -0.535625  0.01764  2.382121  0.026
O  O174  1  0.80836659  0.30907160  0.02180319  1  -1.172051  0.073786  -0.312647  -0.571815  0.038561  2.401417  0.063
O  O175  1  0.19164705  0.69093054  0.97819193  1  -1.172026  0.073792  -0.312636  -0.571806  0.038566  2.401412  0.063
O  O176  1  0.91888956  0.25123093  0.89288178  1  -1.165565  0.00311  -0.317526  -0.525441  0.001122  2.210136  0.003
O  O177  1  0.08111569  0.74875907  0.10711919  1  -1.165488  0.003106  -0.31744  -0.525237  0.00112  2.210097  0.003
O  O178  1  0.59601696  0.51512364  0.84279724  1  -1.160963  0.083261  -0.296202  -0.54505  0.043711  2.42686  0.071
O  O179  1  0.40398369  0.48487116  0.15719626  1  -1.161125  0.083258  -0.296142  -0.545026  0.04371  2.426915  0.071
O  O180  1  0.97290102  0.52186667  0.21171729  1  -1.150643  0.009159  -0.306356  -0.502317  0.004442  2.101968  0.008
O  O181  1  0.02711380  0.47813140  0.78826432  1  -1.150738  0.009154  -0.306349  -0.502249  0.00444  2.101979  0.008
