# generated using pymatgen
data_CdH9C17(NO2)2
_symmetry_space_group_name_H-M   'P 1'
_cell_length_a   7.60825046
_cell_length_b   9.84051417
_cell_length_c   20.05069105
_cell_angle_alpha   90.00009198
_cell_angle_beta   90.00011662
_cell_angle_gamma   112.40300738
_symmetry_Int_Tables_number   1
_chemical_formula_structural   CdH9C17(NO2)2
_chemical_formula_sum   'Cd4 H36 C68 N8 O16'
_cell_volume   1387.87732519
_cell_formula_units_Z   4
loop_
 _symmetry_equiv_pos_site_id
 _symmetry_equiv_pos_as_xyz
  1  'x, y, z'
loop_
 _atom_site_type_symbol
 _atom_site_label
 _atom_site_symmetry_multiplicity
 _atom_site_fract_x
 _atom_site_fract_y
 _atom_site_fract_z
 _atom_site_occupancy
 _atom_site_pbe_bader_spin_density
 _atom_site_pbe_cm5_charge
 _atom_site_pbe_ddec_charge
 _atom_site_pbe_ddec_spin_density
 _atom_site_pbe_ddec_sum_bond_order
 _atom_site_pbe_magmom
Cd  Cd0  1  0.76334724  0.02972583  0.93137021  1  0  0.796783  0.960837  0  2.18747  0
Cd  Cd1  1  0.23664770  0.47027332  0.43136945  1  0  0.796772  0.960802  0  2.18759  0
Cd  Cd2  1  0.23665214  0.97027378  0.06863052  1  0  0.79675  0.96076  0  2.187563  0
Cd  Cd3  1  0.76335192  0.52972409  0.56863078  1  0  0.796788  0.960809  0  2.187515  0
H  H4  1  0.07520048  0.86680966  0.91333946  1  0  0.120232  0.097186  0  0.998299  0
H  H5  1  0.92479666  0.63319455  0.41333848  1  0  0.120228  0.097211  0  0.998206  0
H  H6  1  0.92480026  0.13319544  0.08666027  1  0  0.120213  0.097212  0  0.998174  0
H  H7  1  0.07520506  0.36680177  0.58666324  1  0  0.120244  0.097274  0  0.998185  0
H  H8  1  0.23676936  0.78518854  0.82450564  1  0  0.108264  0.121577  0  1.013161  0
H  H9  1  0.76323184  0.71481957  0.32450361  1  0  0.108252  0.12152  0  1.013238  0
H  H10  1  0.76323533  0.21481658  0.17549508  1  0  0.108254  0.12158  0  1.013195  0
H  H11  1  0.23676593  0.28517674  0.67549862  1  0  0.108261  0.121504  0  1.013241  0
H  H12  1  0.15657676  0.81447235  0.70298064  1  0  0.110782  0.116706  0  0.983725  0
H  H13  1  0.84342794  0.68553617  0.20297964  1  0  0.110806  0.116759  0  0.983717  0
H  H14  1  0.84342130  0.18552725  0.29702009  1  0  0.110806  0.116718  0  0.983776  0
H  H15  1  0.15657143  0.31446344  0.79702259  1  0  0.110787  0.116751  0  0.98369  0
H  H16  1  0.96627864  0.89415468  0.62227604  1  0  0.107647  0.125734  0  1.030841  0
H  H17  1  0.03372649  0.60585557  0.12227533  1  0  0.107688  0.12584  0  1.030808  0
H  H18  1  0.03371757  0.10584382  0.37772419  1  0  0.10763  0.125718  0  1.030857  0
H  H19  1  0.96627689  0.39414953  0.87772539  1  0  0.107684  0.125798  0  1.030905  0
H  H20  1  0.73503383  0.01048701  0.60069331  1  0  0.101781  0.10817  0  1.038379  0
H  H21  1  0.26496321  0.48951465  0.10069258  1  0  0.10179  0.108191  0  1.038362  0
H  H22  1  0.26496315  0.98951039  0.39930692  1  0  0.101789  0.108183  0  1.038416  0
H  H23  1  0.73503670  0.51048606  0.89930665  1  0  0.101788  0.108179  0  1.038409  0
H  H24  1  0.51721928  0.12992048  0.64491169  1  0  0.107083  0.111655  0  1.021292  0
H  H25  1  0.48277018  0.37007592  0.14491105  1  0  0.107081  0.111689  0  1.02129  0
H  H26  1  0.48277693  0.87007802  0.35508854  1  0  0.107066  0.111653  0  1.021214  0
H  H27  1  0.51722442  0.62991929  0.85508818  1  0  0.10706  0.111654  0  1.021295  0
H  H28  1  0.37370858  0.20231887  0.74427781  1  0  0.106078  0.11026  0  1.01927  0
H  H29  1  0.62628484  0.29767921  0.24427723  1  0  0.106062  0.11021  0  1.019304  0
H  H30  1  0.62629133  0.79768184  0.25572241  1  0  0.106062  0.110242  0  1.019194  0
H  H31  1  0.37370790  0.70231489  0.75572250  1  0  0.106053  0.110239  0  1.019256  0
H  H32  1  0.47375803  0.15787243  0.85930130  1  0  0.120609  0.098892  0  0.992378  0
H  H33  1  0.52623818  0.34212741  0.35930067  1  0  0.120626  0.098928  0  0.992336  0
H  H34  1  0.52624295  0.84213047  0.14069942  1  0  0.12063  0.098931  0  0.992358  0
H  H35  1  0.47375642  0.65786780  0.64069856  1  0  0.120633  0.098931  0  0.992337  0
H  H36  1  0.81001218  0.51134887  0.04260753  1  0  0.10688  0.117555  0  1.004636  0
H  H37  1  0.18998771  0.98864884  0.54260719  1  0  0.106866  0.117531  0  1.004686  0
H  H38  1  0.18998827  0.48865294  0.95739270  1  0  0.106853  0.117528  0  1.004672  0
H  H39  1  0.81000927  0.01134856  0.45739254  1  0  0.106874  0.117531  0  1.004721  0
C  C40  1  0.04068270  0.87605745  0.86124249  1  0  0.061671  0.126135  0  3.926887  0
C  C41  1  0.95931743  0.62394537  0.36124004  1  0  0.061656  0.126025  0  3.927045  0
C  C42  1  0.95932170  0.12394437  0.13876023  1  0  0.061726  0.126099  0  3.927177  0
C  C43  1  0.04068536  0.37605315  0.63876019  1  0  0.061628  0.125931  0  3.927056  0
C  C44  1  0.13242269  0.83066703  0.81012307  1  0  -0.084778  -0.13344  0  3.988391  0
C  C45  1  0.86757654  0.66933989  0.31012308  1  0  -0.084766  -0.133288  0  3.987979  0
C  C46  1  0.86757674  0.16933806  0.18987466  1  0  -0.08478  -0.133477  0  3.988156  0
C  C47  1  0.13242044  0.33065752  0.68987865  1  0  -0.084789  -0.133298  0  3.988144  0
C  C48  1  0.08939669  0.84796603  0.74451535  1  0  -0.065299  -0.07963  0  3.932984  0
C  C49  1  0.91060596  0.65204052  0.24451089  1  0  -0.065245  -0.079686  0  3.93281  0
C  C50  1  0.91060322  0.15203468  0.25548837  1  0  -0.065286  -0.079558  0  3.932839  0
C  C51  1  0.08939527  0.34796019  0.75548884  1  0  -0.065237  -0.079646  0  3.932923  0
C  C52  1  0.95639996  0.91261061  0.73009227  1  0  -0.003016  0.043411  0  3.998554  0
C  C53  1  0.04359809  0.58739475  0.23009206  1  0  -0.003081  0.043479  0  3.998719  0
C  C54  1  0.04359732  0.08739009  0.26990646  1  0  -0.003064  0.043375  0  3.998669  0
C  C55  1  0.95640104  0.41260705  0.76990866  1  0  -0.003108  0.043386  0  3.998756  0
C  C56  1  0.90460395  0.93381730  0.66339082  1  0  -0.082119  -0.117989  0  3.949055  0
C  C57  1  0.09539410  0.56618878  0.16339014  1  0  -0.08215  -0.118145  0  3.94893  0
C  C58  1  0.09539226  0.06618120  0.33660841  1  0  -0.082131  -0.118016  0  3.949156  0
C  C59  1  0.90460820  0.43381413  0.83660959  1  0  -0.082114  -0.118062  0  3.948996  0
C  C60  1  0.77525097  0.99651565  0.65160217  1  0  -0.083747  -0.113363  0  3.974315  0
C  C61  1  0.22474800  0.50348707  0.15160204  1  0  -0.083779  -0.113428  0  3.974158  0
C  C62  1  0.22474523  0.00348285  0.34839756  1  0  -0.083739  -0.113373  0  3.97446  0
C  C63  1  0.77524982  0.49651473  0.84839869  1  0  -0.083788  -0.113401  0  3.97417  0
C  C64  1  0.68749691  0.04264483  0.70533159  1  0  -0.00405  0.036804  0  4.014877  0
C  C65  1  0.31249518  0.45735631  0.20533237  1  0  -0.003998  0.036933  0  4.014733  0
C  C66  1  0.31250246  0.95735478  0.29466764  1  0  -0.004067  0.036776  0  4.014832  0
C  C67  1  0.68750181  0.54264109  0.79466686  1  0  -0.004016  0.036816  0  4.014974  0
C  C68  1  0.55500116  0.10982237  0.69544512  1  0  -0.063294  -0.066836  0  3.904924  0
C  C69  1  0.44499241  0.39017652  0.19544396  1  0  -0.063306  -0.066901  0  3.90493  0
C  C70  1  0.44499822  0.89017723  0.30455411  1  0  -0.063262  -0.0668  0  3.904866  0
C  C71  1  0.55500272  0.60981978  0.80455527  1  0  -0.063298  -0.06687  0  3.904965  0
C  C72  1  0.47661062  0.15111158  0.75016392  1  0  -0.086651  -0.132887  0  3.994809  0
C  C73  1  0.52338339  0.34888763  0.25016479  1  0  -0.08664  -0.132887  0  3.994921  0
C  C74  1  0.52338744  0.84888802  0.24983581  1  0  -0.086628  -0.132872  0  3.994793  0
C  C75  1  0.47661305  0.65110868  0.74983444  1  0  -0.086559  -0.132801  0  3.994923  0
C  C76  1  0.53098010  0.12670669  0.81457517  1  0  0.059282  0.113892  0  3.940491  0
C  C77  1  0.46901574  0.37329289  0.31457402  1  0  0.059298  0.113874  0  3.940571  0
C  C78  1  0.46902166  0.87329512  0.18542505  1  0  0.059251  0.113842  0  3.940497  0
C  C79  1  0.53097807  0.62670340  0.68542570  1  0  0.059267  0.113853  0  3.940579  0
C  C80  1  0.73467768  0.02246009  0.77231832  1  0  0.117112  0.115381  0  3.990012  0
C  C81  1  0.26531783  0.47753925  0.27231808  1  0  0.117135  0.115423  0  3.990131  0
C  C82  1  0.26532355  0.97754063  0.22768141  1  0  0.117113  0.115396  0  3.990058  0
C  C83  1  0.73467994  0.52245706  0.72768164  1  0  0.117105  0.115446  0  3.990207  0
C  C84  1  0.87112558  0.95554096  0.78505345  1  0  0.114885  0.116411  0  3.983652  0
C  C85  1  0.12886999  0.54446141  0.28505228  1  0  0.114897  0.1163  0  3.98372  0
C  C86  1  0.12887302  0.04445974  0.21494727  1  0  0.114925  0.116409  0  3.983547  0
C  C87  1  0.87112885  0.45553709  0.71494745  1  0  0.114904  0.116343  0  3.983705  0
C  C88  1  0.80254274  0.77927920  0.03565375  1  0  0.204837  0.581434  0  4.21994  0
C  C89  1  0.19746105  0.72071849  0.53565471  1  0  0.204859  0.581383  0  4.219818  0
C  C90  1  0.19745586  0.22072150  0.96434897  1  0  0.204773  0.581243  0  4.220158  0
C  C91  1  0.80254330  0.27927785  0.46434502  1  0  0.204774  0.581279  0  4.220011  0
C  C92  1  0.64288584  0.63653699  0.01746573  1  0  -0.018547  -0.06687  0  3.959226  0
C  C93  1  0.35711941  0.86346389  0.51746743  1  0  -0.018591  -0.067027  0  3.959285  0
C  C94  1  0.35711778  0.36346592  0.98253250  1  0  -0.018563  -0.066922  0  3.95937  0
C  C95  1  0.64287864  0.13653572  0.48253380  1  0  -0.018556  -0.066905  0  3.959249  0
C  C96  1  0.46710908  0.63129762  0.99269589  1  0  -0.010235  -0.039  0  3.951833  0
C  C97  1  0.53289367  0.86870377  0.49269778  1  0  -0.010243  -0.038894  0  3.951614  0
C  C98  1  0.53289453  0.36870530  0.00730384  1  0  -0.010266  -0.039028  0  3.951829  0
C  C99  1  0.46710517  0.13129474  0.50730345  1  0  -0.010264  -0.039009  0  3.951921  0
C  C100  1  0.41671777  0.76534831  0.98660486  1  0  0.205259  0.596088  0  4.25427  0
C  C101  1  0.58329469  0.73465416  0.48660868  1  0  0.205233  0.596034  0  4.254256  0
C  C102  1  0.58329297  0.23465572  0.01339238  1  0  0.205271  0.596188  0  4.254235  0
C  C103  1  0.41671390  0.26534547  0.51339554  1  0  0.205236  0.59613  0  4.25424  0
C  C104  1  0.67207320  0.50493768  0.02437668  1  0  -0.086186  -0.129869  0  3.96681  0
C  C105  1  0.32792816  0.99506323  0.52437695  1  0  -0.086162  -0.129792  0  3.966878  0
C  C106  1  0.32793042  0.49506523  0.97562255  1  0  -0.086199  -0.129858  0  3.966865  0
C  C107  1  0.67207385  0.00493639  0.47562327  1  0  -0.086174  -0.129814  0  3.966689  0
N  N108  1  0.91342436  0.93537426  0.84912507  1  0  -0.320732  -0.285364  0  3.506055  0
N  N109  1  0.08656909  0.56462847  0.34912538  1  0  -0.320761  -0.28531  0  3.506203  0
N  N110  1  0.08657189  0.06462973  0.15087416  1  0  -0.320742  -0.285295  0  3.506248  0
N  N111  1  0.91342975  0.43537004  0.65087535  1  0  -0.320691  -0.285227  0  3.506175  0
N  N112  1  0.65647528  0.06502837  0.82485963  1  0  -0.321093  -0.261276  0  3.498452  0
N  N113  1  0.34352304  0.43497347  0.32485793  1  0  -0.321153  -0.261276  0  3.498632  0
N  N114  1  0.34352703  0.93497454  0.17514059  1  0  -0.321116  -0.261272  0  3.49856  0
N  N115  1  0.65647472  0.56502284  0.67514130  1  0  -0.321158  -0.261347  0  3.498541  0
O  O116  1  0.78574790  0.90043226  0.02271409  1  0  -0.334014  -0.581998  0  2.344021  0
O  O117  1  0.21426158  0.59956647  0.52271397  1  0  -0.334029  -0.581969  0  2.343973  0
O  O118  1  0.21425966  0.09957067  0.97728714  1  0  -0.334015  -0.581946  0  2.344091  0
O  O119  1  0.78574096  0.40043424  0.47728476  1  0  -0.334026  -0.581984  0  2.343895  0
O  O120  1  0.94656428  0.76892665  0.06397103  1  0  -0.323252  -0.556762  0  2.282961  0
O  O121  1  0.05344315  0.73107011  0.56397438  1  0  -0.323287  -0.556774  0  2.282958  0
O  O122  1  0.05343246  0.23107295  0.93603368  1  0  -0.323231  -0.556662  0  2.283056  0
O  O123  1  0.94655700  0.26892840  0.43602734  1  0  -0.323228  -0.556693  0  2.283171  0
O  O124  1  0.44803533  0.83481516  0.93179581  1  0  -0.343114  -0.591906  0  2.212297  0
O  O125  1  0.55196639  0.66518478  0.43179357  1  0  -0.343159  -0.591971  0  2.211869  0
O  O126  1  0.55196960  0.16518776  0.06820741  1  0  -0.343127  -0.591974  0  2.211785  0
O  O127  1  0.44803533  0.33481154  0.56820466  1  0  -0.34308  -0.591898  0  2.212315  0
O  O128  1  0.33646356  0.79023558  0.03800561  1  0  -0.318987  -0.540867  0  2.309284  0
O  O129  1  0.66354795  0.70976983  0.53800394  1  0  -0.318906  -0.540774  0  2.309645  0
O  O130  1  0.66354059  0.20976843  0.96199711  1  0  -0.318972  -0.540858  0  2.309723  0
O  O131  1  0.33645621  0.29023418  0.46199430  1  0  -0.318993  -0.540918  0  2.309212  0
