# generated using pymatgen
data_DyH6C7SO8
_symmetry_space_group_name_H-M   'P 1'
_cell_length_a   9.69036229
_cell_length_b   10.85698329
_cell_length_c   12.41216949
_cell_angle_alpha   105.19327002
_cell_angle_beta   90.00171594
_cell_angle_gamma   116.50328201
_symmetry_Int_Tables_number   1
_chemical_formula_structural   DyH6C7SO8
_chemical_formula_sum   'Dy4 H24 C28 S4 O32'
_cell_volume   1117.38579836
_cell_formula_units_Z   4
loop_
 _symmetry_equiv_pos_site_id
 _symmetry_equiv_pos_as_xyz
  1  'x, y, z'
loop_
 _atom_site_type_symbol
 _atom_site_label
 _atom_site_symmetry_multiplicity
 _atom_site_fract_x
 _atom_site_fract_y
 _atom_site_fract_z
 _atom_site_occupancy
 _atom_site_pbe_bader_spin_density
 _atom_site_pbe_cm5_charge
 _atom_site_pbe_ddec_charge
 _atom_site_pbe_ddec_spin_density
 _atom_site_pbe_ddec_sum_bond_order
 _atom_site_pbe_magmom
Dy  Dy0  1  0.97960562  0.99999182  0.24999587  1  0  1.525718  2.066768  0  2.214543  0
Dy  Dy1  1  0.02039503  0.00000875  0.75000527  1  0  1.525738  2.066688  0  2.214621  0
Dy  Dy2  1  0.48191400  0.99995629  0.25001759  1  0  1.507433  2.145609  0  2.077447  0
Dy  Dy3  1  0.51808831  0.00004965  0.74998316  1  0  1.507466  2.145702  0  2.07737  0
H  H4  1  0.51865749  0.28165078  0.40219179  1  0  0.33247  0.417557  0  0.860805  0
H  H5  1  0.23690011  0.71818747  0.09775803  1  0  0.332388  0.417793  0  0.86039  0
H  H6  1  0.48133944  0.71834440  0.59780813  1  0  0.332487  0.417583  0  0.860908  0
H  H7  1  0.76309896  0.28181201  0.90223964  1  0  0.332398  0.417788  0  0.860401  0
H  H8  1  0.34997941  0.16689478  0.41697361  1  0  0.306522  0.407286  0  0.917195  0
H  H9  1  0.18300603  0.83296308  0.08296524  1  0  0.306448  0.407306  0  0.917339  0
H  H10  1  0.65001654  0.83310255  0.58302600  1  0  0.306487  0.407236  0  0.917276  0
H  H11  1  0.81699669  0.16703748  0.91703509  1  0  0.306425  0.407278  0  0.917377  0
H  H12  1  0.67479143  0.95157099  0.40589513  1  0  0.30903  0.407794  0  0.921843  0
H  H13  1  0.72315769  0.04833877  0.09410965  1  0  0.308913  0.407471  0  0.92218  0
H  H14  1  0.32520712  0.04842742  0.59410472  1  0  0.309011  0.407752  0  0.921895  0
H  H15  1  0.27684094  0.95166395  0.90589198  1  0  0.308913  0.407439  0  0.922215  0
H  H16  1  0.62569529  0.05400193  0.49264841  1  0  0.318344  0.421026  0  0.889962  0
H  H17  1  0.57162727  0.94596067  0.00735078  1  0  0.318153  0.421004  0  0.889935  0
H  H18  1  0.37430689  0.94599756  0.50735168  1  0  0.318341  0.421047  0  0.889943  0
H  H19  1  0.42837544  0.05403989  0.99264795  1  0  0.3182  0.42106  0  0.889864  0
H  H20  1  0.76326039  0.58223377  0.09538277  1  0  0.112237  0.127299  0  0.994968  0
H  H21  1  0.18103781  0.41772724  0.40463171  1  0  0.112064  0.126506  0  0.994871  0
H  H22  1  0.23673868  0.41776570  0.90461410  1  0  0.11218  0.127264  0  0.994944  0
H  H23  1  0.81896168  0.58226687  0.59536878  1  0  0.112064  0.126511  0  0.994957  0
H  H24  1  0.62870450  0.30742235  0.09652350  1  0  0.112965  0.128545  0  1.006797  0
H  H25  1  0.32118852  0.69258733  0.40356492  1  0  0.112621  0.128377  0  1.006834  0
H  H26  1  0.37129359  0.69257929  0.90347708  1  0  0.112971  0.128596  0  1.006814  0
H  H27  1  0.67881465  0.30741001  0.59643549  1  0  0.112597  0.128349  0  1.006859  0
C  C28  1  0.55740587  0.59218701  0.15576690  1  0  -0.01784  -0.123013  0  3.951061  0
C  C29  1  0.96518292  0.40777922  0.34429804  1  0  -0.018083  -0.124034  0  3.951546  0
C  C30  1  0.44259535  0.40781676  0.84423014  1  0  -0.017881  -0.123218  0  3.951334  0
C  C31  1  0.03482231  0.59221811  0.65569995  1  0  -0.018127  -0.124146  0  3.95155  0
C  C32  1  0.64823900  0.52479054  0.11822930  1  0  -0.09291  -0.111318  0  4.010439  0
C  C33  1  0.12340608  0.47515780  0.38184156  1  0  -0.092977  -0.109567  0  4.008671  0
C  C34  1  0.35175958  0.47521001  0.88176700  1  0  -0.092787  -0.111165  0  4.010304  0
C  C35  1  0.87659919  0.52484168  0.61815772  1  0  -0.092942  -0.109516  0  4.00876  0
C  C36  1  0.57711831  0.38004686  0.11894605  1  0  -0.093167  -0.104945  0  3.989975  0
C  C37  1  0.19699561  0.61991881  0.38115778  1  0  -0.093062  -0.106321  0  3.990755  0
C  C38  1  0.42288189  0.61995693  0.88105421  1  0  -0.093155  -0.105003  0  3.989961  0
C  C39  1  0.80300608  0.38008176  0.61884417  1  0  -0.093078  -0.106271  0  3.990764  0
C  C40  1  0.43332328  0.33957158  0.15783873  1  0  -0.027707  -0.140111  0  3.969073  0
C  C41  1  0.09363584  0.66040657  0.34231023  1  0  -0.027394  -0.138356  0  3.967801  0
C  C42  1  0.56667589  0.66043221  0.84216153  1  0  -0.027662  -0.14008  0  3.969183  0
C  C43  1  0.90636369  0.33958969  0.65768913  1  0  -0.027405  -0.138493  0  3.967896  0
C  C44  1  0.59903880  0.74545468  0.17657379  1  0  0.229281  0.66752  0  4.193762  0
C  C45  1  0.85360820  0.25451953  0.32349700  1  0  0.230161  0.66969  0  4.190857  0
C  C46  1  0.40096503  0.25455019  0.82342752  1  0  0.229279  0.667669  0  4.193715  0
C  C47  1  0.14640017  0.74547995  0.67650309  1  0  0.230161  0.669678  0  4.19101  0
C  C48  1  0.33584629  0.20275427  0.18197302  1  0  0.220472  0.637793  0  4.238185  0
C  C49  1  0.13309315  0.79721321  0.31810841  1  0  0.219701  0.636533  0  4.239524  0
C  C50  1  0.66415023  0.79724629  0.81802651  1  0  0.220396  0.63775  0  4.238171  0
C  C51  1  0.86690688  0.20278197  0.68189071  1  0  0.219683  0.636589  0  4.239499  0
C  C52  1  0.91113968  0.94764817  0.49154251  1  0  0.228423  0.515027  0  4.173385  0
C  C53  1  0.96349252  0.05234245  0.00844979  1  0  0.228152  0.514952  0  4.173232  0
C  C54  1  0.08885874  0.05234380  0.50845910  1  0  0.228403  0.515045  0  4.173518  0
C  C55  1  0.03649730  0.94765915  0.99154273  1  0  0.22815  0.514905  0  4.173227  0
S  S56  1  0.38450858  0.47796364  0.19056059  1  0  0.112621  0.188414  0  2.909384  0
S  S57  1  0.90645327  0.52197391  0.30950327  1  0  0.112854  0.188238  0  2.908528  0
S  S58  1  0.61549319  0.52204122  0.80943992  1  0  0.112646  0.188497  0  2.909476  0
S  S59  1  0.09354833  0.47802235  0.69049609  1  0  0.112874  0.188299  0  2.908505  0
O  O60  1  0.73730481  0.83031913  0.16680769  1  0  -0.416468  -0.683149  0  2.347316  0
O  O61  1  0.90705984  0.16967644  0.33325483  1  0  -0.41697  -0.684421  0  2.346115  0
O  O62  1  0.26269789  0.16968140  0.83318620  1  0  -0.416529  -0.683236  0  2.347341  0
O  O63  1  0.09294701  0.83032414  0.66674954  1  0  -0.416922  -0.684384  0  2.346157  0
O  O64  1  0.49443821  0.78372015  0.20573569  1  0  -0.401778  -0.668738  0  2.284392  0
O  O65  1  0.71072442  0.21621830  0.29441601  1  0  -0.401563  -0.668503  0  2.283099  0
O  O66  1  0.50557295  0.21628904  0.79427063  1  0  -0.401741  -0.668783  0  2.284319  0
O  O67  1  0.28928036  0.78378226  0.70558433  1  0  -0.401551  -0.668448  0  2.283221  0
O  O68  1  0.38293236  0.10686931  0.15660221  1  0  -0.410134  -0.691149  0  2.359292  0
O  O69  1  0.27607619  0.89304214  0.34348076  1  0  -0.409746  -0.690487  0  2.359659  0
O  O70  1  0.61706263  0.89313231  0.84339515  1  0  -0.410141  -0.691162  0  2.359139  0
O  O71  1  0.72392339  0.10695628  0.65651990  1  0  -0.409678  -0.690453  0  2.35977  0
O  O72  1  0.21439564  0.18789168  0.22780343  1  0  -0.387586  -0.659737  0  2.304662  0
O  O73  1  0.02659677  0.81213169  0.27218818  1  0  -0.387119  -0.659573  0  2.304012  0
O  O74  1  0.78560564  0.81211427  0.77219974  1  0  -0.38754  -0.659675  0  2.304657  0
O  O75  1  0.97340380  0.18786458  0.72781279  1  0  -0.387195  -0.659649  0  2.304001  0
O  O76  1  0.83518386  0.91871295  0.39786244  1  0  -0.346578  -0.577206  0  2.364261  0
O  O77  1  0.91647686  0.08126772  0.10213749  1  0  -0.346894  -0.577592  0  2.363215  0
O  O78  1  0.16481204  0.08128224  0.60213749  1  0  -0.346543  -0.577132  0  2.364507  0
O  O79  1  0.08350724  0.91873071  0.89786558  1  0  -0.346857  -0.577462  0  2.36349  0
O  O80  1  0.85544406  0.90035084  0.57313688  1  0  -0.350437  -0.58824  0  2.345251  0
O  O81  1  0.95508747  0.09965025  0.92687000  1  0  -0.349777  -0.587672  0  2.345819  0
O  O82  1  0.14455336  0.09964326  0.42686038  1  0  -0.350455  -0.58829  0  2.345172  0
O  O83  1  0.04490915  0.90035463  0.07313454  1  0  -0.349855  -0.587817  0  2.345607  0
O  O84  1  0.45709029  0.18291038  0.40354264  1  0  -0.614626  -0.822927  0  2.079969  0
O  O85  1  0.27409638  0.81691277  0.09636078  1  0  -0.614321  -0.823304  0  2.078057  0
O  O86  1  0.54290512  0.81708589  0.59645994  1  0  -0.614606  -0.822917  0  2.080083  0
O  O87  1  0.72590373  0.18308672  0.90363932  1  0  -0.614315  -0.823276  0  2.07811  0
O  O88  1  0.60022556  0.99178099  0.41468347  1  0  -0.640139  -0.854398  0  2.110167  0
O  O89  1  0.60838899  0.00812247  0.08533385  1  0  -0.639726  -0.853725  0  2.110622  0
O  O90  1  0.39977455  0.00821849  0.58531663  1  0  -0.640116  -0.854433  0  2.11019  0
O  O91  1  0.39161282  0.99188454  0.91466473  1  0  -0.639759  -0.853738  0  2.110598  0
