# generated using pymatgen
data_MnH13C16N2O5
_symmetry_space_group_name_H-M   'P 1'
_cell_length_a   7.64805969
_cell_length_b   9.66358542
_cell_length_c   10.86512093
_cell_angle_alpha   84.11892839
_cell_angle_beta   72.05338281
_cell_angle_gamma   67.61136646
_symmetry_Int_Tables_number   1
_chemical_formula_structural   MnH13C16N2O5
_chemical_formula_sum   'Mn2 H26 C32 N4 O10'
_cell_volume   706.25811106
_cell_formula_units_Z   2
loop_
 _symmetry_equiv_pos_site_id
 _symmetry_equiv_pos_as_xyz
  1  'x, y, z'
loop_
 _atom_site_type_symbol
 _atom_site_label
 _atom_site_symmetry_multiplicity
 _atom_site_fract_x
 _atom_site_fract_y
 _atom_site_fract_z
 _atom_site_occupancy
 _atom_site_hle17_ddec_charge
 _atom_site_hle17_ddec_spin_density
 _atom_site_hle17_ddec_sum_bond_order
 _atom_site_hle17_magmom
 _atom_site_hse06_10hf_ddec_charge
 _atom_site_hse06_10hf_ddec_spin_density
 _atom_site_hse06_10hf_ddec_sum_bond_order
 _atom_site_hse06_10hf_magmom
 _atom_site_hse06_ddec_charge
 _atom_site_hse06_ddec_spin_density
 _atom_site_hse06_ddec_sum_bond_order
 _atom_site_hse06_magmom
 _atom_site_pbe_cm5_charge
 _atom_site_pbe_ddec_charge
 _atom_site_pbe_ddec_spin_density
 _atom_site_pbe_ddec_sum_bond_order
 _atom_site_pbe_magmom
Mn  Mn0  1  0.91965223  0.14783026  0.80282767  1  1.126229  4.796312  1.799171  4.648  0.946939  4.717802  2.323369  4.488  1.009326  4.767962  2.247351  4.564  0.611602  0.900578  4.662667  2.37828  4.41
Mn  Mn1  1  0.08035166  0.85216842  0.19717272  1  1.126343  4.796299  1.799063  4.648  0.947019  4.717802  2.323281  4.488  1.009412  4.767959  2.247261  4.564  0.611603  0.900654  4.662671  2.378188  4.41
H  H2  1  0.29615030  0.50026850  0.83471304  1  0.098615  -0.000193  0.948456  0.0  0.11153  -4.3e-05  1.016019  0.0  0.113801  -0.00011  1.015181  0.0  0.096452  0.110336  2e-05  1.016245  0.0
H  H3  1  0.70386478  0.49972678  0.16528058  1  0.098634  -0.00019  0.948382  0.0  0.11154  -4.3e-05  1.015947  0.0  0.113811  -0.00011  1.015107  0.0  0.096419  0.110345  2e-05  1.016175  0.0
H  H4  1  0.28693430  0.53444243  0.99373283  1  0.114448  -0.00041  0.935493  0.0  0.130353  -0.000293  0.994296  0.0  0.132349  -0.000381  0.994272  0.0  0.106004  0.128984  -0.000177  0.994346  0.0
H  H5  1  0.71307886  0.46555398  0.00626019  1  0.114445  -0.000418  0.935488  0.0  0.130334  -0.000293  0.994306  0.0  0.13233  -0.000382  0.994282  0.0  0.105984  0.128968  -0.000177  0.994354  0.0
H  H6  1  0.09123752  0.36178498  0.07435686  1  0.082654  -0.000141  0.940608  0.0  0.092028  -6.8e-05  1.003329  0.0  0.094503  -0.000107  1.001837  0.0  0.102425  0.090448  4e-06  1.004245  0.0
H  H7  1  0.90878193  0.63820692  0.92563700  1  0.082627  -0.000134  0.940723  0.0  0.091993  -6.7e-05  1.003442  0.0  0.094479  -0.000107  1.001936  0.0  0.10242  0.090415  4e-06  1.004353  0.0
H  H8  1  0.21659511  0.82083770  0.87675031  1  0.089275  -0.000406  0.94698  0.0  0.095092  0.000138  1.013484  0.001  0.098478  -8.4e-05  1.010078  0.0  0.123759  0.091982  0.000354  1.017006  0.001
H  H9  1  0.78339361  0.17916108  0.12325345  1  0.089229  -0.00041  0.946959  0.0  0.095074  0.000138  1.01343  0.001  0.098456  -8.4e-05  1.010033  0.0  0.123708  0.091971  0.000354  1.016937  0.001
H  H10  1  0.53234358  0.61904035  0.76027983  1  0.118494  0.000146  0.938902  0.0  0.128903  0.000128  0.995796  0.0  0.132452  5.5e-05  0.99452  0.0  0.114052  0.126015  0.0002  0.997222  0.0
H  H11  1  0.46765127  0.38096286  0.23972124  1  0.118538  0.000145  0.93884  0.0  0.128959  0.000128  0.995716  0.0  0.13251  5.5e-05  0.994439  0.0  0.114081  0.12607  0.0002  0.997142  0.0
H  H12  1  0.66722260  0.63511474  0.51874885  1  0.103272  -0.000318  0.938753  0.0  0.117751  -0.000111  0.994163  0.0  0.120085  -0.000142  0.992977  0.0  0.112782  0.116034  -6.4e-05  0.995105  0.0
H  H13  1  0.33277504  0.36488845  0.48125437  1  0.103236  -0.000312  0.938795  0.0  0.117709  -0.000111  0.994212  0.0  0.120044  -0.000142  0.993026  0.0  0.112756  0.115992  -6.4e-05  0.995152  0.0
H  H14  1  0.63161290  0.77260635  0.31617479  1  0.110702  -5.3e-05  0.978471  0.0  0.121927  7.5e-05  1.037272  0.0  0.124955  -7e-06  1.03616  0.0  0.106058  0.119396  0.000159  1.038529  0.0
H  H15  1  0.36838590  0.22740017  0.68382787  1  0.110684  -5.8e-05  0.978515  0.0  0.12192  7.5e-05  1.037311  0.0  0.124935  -6e-06  1.036216  0.0  0.106036  0.11938  0.000159  1.038579  0.0
H  H16  1  0.44552053  0.99457400  0.20669674  1  0.117928  -9.4e-05  0.938911  0.0  0.129429  -1.2e-05  0.995323  0.0  0.132655  -8.4e-05  0.994171  0.0  0.114135  0.126481  7.7e-05  0.997181  0.0
H  H17  1  0.55447743  0.00543141  0.79330621  1  0.117924  -8.4e-05  0.938932  0.0  0.129434  -1.3e-05  0.995329  0.0  0.132659  -8.4e-05  0.99418  0.0  0.114146  0.126503  7.7e-05  0.997165  0.0
H  H18  1  0.75265111  0.38808410  0.60280008  1  0.079747  -0.000258  0.937531  0.0  0.089022  0.000282  1.001075  0.0  0.091683  0.00011  0.998289  0.0  0.119644  0.086831  0.000482  1.00359  0.001
H  H19  1  0.24734326  0.61192021  0.39720468  1  0.079816  -0.000263  0.937522  0.0  0.089077  0.000281  1.00107  0.0  0.09174  0.00011  0.998279  0.0  0.119659  0.086881  0.000482  1.003585  0.001
H  H20  1  0.86878816  0.43597606  0.36214419  1  0.116586  0.000129  0.971224  0.0  0.123012  -7e-06  1.035873  0.0  0.127167  -3.9e-05  1.033716  0.0  0.10497  0.119773  4.9e-05  1.037852  0.0
H  H21  1  0.13120119  0.56402718  0.63785994  1  0.116618  0.000131  0.971289  0.0  0.12305  -8e-06  1.035912  0.0  0.127207  -4e-05  1.033757  0.0  0.104965  0.119793  4.9e-05  1.037913  0.0
H  H22  1  0.16888038  0.24000118  0.22343752  1  0.114417  -0.000461  0.94744  0.0  0.122553  -0.000132  1.011274  0.0  0.126557  -0.0002  1.007283  0.0  0.113411  0.119391  -0.000114  1.014314  0.0
H  H23  1  0.83110873  0.76000542  0.77656451  1  0.114425  -0.000452  0.947401  0.0  0.122519  -0.000132  1.011303  0.0  0.126526  -0.000199  1.007305  0.0  0.113445  0.119356  -0.000114  1.014343  0.0
H  H24  1  0.65609312  0.06850864  0.96979056  1  0.415987  0.000306  0.898703  0.001  0.382919  0.001158  0.966288  0.002  0.395341  0.000839  0.948436  0.001  0.287517  0.37407  0.001427  0.978985  0.002
H  H25  1  0.34391269  0.93148892  0.03020951  1  0.41598  0.000306  0.89873  0.001  0.382911  0.001157  0.966317  0.002  0.395331  0.00084  0.948466  0.001  0.287503  0.374062  0.001427  0.979012  0.002
H  H26  1  0.85294452  0.91735552  0.97719994  1  0.434428  0.00051  0.86569  0.003  0.401116  0.001461  0.932631  0.004  0.41213  0.000934  0.916913  0.003  0.294846  0.393357  0.001922  0.94358  0.004
H  H27  1  0.14705987  0.08264206  0.02279768  1  0.434475  0.00051  0.865639  0.003  0.401174  0.001461  0.93256  0.004  0.412189  0.000934  0.91684  0.003  0.294844  0.393418  0.001921  0.943506  0.004
C  C28  1  0.46923461  0.31335547  0.92652289  1  0.705298  0.003477  3.827405  0.003  0.660074  0.006842  4.123962  0.006  0.693222  0.005119  4.119373  0.005  0.214311  0.637299  0.008597  4.125901  0.007
C  C29  1  0.53077202  0.68664320  0.07347597  1  0.705326  0.003465  3.827234  0.003  0.66008  0.006842  4.123822  0.006  0.693224  0.005116  4.119232  0.005  0.214327  0.637305  0.008596  4.125764  0.007
C  C30  1  0.28473157  0.45211744  0.93157856  1  -0.281766  0.001197  3.663741  0.001  -0.327411  0.001483  3.913822  0.001  -0.332812  0.000972  3.921524  0.001  -0.166617  -0.323878  0.002075  3.908352  0.002
C  C31  1  0.71527853  0.54787676  0.06841626  1  -0.281793  0.001222  3.663589  0.001  -0.32741  0.00148  3.913672  0.001  -0.332804  0.000974  3.921365  0.001  -0.166551  -0.323879  0.002076  3.908205  0.002
C  C32  1  0.09043139  0.42532599  0.98495143  1  -0.106106  0.000255  3.633686  0.0  -0.11453  0.000489  3.872856  0.001  -0.119167  0.000113  3.88609  0.0  -0.087612  -0.111243  0.000985  3.863671  0.001
C  C33  1  0.90957795  0.57467267  0.01504315  1  -0.105916  0.000228  3.633797  0.0  -0.114341  0.000489  3.87295  0.001  -0.118981  0.000113  3.886171  0.0  -0.087565  -0.111058  0.000985  3.86377  0.001
C  C34  1  0.06409207  0.33623571  0.88855131  1  0.668006  0.005662  3.81809  0.004  0.61841  0.010014  4.117787  0.007  0.651191  0.007843  4.112831  0.006  0.215598  0.595727  0.012062  4.11966  0.009
C  C35  1  0.93591779  0.66376184  0.11144233  1  0.667818  0.00569  3.818212  0.004  0.618275  0.010014  4.117811  0.007  0.651054  0.007843  4.112859  0.006  0.215552  0.595588  0.012061  4.119681  0.009
C  C36  1  0.27926554  0.82482583  0.77228890  1  0.160415  0.006098  3.654259  0.006  0.127519  0.009883  3.913034  0.008  0.136757  0.008039  3.928026  0.007  0.065638  0.120531  0.012529  3.904638  0.01
C  C37  1  0.72072401  0.17517408  0.22771273  1  0.160349  0.006101  3.654238  0.006  0.127459  0.009882  3.913023  0.008  0.136696  0.008036  3.928012  0.007  0.065621  0.120471  0.012528  3.904632  0.01
C  C38  1  0.45523540  0.71075390  0.70613563  1  -0.119305  -0.002931  3.72737  -0.002  -0.133972  -0.001607  3.986346  -0.001  -0.140602  -0.002566  4.006021  -0.001  -0.080203  -0.12974  -0.000933  3.973833  -0.001
C  C39  1  0.54475589  0.28924821  0.29386909  1  -0.119292  -0.00291  3.727238  -0.002  -0.133963  -0.001606  3.986201  -0.001  -0.140592  -0.002564  4.005876  -0.001  -0.080189  -0.129731  -0.000933  3.973686  -0.001
C  C40  1  0.52870606  0.71897876  0.57344838  1  -0.052308  0.005151  3.694874  0.004  -0.077447  0.008006  3.941224  0.006  -0.074479  0.006483  3.959186  0.005  -0.063197  -0.079375  0.01085  3.92875  0.008
C  C41  1  0.47128573  0.28102224  0.42655449  1  -0.052246  0.005113  3.694928  0.004  -0.077384  0.008005  3.941284  0.006  -0.074418  0.00648  3.959247  0.005  -0.063153  -0.079312  0.010847  3.928809  0.008
C  C42  1  0.42641938  0.84085501  0.50707656  1  0.026172  -0.00169  3.808022  -0.001  0.043262  -0.00104  4.038773  -0.001  0.040672  -0.001625  4.063235  -0.001  -0.002119  0.045136  -0.000654  4.02219  -0.001
C  C43  1  0.57357655  0.15914596  0.49292539  1  0.026041  -0.00166  3.808105  -0.001  0.043113  -0.00104  4.038845  -0.001  0.040524  -0.001623  4.063306  -0.001  -0.002181  0.044988  -0.000654  4.02226  -0.001
C  C44  1  0.25145562  0.95131798  0.58220306  1  0.121312  0.002339  3.783046  0.002  0.116862  0.00548  4.016841  0.004  0.120688  0.004184  4.040192  0.004  0.118661  0.114001  0.007258  4.001302  0.006
C  C45  1  0.74853809  0.04868189  0.41779948  1  0.121399  0.002342  3.783073  0.002  0.117023  0.005477  4.016777  0.004  0.120847  0.004184  4.040127  0.004  0.118677  0.114162  0.007256  4.001241  0.006
C  C46  1  0.49463875  0.85826638  0.37041174  1  -0.096187  -0.000355  3.712247  0.0  -0.122591  0.000972  3.971398  0.001  -0.125622  0.000379  3.993438  0.001  -0.083559  -0.120506  0.001782  3.957188  0.002
C  C47  1  0.50535750  0.14173682  0.62959086  1  -0.096093  -0.000322  3.712247  0.0  -0.122511  0.000972  3.971378  0.001  -0.125531  0.000378  3.993429  0.001  -0.083538  -0.120419  0.001782  3.95718  0.002
C  C48  1  0.39343917  0.98015321  0.31067929  1  -0.085514  0.000724  3.706144  0.0  -0.111213  0.001386  3.969479  0.0  -0.114028  0.000982  3.990614  0.0  -0.077104  -0.109867  0.001699  3.956741  0.0
C  C49  1  0.60655792  0.01985109  0.68932302  1  -0.085614  0.000666  3.70624  0.0  -0.111313  0.001387  3.969592  0.0  -0.114129  0.000983  3.990728  0.0  -0.077134  -0.10998  0.0017  3.956848  0.0
C  C50  1  0.21720389  0.09423186  0.38365440  1  0.02156  -0.002768  3.791941  -0.002  0.037184  -0.000854  4.026775  -0.001  0.034442  -0.001885  4.050317  -0.002  0.000171  0.039267  -0.000132  4.011303  -0.001
C  C51  1  0.78278960  0.90577135  0.61634882  1  0.021694  -0.002724  3.79192  -0.002  0.0373  -0.000856  4.026766  -0.001  0.034556  -0.001886  4.050308  -0.002  0.000212  0.039381  -0.000132  4.011302  -0.001
C  C52  1  0.14559004  0.08013336  0.51944270  1  0.124709  0.004378  3.760201  0.005  0.117939  0.007503  3.996896  0.007  0.122365  0.006022  4.018867  0.006  0.118304  0.114682  0.009394  3.98246  0.008
C  C53  1  0.85440533  0.91986874  0.48055743  1  0.124652  0.004359  3.76029  0.004  0.117857  0.007504  3.996954  0.007  0.122284  0.006025  4.018925  0.006  0.118293  0.1146  0.009395  3.982521  0.008
C  C54  1  0.88429561  0.30785239  0.53801815  1  0.15283  0.009143  3.687676  0.009  0.119565  0.012918  3.945397  0.011  0.129186  0.011011  3.961285  0.01  0.060272  0.112014  0.015915  3.936579  0.013
C  C55  1  0.11569513  0.69215084  0.46198567  1  0.152822  0.009147  3.687896  0.009  0.119565  0.012918  3.945577  0.011  0.129186  0.011012  3.961466  0.01  0.06026  0.11202  0.015914  3.93675  0.013
C  C56  1  0.94682980  0.33267202  0.40459472  1  -0.130524  -0.005968  3.723419  -0.004  -0.144947  -0.004008  3.982275  -0.002  -0.153016  -0.005276  4.003025  -0.003  -0.086498  -0.139878  -0.003226  3.970188  -0.002
C  C57  1  0.05316251  0.66732786  0.59540721  1  -0.130597  -0.005944  3.723469  -0.004  -0.145025  -0.004009  3.982293  -0.002  -0.1531  -0.005277  4.003047  -0.003  -0.086505  -0.139941  -0.003226  3.970213  -0.002
C  C58  1  0.11323784  0.22555015  0.32722199  1  -0.022763  0.007916  3.644567  0.007  -0.051022  0.010784  3.897025  0.008  -0.046632  0.009162  3.912458  0.007  -0.056025  -0.054585  0.014072  3.887446  0.011
C  C59  1  0.88675478  0.77445196  0.67277968  1  -0.022781  0.00787  3.644517  0.007  -0.051022  0.010785  3.897011  0.008  -0.046633  0.009162  3.912451  0.007  -0.056087  -0.054584  0.014072  3.887427  0.011
N  N60  1  0.18046199  0.94222496  0.71240853  1  -0.365614  0.026338  3.244161  0.013  -0.301001  0.03196  3.521268  0.014  -0.320702  0.027598  3.536476  0.011  -0.316088  -0.287191  0.03655  3.511643  0.018
N  N61  1  0.81953032  0.05777492  0.28759341  1  -0.365562  0.026338  3.244144  0.013  -0.301028  0.031962  3.521307  0.014  -0.320729  0.027597  3.536516  0.011  -0.316039  -0.287219  0.036551  3.511685  0.018
N  N62  1  0.98123893  0.18601126  0.59454581  1  -0.368055  0.023594  3.266405  0.006  -0.304333  0.028345  3.556006  0.005  -0.3237  0.023249  3.567986  0.001  -0.321861  -0.29104  0.033246  3.548645  0.009
N  N63  1  0.01875454  0.81399196  0.40545556  1  -0.368132  0.023601  3.26665  0.006  -0.304341  0.028342  3.556152  0.005  -0.32371  0.023246  3.568136  0.001  -0.32181  -0.291045  0.033244  3.548782  0.009
O  O64  1  0.45312817  0.20813469  0.00319398  1  -0.62473  0.001496  1.9406  0.002  -0.565119  0.003553  2.155472  0.004  -0.590357  0.002317  2.146851  0.003  -0.314052  -0.547198  0.004849  2.161019  0.006
O  O65  1  0.54687274  0.79186736  0.99680677  1  -0.624701  0.001501  1.940581  0.002  -0.565091  0.003553  2.155463  0.004  -0.590328  0.002315  2.146844  0.003  -0.314057  -0.547169  0.004849  2.161011  0.006
O  O66  1  0.63144903  0.31506884  0.84502213  1  -0.681271  0.035932  1.991391  0.025  -0.612631  0.042  2.264278  0.027  -0.645501  0.036967  2.250834  0.023  -0.333452  -0.587405  0.047204  2.272075  0.032
O  O67  1  0.36855697  0.68492538  0.15497635  1  -0.681365  0.035933  1.991223  0.025  -0.612699  0.042001  2.264113  0.027  -0.645576  0.036969  2.250684  0.023  -0.333483  -0.587473  0.047205  2.27191  0.032
O  O68  1  0.02833292  0.21520316  0.93038478  1  -0.689259  0.038111  2.063945  0.025  -0.604998  0.04097  2.32765  0.023  -0.639402  0.036336  2.31324  0.019  -0.323238  -0.578834  0.045581  2.335983  0.027
O  O69  1  0.97168982  0.78478761  0.06960754  1  -0.689164  0.038112  2.064205  0.025  -0.604882  0.04097  2.327842  0.023  -0.639287  0.036336  2.313437  0.019  -0.32315  -0.578703  0.04558  2.336164  0.027
O  O70  1  0.06925571  0.38179218  0.77602609  1  -0.609976  0.006898  1.905704  0.004  -0.559559  0.014038  2.130382  0.011  -0.583763  0.011573  2.122595  0.009  -0.30656  -0.541089  0.016698  2.134688  0.013
O  O71  1  0.93074950  0.61820652  0.22396941  1  -0.609929  0.006873  1.905421  0.004  -0.55956  0.014039  2.130104  0.011  -0.583771  0.011572  2.122329  0.009  -0.306597  -0.541095  0.016698  2.134414  0.013
O  O72  1  0.79744518  0.00276534  0.92346453  1  -0.869761  0.039929  1.932948  0.028  -0.802685  0.050507  2.169109  0.034  -0.830286  0.044259  2.130054  0.029  -0.582456  -0.780578  0.056591  2.196171  0.04
O  O73  1  0.20255697  0.99723114  0.07653277  1  -0.869835  0.039931  1.932915  0.028  -0.802748  0.05051  2.16905  0.034  -0.830349  0.044261  2.130001  0.029  -0.582444  -0.780638  0.056594  2.196105  0.04
