# generated using pymatgen
data_Zn4H21C39N3O13
_symmetry_space_group_name_H-M   'P 1'
_cell_length_a   18.10905597
_cell_length_b   17.96561438
_cell_length_c   18.20938863
_cell_angle_alpha   119.77162429
_cell_angle_beta   90.06751379
_cell_angle_gamma   118.90208600
_symmetry_Int_Tables_number   1
_chemical_formula_structural   Zn4H21C39N3O13
_chemical_formula_sum   'Zn8 H42 C78 N6 O26'
_cell_volume   4269.09520650
_cell_formula_units_Z   2
loop_
 _symmetry_equiv_pos_site_id
 _symmetry_equiv_pos_as_xyz
  1  'x, y, z'
loop_
 _atom_site_type_symbol
 _atom_site_label
 _atom_site_symmetry_multiplicity
 _atom_site_fract_x
 _atom_site_fract_y
 _atom_site_fract_z
 _atom_site_occupancy
 _atom_site_pbe_bader_charge
 _atom_site_pbe_bader_spin_density
 _atom_site_pbe_cm5_charge
 _atom_site_pbe_ddec_charge
 _atom_site_pbe_ddec_spin_density
 _atom_site_pbe_ddec_sum_bond_order
 _atom_site_pbe_magmom
Zn  Zn0  1  0.15174221  0.10026488  0.06207107  1  1.305566  0  0.672727  0.968742  0  2.361087  0
Zn  Zn1  1  0.96936248  0.92663698  0.05691291  1  1.315265  0  0.676487  0.967551  0  2.35971  0
Zn  Zn2  1  0.97925758  0.92576167  0.88394825  1  1.312977  0  0.676837  0.971157  0  2.349559  0
Zn  Zn3  1  0.98307521  0.11237566  0.05568451  1  1.307405  0  0.673446  0.963133  0  2.351615  0
Zn  Zn4  1  0.39160607  0.92703750  0.47403530  1  1.311945  0  0.672995  0.964197  0  2.369344  0
Zn  Zn5  1  0.56021597  0.10878727  0.47481107  1  1.321801  0  0.681454  0.975062  0  2.340825  0
Zn  Zn6  1  0.56520849  0.92636036  0.46364303  1  1.311254  0  0.675383  0.966628  0  2.33939  0
Zn  Zn7  1  0.56447794  0.09950563  0.64560530  1  1.303534  0  0.677968  0.974298  0  2.35241  0
H  H8  1  0.26184493  0.14979938  0.31242075  1  0.106794  0  0.120363  0.093241  0  0.964949  0
H  H9  1  0.26195786  0.84084131  0.20954748  1  0.109025  0  0.112316  0.126948  0  0.994241  0
H  H10  1  0.26941316  0.81861318  0.04900606  1  0.023578  0  0.099456  0.096229  0  1.018293  0
H  H11  1  0.18875612  0.66517126  0.89190378  1  0.049771  0  0.101977  0.098207  0  0.993164  0
H  H12  1  0.02334396  0.56652469  0.83302187  1  0.0498  0  0.10011  0.095772  0  1.01083  0
H  H13  1  0.93980829  0.61928040  0.93333222  1  0.074038  0  0.10065  0.10008  0  1.003026  0
H  H14  1  0.02078814  0.77333705  0.08939751  1  0.090264  0  0.105652  0.116195  0  0.997999  0
H  H15  1  0.29609165  0.00363040  0.88123185  1  0.083741  0  0.119665  0.093725  0  0.96532  0
H  H16  1  0.25706029  0.05817354  0.64956462  1  0.111333  0  0.11394  0.12839  0  0.990093  0
H  H17  1  0.20807935  0.20837292  0.89898979  1  0.06678  0  0.100596  0.10067  0  1.005618  0
H  H18  1  0.12825732  0.28720001  0.89615405  1  0.051785  0  0.101745  0.098225  0  0.992736  0
H  H19  1  0.03300904  0.22038037  0.75099301  1  0.065339  0  0.095862  0.089418  0  1.040449  0
H  H20  1  0.01439923  0.07117325  0.61049457  1  0.063745  0  0.103268  0.100297  0  0.992407  0
H  H21  1  0.09477192  0.99237127  0.61317811  1  0.046008  0  0.106964  0.107684  0  0.989878  0
H  H22  1  0.25950481  0.42853119  0.11622560  1  0.06173  0  0.116069  0.085401  0  0.972838  0
H  H23  1  0.29860034  0.61941676  0.43588184  1  0.105694  0  0.114241  0.127911  0  0.985733  0
H  H24  1  0.32496430  0.50706092  0.46222363  1  0.074616  0  0.101134  0.099514  0  1.002248  0
H  H25  1  0.26646094  0.42551943  0.54394857  1  0.051941  0  0.102505  0.098978  0  0.991537  0
H  H26  1  0.10566413  0.28590554  0.48989881  1  0.045224  0  0.099354  0.093759  0  0.997302  0
H  H27  1  0.00384369  0.22969128  0.35395429  1  0.133603  0  0.090297  0.08347  0  1.089123  0
H  H28  1  0.06240241  0.31098555  0.27306233  1  0.065211  0  0.100392  0.108866  0  1.01906  0
H  H29  1  0.90751465  0.60173431  0.74598589  1  0.094303  0  0.118616  0.091483  0  0.970662  0
H  H30  1  0.62191702  0.41618791  0.78383287  1  0.123763  0  0.113302  0.127038  0  0.992261  0
H  H31  1  0.72160919  0.71527486  0.83251296  1  0.066405  0  0.104449  0.107692  0  0.99655  0
H  H32  1  0.63312115  0.78323470  0.90517614  1  0.052475  0  0.103648  0.10076  0  0.991155  0
H  H33  1  0.54905034  0.72451886  0.99478471  1  0.078959  0  0.09545  0.089491  0  1.043852  0
H  H34  1  0.55914337  0.60255190  0.01508016  1  0.044371  0  0.103936  0.101489  0  0.990671  0
H  H35  1  0.64721271  0.53305727  0.94113369  1  0.040752  0  0.104661  0.104053  0  0.99518  0
H  H36  1  0.83261798  0.16786158  0.41545114  1  0.079374  0  0.118598  0.089179  0  0.982238  0
H  H37  1  0.70351065  0.88908512  0.09642573  1  0.119435  0  0.105755  0.118088  0  1.036843  0
H  H38  1  0.56189621  0.92563766  0.10406293  1  0.070734  0  0.104148  0.105693  0  0.991342  0
H  H39  1  0.39800847  0.79988581  0.03634153  1  0.02795  0  0.099049  0.093801  0  1.005807  0
H  H40  1  0.31904741  0.67186320  0.07448056  1  0.037797  0  0.099608  0.094988  0  0.998952  0
H  H41  1  0.40506608  0.66961121  0.17967513  1  0.135628  0  0.093175  0.089419  0  1.073875  0
H  H42  1  0.56859526  0.79480636  0.24626673  1  0.081379  0  0.104145  0.113004  0  0.997182  0
H  H43  1  0.61312102  0.86553813  0.69013669  1  0.093611  0  0.118996  0.091008  0  0.962634  0
H  H44  1  0.93087796  0.14311485  0.82607433  1  0.104823  0  0.107071  0.1182  0  1.024602  0
H  H45  1  0.91061942  0.28962008  0.83406733  1  0.067936  0  0.106905  0.10956  0  0.986246  0
H  H46  1  0.97845129  0.40143836  0.77913371  1  0.080136  0  0.098904  0.092778  0  1.023539  0
H  H47  1  0.95531923  0.32297437  0.61640543  1  0.055624  0  0.104141  0.100448  0  0.992704  0
H  H48  1  0.86402111  0.13072796  0.50910925  1  0.019138  0  0.099073  0.092329  0  1.021803  0
H  H49  1  0.79519578  0.01971324  0.56382538  1  0.088978  0  0.105204  0.111418  0  0.995942  0
C  C50  1  0.14742243  0.99776185  0.14911783  1  1.584798  0  0.236283  0.625884  0  4.168073  0
C  C51  1  0.20212377  0.99024443  0.20346098  1  -0.036082  0  -0.004638  -0.109411  0  3.912198  0
C  C52  1  0.26047443  0.07980521  0.28809263  1  0.571646  0  0.052425  0.073929  0  3.978823  0
C  C53  1  0.31478230  0.00044002  0.31264226  1  0.520341  0  0.113998  0.114859  0  4.000037  0
C  C54  1  0.25968573  0.90760107  0.22947971  1  -0.029597  0  -0.077157  -0.187011  0  3.915059  0
C  C55  1  0.20227328  0.90113044  0.17160325  1  0.011576  0  0.017952  0.094269  0  3.955389  0
C  C56  1  0.15061137  0.80679534  0.07940573  1  -0.045752  0  -0.011487  0.060166  0  3.995817  0
C  C57  1  0.19702874  0.77427670  0.02333046  1  -0.02153  0  -0.092314  -0.133185  0  3.986803  0
C  C58  1  0.15165608  0.68832359  0.93514354  1  -0.088383  0  -0.096403  -0.088609  0  4.052963  0
C  C59  1  0.05906425  0.63288727  0.90228253  1  0.015919  0  -0.095219  -0.094576  0  4.036956  0
C  C60  1  0.01216650  0.66304812  0.95823585  1  -0.057309  0  -0.09421  -0.080148  0  4.027659  0
C  C61  1  0.05749834  0.74965440  0.04619688  1  -0.016583  0  -0.090402  -0.124858  0  3.963232  0
C  C62  1  0.37685161  0.00750518  0.37442369  1  1.589613  0  0.236174  0.595136  0  4.137537  0
C  C63  1  0.16337278  0.03034502  0.88042949  1  1.557651  0  0.23091  0.61499  0  4.187669  0
C  C64  1  0.22208863  0.03686814  0.82321998  1  -0.015591  0  -0.007394  -0.117884  0  3.919532  0
C  C65  1  0.28679415  0.01701854  0.83063158  1  0.546501  0  0.053606  0.080332  0  3.974745  0
C  C66  1  0.32481381  0.02482018  0.71418416  1  0.583541  0  0.114304  0.118688  0  3.994165  0
C  C67  1  0.26262384  0.04550881  0.70138870  1  -0.035114  0  -0.07628  -0.187121  0  3.907794  0
C  C68  1  0.21163330  0.05602643  0.75894763  1  -0.008341  0  0.019496  0.100084  0  3.960189  0
C  C69  1  0.15685290  0.09503966  0.75622222  1  -0.031261  0  -0.009193  0.064489  0  4.005188  0
C  C70  1  0.16450280  0.17721842  0.83579077  1  -0.066394  0  -0.092182  -0.129985  0  3.980916  0
C  C71  1  0.12019606  0.22204389  0.83403099  1  -0.004016  0  -0.09563  -0.08839  0  4.042485  0
C  C72  1  0.06690062  0.18474000  0.75284926  1  -0.061519  0  -0.092575  -0.084188  0  4.016313  0
C  C73  1  0.05719036  0.10141482  0.67365995  1  -0.014463  0  -0.089521  -0.076893  0  4.0211  0
C  C74  1  0.10233219  0.05727856  0.67511993  1  -0.039994  0  -0.085468  -0.124519  0  3.966876  0
C  C75  1  0.38307008  0.01967944  0.65535098  1  1.561133  0  0.235018  0.591129  0  4.142935  0
C  C76  1  0.16562783  0.29701013  0.16040124  1  1.59892  0  0.233929  0.620123  0  4.185265  0
C  C77  1  0.22333008  0.41253924  0.22313773  1  -0.045478  0  -0.003464  -0.103816  0  3.914276  0
C  C78  1  0.26785176  0.46904189  0.18762034  1  0.560948  0  0.048502  0.064786  0  3.992226  0
C  C79  1  0.33140294  0.62266236  0.32327929  1  0.546441  0  0.115233  0.114629  0  4.008318  0
C  C80  1  0.28965598  0.57368351  0.36493021  1  -0.000262  0  -0.076367  -0.18663  0  3.919292  0
C  C81  1  0.23595659  0.46560233  0.31544013  1  0.004814  0  0.020133  0.098916  0  3.958977  0
C  C82  1  0.19813416  0.41406112  0.36145729  1  -0.016267  0  -0.014296  0.054264  0  4.01295  0
C  C83  1  0.25452160  0.44655089  0.43898463  1  -0.071527  0  -0.092142  -0.132772  0  3.991958  0
C  C84  1  0.22161491  0.40034343  0.48460050  1  -0.003298  0  -0.095729  -0.088534  0  4.056306  0
C  C85  1  0.13157873  0.32179635  0.45397770  1  -0.106274  0  -0.09419  -0.08774  0  4.02637  0
C  C86  1  0.07467972  0.28968066  0.37766548  1  -0.02814  0  -0.09751  -0.073526  0  4.010936  0
C  C87  1  0.10778785  0.33522523  0.33142357  1  -0.045673  0  -0.094171  -0.13084  0  3.95794  0
C  C88  1  0.38928869  0.73877334  0.37783174  1  1.549362  0  0.236955  0.592169  0  4.139869  0
C  C89  1  0.87979744  0.73540168  0.87565564  1  1.565491  0  0.22986  0.609527  0  4.189719  0
C  C90  1  0.81671305  0.62056679  0.81836157  1  0.044864  0  -0.008319  -0.124216  0  3.919722  0
C  C91  1  0.84356686  0.56186540  0.75484505  1  0.561666  0  0.054006  0.083509  0  3.971293  0
C  C92  1  0.71891690  0.40992889  0.71691375  1  0.501243  0  0.117467  0.126314  0  3.992244  0
C  C93  1  0.68642980  0.46079146  0.77858627  1  -0.102698  0  -0.077077  -0.190556  0  3.915757  0
C  C94  1  0.73366841  0.56871116  0.82891139  1  0.050495  0  0.021052  0.102344  0  3.954255  0
C  C95  1  0.69053644  0.61933207  0.88185788  1  0.000182  0  -0.009959  0.063219  0  4.001886  0
C  C96  1  0.68731510  0.69151661  0.87365253  1  -0.058325  0  -0.087148  -0.120553  0  3.959285  0
C  C97  1  0.63673719  0.72919830  0.91409963  1  -0.062394  0  -0.092741  -0.08562  0  4.028348  0
C  C98  1  0.58961648  0.69632899  0.96410142  1  -0.034296  0  -0.092424  -0.084445  0  4.017286  0
C  C99  1  0.59463049  0.62690784  0.97480572  1  -0.027799  0  -0.090995  -0.080228  0  4.027368  0
C  C100  1  0.64407006  0.58799425  0.93338072  1  -0.0125  0  -0.087776  -0.127494  0  3.977585  0
C  C101  1  0.66166750  0.29358704  0.65742859  1  1.60959  0  0.23753  0.594883  0  4.142595  0
C  C102  1  0.65789371  0.02450638  0.37401430  1  1.590305  0  0.236226  0.62487  0  4.172285  0
C  C103  1  0.71238587  0.02425914  0.31216993  1  -0.051418  0  -0.005133  -0.108991  0  3.932539  0
C  C104  1  0.80234024  0.10379824  0.34497508  1  0.562249  0  0.049155  0.064142  0  3.987142  0
C  C105  1  0.81909601  0.03037416  0.20743947  1  0.524511  0  0.118068  0.121371  0  4.004933  0
C  C106  1  0.72932903  0.94975394  0.16751027  1  -0.021134  0  -0.078954  -0.191912  0  3.918598  0
C  C107  1  0.67320207  0.94675898  0.22010570  1  0.001321  0  0.019122  0.098396  0  3.963279  0
C  C108  1  0.57598128  0.86837867  0.17942138  1  -0.032799  0  -0.011939  0.05454  0  4.013757  0
C  C109  1  0.52723093  0.86860329  0.11957145  1  -0.035138  0  -0.091462  -0.133512  0  3.991486  0
C  C110  1  0.43521393  0.79828615  0.08211712  1  -0.054548  0  -0.096804  -0.091021  0  4.058492  0
C  C111  1  0.39109693  0.72652001  0.10345984  1  -0.062269  0  -0.095445  -0.09295  0  4.027524  0
C  C112  1  0.43917230  0.72499292  0.16220060  1  -0.009241  0  -0.093802  -0.068106  0  3.998867  0
C  C113  1  0.53126615  0.79593933  0.20027085  1  -0.073982  0  -0.091658  -0.13076  0  3.956462  0
C  C114  1  0.88069551  0.03026565  0.15192409  1  1.613011  0  0.24206  0.601998  0  4.14525  0
C  C115  1  0.65541906  0.99789810  0.63992475  1  1.599556  0  0.233404  0.622366  0  4.180073  0
C  C116  1  0.71690249  0.99887072  0.69600418  1  0.03434  0  -0.00662  -0.11354  0  3.927763  0
C  C117  1  0.68387113  0.92713019  0.71821358  1  0.484393  0  0.049494  0.075315  0  3.983871  0
C  C118  1  0.82050342  0.00723998  0.81158034  1  0.542063  0  0.116097  0.126642  0  3.996413  0
C  C119  1  0.85988284  0.08342920  0.79474864  1  -0.030828  0  -0.079641  -0.192578  0  3.919046  0
C  C120  1  0.80821509  0.07776060  0.73278481  1  0.021619  0  0.017176  0.096936  0  3.970414  0
C  C121  1  0.84816957  0.14717597  0.70264340  1  -0.035277  0  -0.01015  0.058226  0  4.014037  0
C  C122  1  0.90081896  0.25502820  0.76289140  1  -0.06275  0  -0.086611  -0.128819  0  3.974771  0
C  C123  1  0.93870314  0.31772165  0.73177461  1  -0.078384  0  -0.091109  -0.079224  0  4.028287  0
C  C124  1  0.92566640  0.27376620  0.64054248  1  -0.070082  0  -0.091078  -0.088645  0  4.020512  0
C  C125  1  0.87410681  0.16641138  0.58037137  1  0.089603  0  -0.093085  -0.078556  0  4.02974  0
C  C126  1  0.83509100  0.10349860  0.61102568  1  -0.077271  0  -0.09098  -0.132233  0  3.964672  0
C  C127  1  0.87804213  0.00923687  0.87315163  1  1.588975  0  0.238665  0.60162  0  4.141195  0
N  N128  1  0.31656656  0.08637042  0.34201914  1  -1.173501  0  -0.316767  -0.267037  0  3.291309  0
N  N129  1  0.33880715  0.01279570  0.77888237  1  -1.144981  0  -0.317874  -0.271248  0  3.286873  0
N  N130  1  0.32273128  0.57192066  0.23604573  1  -1.183969  0  -0.304918  -0.257911  0  3.321418  0
N  N131  1  0.79587170  0.45871795  0.70341466  1  -1.224331  0  -0.32012  -0.280505  0  3.278016  0
N  N132  1  0.85537074  0.10821329  0.29407646  1  -1.183367  0  -0.303683  -0.257105  0  3.329611  0
N  N133  1  0.73448512  0.92879000  0.77338551  1  -1.187057  0  -0.322504  -0.28523  0  3.283782  0
O  O134  1  0.02158941  0.01707949  0.01522133  1  -1.217579  0  -0.573059  -1.035911  0  2.536686  0
O  O135  1  0.06348816  0.94632285  0.13315147  1  -1.171623  0  -0.30494  -0.543274  0  2.341345  0
O  O136  1  0.19183919  0.05875764  0.12634080  1  -1.159915  0  -0.307394  -0.53469  0  2.313278  0
O  O137  1  0.45500601  0.08912733  0.41617532  1  -1.16374  0  -0.305421  -0.526448  0  2.320573  0
O  O138  1  0.34424169  0.92919427  0.37849444  1  -1.170291  0  -0.314796  -0.542831  0  2.307642  0
O  O139  1  0.07986907  0.97170140  0.84004812  1  -1.161325  0  -0.308761  -0.538649  0  2.328207  0
O  O140  1  0.20224323  0.08088648  0.96359313  1  -1.170733  0  -0.31309  -0.548199  0  2.322392  0
O  O141  1  0.46432889  0.06151272  0.69256284  1  -1.161938  0  -0.305454  -0.526097  0  2.328402  0
O  O142  1  0.34474515  0.97442769  0.57294474  1  -1.164831  0  -0.314131  -0.541777  0  2.307882  0
O  O143  1  0.08505816  0.25799537  0.12278084  1  -1.169443  0  -0.308445  -0.543265  0  2.322693  0
O  O144  1  0.20297155  0.24912949  0.14799336  1  -1.149155  0  -0.305648  -0.533676  0  2.300094  0
O  O145  1  0.46738574  0.78127684  0.37272640  1  -1.165925  0  -0.301228  -0.524437  0  2.316959  0
O  O146  1  0.35421715  0.78419548  0.42595347  1  -1.166377  0  -0.311783  -0.5391  0  2.300751  0
O  O147  1  0.89053367  0.77979293  0.95901296  1  -1.156854  0  -0.30619  -0.540261  0  2.349103  0
O  O148  1  0.91973702  0.77867938  0.83682328  1  -1.164921  0  -0.312898  -0.54515  0  2.309028  0
O  O149  1  0.64907796  0.25215347  0.57434169  1  -1.162157  0  -0.303159  -0.521585  0  2.322385  0
O  O150  1  0.62887477  0.24824126  0.69648284  1  -1.163664  0  -0.311953  -0.541416  0  2.30594  0
O  O151  1  0.65326117  0.97524112  0.40760277  1  -1.17028  0  -0.309106  -0.54892  0  2.314172  0
O  O152  1  0.62221454  0.07397887  0.38715051  1  -1.163854  0  -0.301655  -0.525943  0  2.302627  0
O  O153  1  0.91477978  0.10107931  0.13824097  1  -1.16811  0  -0.303971  -0.528307  0  2.309555  0
O  O154  1  0.89111893  0.95655345  0.12321103  1  -1.162587  0  -0.306071  -0.528213  0  2.320543  0
O  O155  1  0.61970082  0.92523442  0.55700502  1  -1.174646  0  -0.313474  -0.549158  0  2.299173  0
O  O156  1  0.64485658  0.07164039  0.68253597  1  -1.165148  0  -0.305262  -0.532947  0  2.318844  0
O  O157  1  0.91572355  0.08905413  0.95335645  1  -1.172078  0  -0.310867  -0.536629  0  2.304267  0
O  O158  1  0.88513227  0.93275225  0.83914332  1  -1.161281  0  -0.30757  -0.530788  0  2.312431  0
O  O159  1  0.52199869  0.01649689  0.51490105  1  -1.214381  0  -0.575948  -1.039428  0  2.546658  0
