# generated using pymatgen
data_ZnH6C8O5
_symmetry_space_group_name_H-M   'P 1'
_cell_length_a   5.88067814
_cell_length_b   7.78964464
_cell_length_c   9.67699043
_cell_angle_alpha   89.85131258
_cell_angle_beta   111.07434666
_cell_angle_gamma   86.26624448
_symmetry_Int_Tables_number   1
_chemical_formula_structural   ZnH6C8O5
_chemical_formula_sum   'Zn2 H12 C16 O10'
_cell_volume   412.59888022
_cell_formula_units_Z   2
loop_
 _symmetry_equiv_pos_site_id
 _symmetry_equiv_pos_as_xyz
  1  'x, y, z'
loop_
 _atom_site_type_symbol
 _atom_site_label
 _atom_site_symmetry_multiplicity
 _atom_site_fract_x
 _atom_site_fract_y
 _atom_site_fract_z
 _atom_site_occupancy
 _atom_site_hle17_bader_spin_density
 _atom_site_hle17_ddec_charge
 _atom_site_hle17_ddec_spin_density
 _atom_site_hle17_ddec_sum_bond_order
 _atom_site_hle17_magmom
 _atom_site_hse06_10hf_bader_spin_density
 _atom_site_hse06_10hf_ddec_charge
 _atom_site_hse06_10hf_ddec_spin_density
 _atom_site_hse06_10hf_ddec_sum_bond_order
 _atom_site_hse06_10hf_magmom
 _atom_site_hse06_bader_spin_density
 _atom_site_hse06_ddec_charge
 _atom_site_hse06_ddec_spin_density
 _atom_site_hse06_ddec_sum_bond_order
 _atom_site_hse06_magmom
 _atom_site_pbe_bader_spin_density
 _atom_site_pbe_cm5_charge
 _atom_site_pbe_ddec_charge
 _atom_site_pbe_ddec_spin_density
 _atom_site_pbe_ddec_sum_bond_order
 _atom_site_pbe_magmom
Zn  Zn0  1  0.69580421  0.25235902  0.00911907  1  0  1.224226  0  1.670681  0  0  1.055103  0  2.142373  0  0  1.103478  0  2.077598  0  0  0.701933  1.021291  0  2.187015  0
Zn  Zn1  1  0.30420794  0.74764687  0.99088894  1  0  1.224103  0  1.670816  0  0  1.054944  0  2.142488  0  0  1.103318  0  2.077713  0  0  0.701859  1.021118  0  2.18713  0
H  H2  1  0.13367208  0.34191818  0.04962733  1  0  0.430946  0  0.87277  0  0  0.402756  0  0.931439  0  0  0.412651  0  0.917083  0  0  0.297708  0.395769  0  0.941571  0
H  H3  1  0.12661203  0.14644262  0.99631771  1  0  0.435986  0  0.867629  0  0  0.404779  0  0.930575  0  0  0.415282  0  0.915418  0  0  0.296738  0.397311  0  0.94138  0
H  H4  1  0.86634730  0.65808664  0.95036156  1  0  0.430887  0  0.872866  0  0  0.40273  0  0.931469  0  0  0.412624  0  0.917115  0  0  0.297722  0.395749  0  0.941589  0
H  H5  1  0.87338397  0.85355628  0.00366916  1  0  0.435819  0  0.867838  0  0  0.40463  0  0.930756  0  0  0.415133  0  0.9156  0  0  0.296657  0.397163  0  0.94156  0
H  H6  1  0.87316778  0.91848586  0.70927150  1  0  0.108807  0  0.952934  0  0  0.115592  0  1.016512  0  0  0.119286  0  1.014127  0  0  0.104293  0.112803  0  1.018688  0
H  H7  1  0.14179975  0.60029504  0.27772140  1  0  0.103079  0  0.940196  0  0  0.113209  0  0.998447  0  0  0.116654  0  0.996487  0  0  0.105244  0.110206  0  1.000661  0
H  H8  1  0.12684616  0.08151897  0.29072242  1  0  0.108834  0  0.952813  0  0  0.115561  0  1.016478  0  0  0.119259  0  1.014081  0  0  0.104263  0.112772  0  1.018646  0
H  H9  1  0.85815521  0.39968903  0.72227708  1  0  0.103227  0  0.94033  0  0  0.11334  0  0.998558  0  0  0.116782  0  0.996599  0  0  0.105284  0.110339  0  1.000766  0
H  H10  1  0.38432983  0.14726259  0.55094357  1  0  0.101842  0  0.960126  0  0  0.108978  0  1.025942  0  0  0.111372  0  1.026406  0  0  0.102841  0.107277  0  1.025556  0
H  H11  1  0.86202565  0.34729457  0.46810186  1  0  0.099114  0  0.973246  0  0  0.106346  0  1.039875  0  0  0.108649  0  1.040374  0  0  0.101739  0.104451  0  1.039916  0
H  H12  1  0.61568200  0.85274638  0.44903753  1  0  0.10164  0  0.960278  0  0  0.108864  0  1.025983  0  0  0.111281  0  1.026408  0  0  0.102776  0.107163  0  1.025599  0
H  H13  1  0.13798239  0.65268567  0.53190810  1  0  0.099258  0  0.973503  0  0  0.1065  0  1.040086  0  0  0.1088  0  1.040591  0  0  0.101829  0.104576  0  1.040121  0
C  C14  1  0.29204176  0.07987234  0.80032845  1  0  0.685221  0  3.847213  0  0  0.63106  0  4.135917  0  0  0.667315  0  4.125936  0  0  0.227708  0.606115  0  4.142577  0
C  C15  1  0.50262737  0.43508881  0.20655987  1  0  0.681097  0  3.852931  0  0  0.625612  0  4.145313  0  0  0.661776  0  4.135009  0  0  0.226259  0.602445  0  4.149921  0
C  C16  1  0.70798333  0.92012951  0.19967612  1  0  0.685116  0  3.847036  0  0  0.631122  0  4.1356  0  0  0.667378  0  4.125614  0  0  0.227649  0.606176  0  4.142262  0
C  C17  1  0.49735275  0.56490456  0.79346380  1  0  0.679969  0  3.8525  0  0  0.624672  0  4.144722  0  0  0.66084  0  4.134435  0  0  0.226004  0.601504  0  4.149339  0
C  C18  1  0.14337106  0.03708825  0.64521619  1  0  -0.064429  0  3.739151  0  0  -0.042841  0  3.9717  0  0  -0.050393  0  3.994168  0  0  -0.01408  -0.037884  0  3.9564  0
C  C19  1  0.50270315  0.47108935  0.35792424  1  0  -0.05656  0  3.732575  0  0  -0.035662  0  3.965377  0  0  -0.042853  0  3.987468  0  0  -0.011741  -0.031574  0  3.950472  0
C  C20  1  0.85662006  0.96293282  0.35475847  1  0  -0.064493  0  3.738812  0  0  -0.043238  0  3.971712  0  0  -0.050809  0  3.994198  0  0  -0.014176  -0.038263  0  3.9564  0
C  C21  1  0.49728355  0.52887663  0.64204684  1  0  -0.055656  0  3.732435  0  0  -0.035028  0  3.965371  0  0  -0.0422  0  3.987464  0  0  -0.011802  -0.030968  0  3.95049  0
C  C22  1  0.92651274  0.95448075  0.61693158  1  0  -0.055738  0  3.702338  0  0  -0.07988  0  3.954737  0  0  -0.080486  0  3.973729  0  0  -0.077053  -0.079621  0  3.94204  0
C  C23  1  0.29801588  0.55706964  0.37555793  1  0  -0.055835  0  3.702857  0  0  -0.079105  0  3.953732  0  0  -0.079919  0  3.973341  0  0  -0.077536  -0.078463  0  3.941241  0
C  C24  1  0.07352721  0.04555034  0.38307341  1  0  -0.055704  0  3.702081  0  0  -0.079689  0  3.954537  0  0  -0.080287  0  3.973523  0  0  -0.077007  -0.07943  0  3.941832  0
C  C25  1  0.70196597  0.44292614  0.62447234  1  0  -0.056481  0  3.703996  0  0  -0.079668  0  3.954857  0  0  -0.080491  0  3.974463  0  0  -0.077679  -0.079016  0  3.942389  0
C  C26  1  0.21625410  0.08248739  0.52765790  1  0  -0.069074  0  3.710459  0  0  -0.090904  0  3.958427  0  0  -0.091709  0  3.978951  0  0  -0.079036  -0.089611  0  3.943864  0
C  C27  1  0.70455649  0.41411346  0.48327945  1  0  -0.064881  0  3.710098  0  0  -0.08756  0  3.958441  0  0  -0.088448  0  3.979939  0  0  -0.078486  -0.087034  0  3.944428  0
C  C28  1  0.78376753  0.91754321  0.47232451  1  0  -0.068727  0  3.709856  0  0  -0.090512  0  3.957863  0  0  -0.091311  0  3.978381  0  0  -0.078846  -0.089231  0  3.943306  0
C  C29  1  0.29541628  0.58588243  0.51675506  1  0  -0.065422  0  3.710791  0  0  -0.088107  0  3.959269  0  0  -0.089012  0  3.980773  0  0  -0.078691  -0.087526  0  3.945293  0
O  O30  1  0.46012437  0.18305387  0.81775858  1  0  -0.636157  0  2.067809  0  0  -0.565173  0  2.342216  0  0  -0.595301  0  2.327161  0  0  -0.303949  -0.544923  0  2.352653  0
O  O31  1  0.67819873  0.33637096  0.19774220  1  0  -0.625605  0  2.076517  0  0  -0.552854  0  2.348056  0  0  -0.582807  0  2.334782  0  0  -0.298603  -0.532021  0  2.355782  0
O  O32  1  0.53988765  0.81695349  0.18224011  1  0  -0.636129  0  2.067646  0  0  -0.565138  0  2.341972  0  0  -0.595268  0  2.326913  0  0  -0.30389  -0.544886  0  2.35241  0
O  O33  1  0.32174512  0.66361711  0.80226012  1  0  -0.62521  0  2.076702  0  0  -0.552373  0  2.348013  0  0  -0.582334  0  2.334764  0  0  -0.298359  -0.531527  0  2.355707  0
O  O34  1  0.24101753  0.01733235  0.90704233  1  0  -0.689888  0  2.127221  0  0  -0.616549  0  2.37931  0  0  -0.642964  0  2.363073  0  0  -0.318195  -0.597719  0  2.390244  0
O  O35  1  0.32407453  0.49687236  0.09269304  1  0  -0.708709  0  2.104099  0  0  -0.63984  0  2.365887  0  0  -0.665183  0  2.347039  0  0  -0.329094  -0.622545  0  2.378596  0
O  O36  1  0.75899437  0.98267643  0.09294911  1  0  -0.68984  0  2.126961  0  0  -0.616515  0  2.378953  0  0  -0.642926  0  2.362707  0  0  -0.318186  -0.597709  0  2.389902  0
O  O37  1  0.67594782  0.50311497  0.90733456  1  0  -0.708301  0  2.104365  0  0  -0.639479  0  2.366032  0  0  -0.66482  0  2.347178  0  0  -0.328917  -0.622182  0  2.378734  0
O  O38  1  0.05373191  0.23265836  0.04831770  1  0  -0.843288  0  1.917673  0  0  -0.772936  0  2.132967  0  0  -0.796273  0  2.09693  0  0  -0.576628  -0.756143  0  2.158021  0
O  O39  1  0.94626805  0.76733410  0.95166583  1  0  -0.843043  0  1.917874  0  0  -0.772747  0  2.133186  0  0  -0.79608  0  2.097148  0  0  -0.576554  -0.75595  0  2.158234  0
