# generated using pymatgen
data_Cd3H26(C9N4)2
_symmetry_space_group_name_H-M   'P 1'
_cell_length_a   9.16381989
_cell_length_b   10.59913050
_cell_length_c   17.17352333
_cell_angle_alpha   90.00005065
_cell_angle_beta   90.00004595
_cell_angle_gamma   105.14516621
_symmetry_Int_Tables_number   1
_chemical_formula_structural   Cd3H26(C9N4)2
_chemical_formula_sum   'Cd6 H52 C36 N16'
_cell_volume   1610.10291634
_cell_formula_units_Z   2
loop_
 _symmetry_equiv_pos_site_id
 _symmetry_equiv_pos_as_xyz
  1  'x, y, z'
loop_
 _atom_site_type_symbol
 _atom_site_label
 _atom_site_symmetry_multiplicity
 _atom_site_fract_x
 _atom_site_fract_y
 _atom_site_fract_z
 _atom_site_occupancy
 _atom_site_pbe_bader_charge
 _atom_site_pbe_bader_spin_density
 _atom_site_pbe_cm5_charge
 _atom_site_pbe_ddec_charge
 _atom_site_pbe_ddec_spin_density
 _atom_site_pbe_ddec_sum_bond_order
 _atom_site_pbe_magmom
Cd  Cd0  1  0.00000279  0.00000193  0.00000175  1  1.272381  0  0.810907  0.876814  0  2.380342  0
Cd  Cd1  1  0.00000273  0.00000046  0.49999990  1  1.272381  0  0.810879  0.876786  0  2.3804  0
Cd  Cd2  1  0.82417254  0.63985112  0.74999961  1  0.991884  0  0.532542  0.429551  0  2.981262  0
Cd  Cd3  1  0.23191254  0.32520887  0.75000115  1  1.129318  0  0.693818  0.687641  0  2.691959  0
Cd  Cd4  1  0.17582017  0.36015229  0.25000067  1  0.991503  0  0.532553  0.429514  0  2.981187  0
Cd  Cd5  1  0.76807740  0.67478574  0.25000087  1  1.129287  0  0.693795  0.687608  0  2.692096  0
H  H6  1  0.75888172  0.06484416  0.91392096  1  0.420049  0  0.297712  0.281948  0  0.937901  0
H  H7  1  0.70217296  0.99123081  0.99670444  1  0.417581  0  0.291298  0.275014  0  0.97187  0
H  H8  1  0.81996583  0.20940617  0.06075071  1  0.032175  0  0.103456  0.055548  0  0.960192  0
H  H9  1  0.77721466  0.28691063  0.89252064  1  0.013323  0  0.085059  0.075985  0  0.98715  0
H  H10  1  0.95170852  0.31085825  0.94224431  1  0.054472  0  0.090178  0.092685  0  1.001776  0
H  H11  1  0.87613059  0.46022377  0.03638130  1  0.021195  0  0.088589  0.081726  0  0.998809  0
H  H12  1  0.86022863  0.51557437  0.94066459  1  0.027406  0  0.084317  0.077282  0  1.009977  0
H  H13  1  0.58287155  0.41687201  0.94230657  1  0.006015  0  0.08389  0.075691  0  0.992982  0
H  H14  1  0.63713133  0.52309076  0.02246624  1  0.034927  0  0.089041  0.083955  0  1.004664  0
H  H15  1  0.45388583  0.31080342  0.06218601  1  0.036648  0  0.086478  0.083389  0  0.99892  0
H  H16  1  0.62946126  0.33531935  0.11024375  1  0.021879  0  0.086213  0.080854  0  0.981914  0
H  H17  1  0.54563806  0.10668849  0.06140745  1  -0.022964  0  0.085553  0.076819  0  0.999478  0
H  H18  1  0.52879135  0.16425706  0.96531167  1  0.006931  0  0.08431  0.076136  0  1.001851  0
H  H19  1  0.24111913  0.93515655  0.41392119  1  0.420046  0  0.297713  0.281933  0  0.937919  0
H  H20  1  0.29782808  0.00877005  0.49670478  1  0.417568  0  0.291294  0.274999  0  0.971869  0
H  H21  1  0.18003564  0.79059481  0.56074831  1  0.032185  0  0.103431  0.05548  0  0.960221  0
H  H22  1  0.22278366  0.71308908  0.39252074  1  0.013316  0  0.085068  0.075967  0  0.987159  0
H  H23  1  0.04828882  0.68914157  0.44224142  1  0.054364  0  0.090181  0.092688  0  1.001863  0
H  H24  1  0.12387005  0.53977816  0.53637933  1  0.021213  0  0.088582  0.081734  0  0.998816  0
H  H25  1  0.13976918  0.48442347  0.44066221  1  0.027349  0  0.084313  0.077306  0  1.009921  0
H  H26  1  0.41713092  0.58312677  0.44230668  1  0.006428  0  0.083907  0.075676  0  0.992989  0
H  H27  1  0.36286726  0.47690821  0.52246492  1  0.034917  0  0.088997  0.083938  0  1.004709  0
H  H28  1  0.54611533  0.68919659  0.56218662  1  0.036615  0  0.08647  0.083406  0  0.998896  0
H  H29  1  0.37053753  0.66467980  0.61024544  1  0.021856  0  0.086212  0.080845  0  0.981898  0
H  H30  1  0.45436340  0.89331250  0.56140755  1  -0.02298  0  0.085549  0.076809  0  0.999446  0
H  H31  1  0.47120791  0.83574180  0.46531369  1  0.006948  0  0.084289  0.076091  0  1.001884  0
H  H32  1  0.24112513  0.93515910  0.08608165  1  0.419975  0  0.29771  0.28192  0  0.937928  0
H  H33  1  0.29782784  0.00877055  0.00329641  1  0.417572  0  0.291308  0.275012  0  0.971859  0
H  H34  1  0.18003419  0.79059618  0.93925189  1  0.032192  0  0.103445  0.055485  0  0.960186  0
H  H35  1  0.22278926  0.71308678  0.10747964  1  0.013291  0  0.085063  0.075935  0  0.987165  0
H  H36  1  0.04829043  0.68913725  0.05775771  1  0.054463  0  0.090154  0.092651  0  1.001793  0
H  H37  1  0.12387782  0.53977752  0.96361897  1  0.021161  0  0.08859  0.081756  0  0.998826  0
H  H38  1  0.13977668  0.48442400  0.05933452  1  0.027311  0  0.084342  0.077352  0  1.009981  0
H  H39  1  0.41713655  0.58312830  0.05769312  1  0.006389  0  0.083912  0.075656  0  0.993011  0
H  H40  1  0.36287491  0.47691055  0.97753286  1  0.034832  0  0.089037  0.083914  0  1.004715  0
H  H41  1  0.54611977  0.68920280  0.93781484  1  0.036595  0  0.086474  0.083387  0  0.998891  0
H  H42  1  0.37054202  0.66468297  0.88975419  1  0.022155  0  0.086245  0.080884  0  0.981833  0
H  H43  1  0.45436165  0.89331289  0.93859457  1  -0.022965  0  0.085569  0.076846  0  0.999474  0
H  H44  1  0.47120975  0.83574528  0.03468860  1  0.006918  0  0.084328  0.076158  0  1.001826  0
H  H45  1  0.75887717  0.06484094  0.58608025  1  0.420026  0  0.297706  0.281911  0  0.937921  0
H  H46  1  0.70217459  0.99123031  0.50329666  1  0.417575  0  0.291307  0.274976  0  0.971935  0
H  H47  1  0.81996393  0.20940264  0.43925021  1  0.032129  0  0.103442  0.055487  0  0.960275  0
H  H48  1  0.77721791  0.28691129  0.60747779  1  0.01336  0  0.08506  0.075963  0  0.987181  0
H  H49  1  0.95171136  0.31085784  0.55775594  1  0.054421  0  0.090176  0.092691  0  1.001856  0
H  H50  1  0.87612595  0.46021835  0.46361745  1  0.021091  0  0.08859  0.081728  0  0.99879  0
H  H51  1  0.86022992  0.51557595  0.55933515  1  0.027401  0  0.084307  0.0773  0  1.009998  0
H  H52  1  0.58287004  0.41687165  0.55769301  1  0.005997  0  0.083947  0.075791  0  0.993064  0
H  H53  1  0.63713091  0.52308827  0.47753244  1  0.034945  0  0.089038  0.083999  0  1.004644  0
H  H54  1  0.45388222  0.31079794  0.43781540  1  0.036612  0  0.086481  0.083407  0  0.998957  0
H  H55  1  0.62945755  0.33531378  0.38975658  1  0.021787  0  0.086228  0.080897  0  0.981877  0
H  H56  1  0.54563663  0.10668299  0.43859272  1  -0.023024  0  0.085553  0.076812  0  0.99948  0
H  H57  1  0.52879353  0.16425466  0.53468950  1  0.006955  0  0.084301  0.076097  0  1.00184  0
C  C58  1  0.87592844  0.76810024  0.85323822  1  0.764619  0  -0.006291  -0.053206  0  3.577309  0
C  C59  1  0.19604378  0.21201257  0.85735125  1  0.720412  0  -0.007476  -0.092554  0  3.591192  0
C  C60  1  0.75901295  0.19332178  0.00476160  1  0.294385  0  -0.004634  0.187739  0  3.840454  0
C  C61  1  0.83144466  0.30644751  0.95040743  1  -0.043706  0  -0.166035  -0.201627  0  3.916426  0
C  C62  1  0.81167367  0.43613224  0.98178018  1  -0.03239  0  -0.167138  -0.143531  0  3.949065  0
C  C63  1  0.64592194  0.42976263  0.99775939  1  -0.009085  0  -0.169289  -0.149065  0  3.948428  0
C  C64  1  0.57426111  0.31685640  0.05270750  1  -0.034194  0  -0.168051  -0.14088  0  3.943662  0
C  C65  1  0.59264743  0.18716541  0.02041415  1  -0.008341  0  -0.168144  -0.209892  0  3.937924  0
C  C66  1  0.12406604  0.23190826  0.35324036  1  0.76481  0  -0.006252  -0.05311  0  3.577435  0
C  C67  1  0.80395676  0.78799783  0.35734638  1  0.720491  0  -0.00746  -0.092585  0  3.591033  0
C  C68  1  0.24098699  0.80667813  0.50475982  1  0.293961  0  -0.004631  0.18778  0  3.840446  0
C  C69  1  0.16855270  0.69355233  0.45040634  1  -0.04359  0  -0.166039  -0.20158  0  3.916579  0
C  C70  1  0.18832594  0.56386763  0.48177786  1  -0.032353  0  -0.167106  -0.143604  0  3.949073  0
C  C71  1  0.35407770  0.57023728  0.49775947  1  -0.009535  0  -0.169258  -0.148981  0  3.948524  0
C  C72  1  0.42573755  0.68314263  0.55270747  1  -0.034137  0  -0.168028  -0.140922  0  3.943615  0
C  C73  1  0.40735256  0.81283453  0.52041360  1  -0.007873  0  -0.168128  -0.209808  0  3.937716  0
C  C74  1  0.12408570  0.23190883  0.14675797  1  0.764823  0  -0.006294  -0.053331  0  3.577629  0
C  C75  1  0.80395187  0.78799669  0.14264961  1  0.720591  0  -0.007386  -0.092485  0  3.591344  0
C  C76  1  0.24098909  0.80667663  0.99523984  1  0.293944  0  -0.004688  0.187761  0  3.840571  0
C  C77  1  0.16855536  0.69355485  0.04959284  1  -0.043661  0  -0.165959  -0.201411  0  3.916381  0
C  C78  1  0.18833226  0.56386809  0.01822010  1  -0.032454  0  -0.167275  -0.143837  0  3.949274  0
C  C79  1  0.35408290  0.57023771  0.00224088  1  -0.009163  0  -0.169254  -0.148917  0  3.948569  0
C  C80  1  0.42574016  0.68314299  0.94729336  1  -0.034429  0  -0.168029  -0.140867  0  3.943536  0
C  C81  1  0.40735555  0.81283593  0.97958729  1  -0.007916  0  -0.168163  -0.209938  0  3.937911  0
C  C82  1  0.87591069  0.76808943  0.64675817  1  0.764544  0  -0.006302  -0.053317  0  3.577422  0
C  C83  1  0.19603798  0.21200163  0.64265273  1  0.720494  0  -0.007399  -0.092513  0  3.591505  0
C  C84  1  0.75901257  0.19331932  0.49523754  1  0.294391  0  -0.004568  0.187917  0  3.840575  0
C  C85  1  0.83144641  0.30644023  0.54959160  1  -0.043588  0  -0.166002  -0.201562  0  3.916482  0
C  C86  1  0.81167580  0.43612980  0.51822125  1  -0.032377  0  -0.167183  -0.143627  0  3.948986  0
C  C87  1  0.64592449  0.42976505  0.50224372  1  -0.009037  0  -0.169318  -0.149206  0  3.948572  0
C  C88  1  0.57425766  0.31685487  0.44729280  1  -0.034037  0  -0.168076  -0.141002  0  3.943672  0
C  C89  1  0.59264514  0.18716393  0.47958434  1  -0.008331  0  -0.168157  -0.209838  0  3.937901  0
C  C90  1  0.58566466  0.52393414  0.74999953  1  0.785857  0  0.013989  -0.020659  0  3.537675  0
C  C91  1  0.98246754  0.51243685  0.74999728  1  0.763198  0  0.011491  -0.02475  0  3.522436  0
C  C92  1  0.41432883  0.47606828  0.24999958  1  0.785778  0  0.014151  -0.020488  0  3.537416  0
C  C93  1  0.01752144  0.48756856  0.24999426  1  0.762561  0  0.011596  -0.024608  0  3.522461  0
N  N94  1  0.91499109  0.84203790  0.90428951  1  -1.379788  0  -0.366141  -0.335808  0  3.328603  0
N  N95  1  0.16282480  0.14255935  0.91093487  1  -1.329283  0  -0.362664  -0.325469  0  3.301605  0
N  N96  1  0.77936199  0.06910642  0.97256822  1  -1.108034  0  -0.621485  -0.606162  0  3.323507  0
N  N97  1  0.08501004  0.15796377  0.40428926  1  -1.379934  0  -0.36616  -0.335883  0  3.328772  0
N  N98  1  0.83718132  0.85744424  0.41093529  1  -1.329422  0  -0.362641  -0.325405  0  3.301417  0
N  N99  1  0.22063899  0.93089440  0.47256785  1  -1.108054  0  -0.621495  -0.606143  0  3.323457  0
N  N100  1  0.08501326  0.15797127  0.09570960  1  -1.379916  0  -0.36614  -0.335702  0  3.328837  0
N  N101  1  0.83717926  0.85744198  0.08906599  1  -1.32944  0  -0.362721  -0.32551  0  3.301897  0
N  N102  1  0.22064145  0.93089295  0.02743497  1  -1.107965  0  -0.621475  -0.606129  0  3.323459  0
N  N103  1  0.91499014  0.84203564  0.59570985  1  -1.379632  0  -0.366111  -0.335699  0  3.328649  0
N  N104  1  0.16282475  0.14256001  0.58906673  1  -1.32932  0  -0.362706  -0.325473  0  3.301944  0
N  N105  1  0.77936337  0.06910499  0.52743242  1  -1.10802  0  -0.62152  -0.606136  0  3.323579  0
N  N106  1  0.45886940  0.46481774  0.75000065  1  -1.385282  0  -0.380103  -0.321436  0  3.406435  0
N  N107  1  0.07317629  0.45286795  0.74999999  1  -1.365887  0  -0.380196  -0.320343  0  3.385703  0
N  N108  1  0.54112472  0.53517977  0.25000195  1  -1.385223  0  -0.380284  -0.321595  0  3.406299  0
N  N109  1  0.92681237  0.54713648  0.24999795  1  -1.364837  0  -0.380277  -0.320436  0  3.385892  0
