# generated using pymatgen
data_ZnH6(C5N6)2
_symmetry_space_group_name_H-M   'P 1'
_cell_length_a   8.35454049
_cell_length_b   9.46519778
_cell_length_c   17.80560000
_cell_angle_alpha   90.00000000
_cell_angle_beta   90.00000000
_cell_angle_gamma   90.00000000
_symmetry_Int_Tables_number   1
_chemical_formula_structural   ZnH6(C5N6)2
_chemical_formula_sum   'Zn4 H24 C40 N48'
_cell_volume   1408.02016271
_cell_formula_units_Z   4
loop_
 _symmetry_equiv_pos_site_id
 _symmetry_equiv_pos_as_xyz
  1  'x, y, z'
loop_
 _atom_site_type_symbol
 _atom_site_label
 _atom_site_symmetry_multiplicity
 _atom_site_fract_x
 _atom_site_fract_y
 _atom_site_fract_z
 _atom_site_occupancy
 _atom_site_hle17_bader_spin_density
 _atom_site_hle17_ddec_charge
 _atom_site_hle17_ddec_spin_density
 _atom_site_hle17_ddec_sum_bond_order
 _atom_site_hle17_magmom
 _atom_site_hse06_10hf_bader_spin_density
 _atom_site_hse06_10hf_ddec_charge
 _atom_site_hse06_10hf_ddec_spin_density
 _atom_site_hse06_10hf_ddec_sum_bond_order
 _atom_site_hse06_10hf_magmom
 _atom_site_hse06_bader_spin_density
 _atom_site_hse06_ddec_charge
 _atom_site_hse06_ddec_spin_density
 _atom_site_hse06_ddec_sum_bond_order
 _atom_site_hse06_magmom
 _atom_site_pbe_bader_charge
 _atom_site_pbe_bader_spin_density
 _atom_site_pbe_cm5_charge
 _atom_site_pbe_ddec_charge
 _atom_site_pbe_ddec_spin_density
 _atom_site_pbe_ddec_sum_bond_order
 _atom_site_pbe_magmom
Zn  Zn0  1  0.00000000  0.50000012  0.00000000  1  0  0.779432  0  2.12603  0  0  0.563003  0  2.587814  0  0  0.603485  0  2.55068  0  1.262646  0  0.71339  0.534583  0  2.613191  0
Zn  Zn1  1  0.49999997  0.50000012  0.50000000  1  0  0.779442  0  2.126019  0  0  0.563004  0  2.587802  0  0  0.603485  0  2.550668  0  1.262635  0  0.713391  0.534586  0  2.613178  0
Zn  Zn2  1  0.00000000  0.00000000  0.50000000  1  0  0.779412  0  2.126022  0  0  0.562987  0  2.587802  0  0  0.603469  0  2.550666  0  1.262649  0  0.713388  0.534567  0  2.613178  0
Zn  Zn3  1  0.49999997  0.00000000  0.00000000  1  0  0.779435  0  2.126029  0  0  0.562994  0  2.587816  0  0  0.603473  0  2.550681  0  1.262644  0  0.713395  0.534576  0  2.613192  0
H  H4  1  0.91403351  0.69438803  0.31658804  1  0  0.080264  0  0.929918  0  0  0.087381  0  0.991434  0  0  0.090121  0  0.989034  0  0.119477  0  0.116387  0.085305  0  0.99331  0
H  H5  1  0.58596400  0.30561115  0.81658804  1  0  0.080286  0  0.929872  0  0  0.087394  0  0.991398  0  0  0.090134  0  0.988999  0  0.119477  0  0.116379  0.085318  0  0.993273  0
H  H6  1  0.08596523  0.19438791  0.18341196  1  0  0.080223  0  0.929954  0  0  0.087377  0  0.991437  0  0  0.090118  0  0.989037  0  0.119482  0  0.11637  0.085301  0  0.993313  0
H  H7  1  0.41403594  0.80561127  0.68341140  1  0  0.08033  0  0.929841  0  0  0.087436  0  0.991371  0  0  0.090178  0  0.988967  0  0.119463  0  0.116396  0.08536  0  0.993246  0
H  H8  1  0.08596284  0.30561115  0.68341140  1  0  0.080386  0  0.929807  0  0  0.087462  0  0.991366  0  0  0.090204  0  0.988962  0  0.119465  0  0.116395  0.085385  0  0.993242  0
H  H9  1  0.41403713  0.69438803  0.18341140  1  0  0.080265  0  0.929855  0  0  0.087396  0  0.991367  0  0  0.090137  0  0.988964  0  0.119471  0  0.11637  0.085319  0  0.993243  0
H  H10  1  0.91403591  0.80561233  0.81658860  1  0  0.080345  0  0.929832  0  0  0.087459  0  0.991359  0  0  0.090202  0  0.988955  0  0.119467  0  0.116393  0.085383  0  0.993235  0
H  H11  1  0.58596400  0.19438791  0.31658860  1  0  0.080287  0  0.929865  0  0  0.087439  0  0.99136  0  0  0.090181  0  0.988955  0  0.119476  0  0.116373  0.085362  0  0.993237  0
H  H12  1  0.77401025  0.46712812  0.28141315  1  0  0.124112  0  0.970444  0  0  0.121915  0  1.04848  0  0  0.126599  0  1.045994  0  0.135119  0  0.108296  0.118536  0  1.050498  0
H  H13  1  0.72598966  0.53287106  0.78141315  1  0  0.124151  0  0.970426  0  0  0.121962  0  1.04845  0  0  0.126646  0  1.045964  0  0.135114  0  0.108314  0.118582  0  1.05047  0
H  H14  1  0.22599089  0.96712718  0.21858685  1  0  0.124112  0  0.97045  0  0  0.121922  0  1.048476  0  0  0.126606  0  1.04599  0  0.1351  0  0.108299  0.118542  0  1.050495  0
H  H15  1  0.27401028  0.03287200  0.71858685  1  0  0.12415  0  0.970431  0  0  0.12196  0  1.048458  0  0  0.126644  0  1.04597  0  0.135102  0  0.108309  0.118581  0  1.050476  0
H  H16  1  0.22598849  0.53287106  0.71858685  1  0  0.124157  0  0.970409  0  0  0.121945  0  1.048457  0  0  0.126627  0  1.045971  0  0.135131  0  0.108313  0.118565  0  1.050475  0
H  H17  1  0.27401028  0.46712812  0.21858685  1  0  0.124127  0  0.970439  0  0  0.121932  0  1.048471  0  0  0.126615  0  1.045985  0  0.13511  0  0.108302  0.118553  0  1.050488  0
H  H18  1  0.77401145  0.03287200  0.78141315  1  0  0.124154  0  0.970427  0  0  0.121966  0  1.048449  0  0  0.126649  0  1.045963  0  0.135125  0  0.108313  0.118587  0  1.050467  0
H  H19  1  0.72598966  0.96712823  0.28141371  1  0  0.124135  0  0.970423  0  0  0.121941  0  1.048447  0  0  0.126625  0  1.04596  0  0.135108  0  0.108306  0.118561  0  1.050465  0
H  H20  1  0.80529863  0.38368665  0.14585411  1  0  0.090326  0  0.9197  0  0  0.095969  0  0.985246  0  0  0.099088  0  0.98176  0  0.149533  0  0.123387  0.093518  0  0.987994  0
H  H21  1  0.69470248  0.61631359  0.64585411  1  0  0.090323  0  0.919702  0  0  0.095969  0  0.985249  0  0  0.099085  0  0.981766  0  0.149533  0  0.123387  0.093519  0  0.987997  0
H  H22  1  0.19470131  0.88368676  0.35414589  1  0  0.090321  0  0.919708  0  0  0.095968  0  0.985255  0  0  0.099087  0  0.981769  0  0.149531  0  0.123386  0.093517  0  0.988003  0
H  H23  1  0.30529866  0.11631241  0.85414533  1  0  0.090333  0  0.919706  0  0  0.095968  0  0.985262  0  0  0.099094  0  0.98177  0  0.149546  0  0.123395  0.093518  0  0.98801  0
H  H24  1  0.19470131  0.61631147  0.85414589  1  0  0.090331  0  0.919701  0  0  0.095966  0  0.985254  0  0  0.099092  0  0.981763  0  0.149549  0  0.123398  0.093516  0  0.988003  0
H  H25  1  0.30529746  0.38368770  0.35414589  1  0  0.090353  0  0.919697  0  0  0.095997  0  0.98524  0  0  0.099115  0  0.981756  0  0.149541  0  0.123392  0.093545  0  0.987989  0
H  H26  1  0.80529863  0.11631241  0.64585411  1  0  0.09033  0  0.919705  0  0  0.095965  0  0.985262  0  0  0.09909  0  0.981771  0  0.149544  0  0.123395  0.093515  0  0.98801  0
H  H27  1  0.69470128  0.88368782  0.14585411  1  0  0.090333  0  0.919699  0  0  0.095968  0  0.985255  0  0  0.099093  0  0.981763  0  0.149546  0  0.123397  0.093518  0  0.988003  0
C  C28  1  0.03368348  0.66549164  0.14343690  1  0  0.326717  0  3.7844  0  0  0.306474  0  4.043488  0  0  0.320489  0  4.056338  0  1.102727  0  0.255444  0.297063  0  4.034729  0
C  C29  1  0.46631649  0.33450859  0.64343690  1  0  0.326675  0  3.784348  0  0  0.306412  0  4.043435  0  0  0.32042  0  4.056284  0  1.102647  0  0.255472  0.297004  0  4.034682  0
C  C30  1  0.96631766  0.16549152  0.35656254  1  0  0.326686  0  3.784456  0  0  0.306439  0  4.043542  0  0  0.320454  0  4.056392  0  1.102748  0  0.25543  0.297028  0  4.034785  0
C  C31  1  0.53368345  0.83450871  0.85656254  1  0  0.326693  0  3.78433  0  0  0.306424  0  4.043412  0  0  0.320436  0  4.056261  0  1.102745  0  0.255438  0.297012  0  4.034658  0
C  C32  1  0.96631646  0.33450754  0.85656310  1  0  0.326675  0  3.784464  0  0  0.306406  0  4.043563  0  0  0.32042  0  4.056412  0  1.102655  0  0.255428  0.296987  0  4.034804  0
C  C33  1  0.53368465  0.66549058  0.35656310  1  0  0.326649  0  3.784512  0  0  0.306526  0  4.043407  0  0  0.320541  0  4.056255  0  1.102725  0  0.255484  0.297106  0  4.034649  0
C  C34  1  0.03368348  0.83450871  0.64343746  1  0  0.326709  0  3.784367  0  0  0.30644  0  4.043455  0  0  0.32045  0  4.056302  0  1.102741  0  0.255467  0.297027  0  4.034699  0
C  C35  1  0.46631649  0.16549152  0.14343690  1  0  0.326689  0  3.784445  0  0  0.306424  0  4.043531  0  0  0.320438  0  4.05638  0  1.102729  0  0.255445  0.297005  0  4.034773  0
C  C36  1  0.92566072  0.64915706  0.26039841  1  0  0.179182  0  3.677291  0  0  0.150951  0  3.935872  0  0  0.160199  0  3.950789  0  0.504166  0  0.067434  0.145025  0  3.925777  0
C  C37  1  0.57433799  0.35084317  0.76039841  1  0  0.179043  0  3.677233  0  0  0.150815  0  3.93583  0  0  0.160063  0  3.950748  0  0.504164  0  0.067363  0.144889  0  3.925734  0
C  C38  1  0.07433922  0.14915589  0.23960159  1  0  0.179087  0  3.677292  0  0  0.150815  0  3.935892  0  0  0.160063  0  3.950809  0  0.504158  0  0.067377  0.14489  0  3.925795  0
C  C39  1  0.42566075  0.85084329  0.73960102  1  0  0.17916  0  3.677263  0  0  0.150939  0  3.935828  0  0  0.160187  0  3.950745  0  0.504127  0  0.067405  0.145013  0  3.925732  0
C  C40  1  0.07433682  0.35084317  0.73960102  1  0  0.179003  0  3.677299  0  0  0.150805  0  3.935864  0  0  0.160054  0  3.950781  0  0.504158  0  0.067388  0.14488  0  3.925767  0
C  C41  1  0.42566195  0.64915706  0.23960159  1  0  0.179133  0  3.677271  0  0  0.150882  0  3.935864  0  0  0.16013  0  3.950781  0  0.504157  0  0.067415  0.144957  0  3.925768  0
C  C42  1  0.92566192  0.85084329  0.76039898  1  0  0.179068  0  3.677294  0  0  0.150834  0  3.935866  0  0  0.160081  0  3.950784  0  0.504138  0  0.067398  0.144908  0  3.925771  0
C  C43  1  0.57433799  0.14915589  0.26039841  1  0  0.178987  0  3.677266  0  0  0.150716  0  3.935852  0  0  0.159964  0  3.950772  0  0.504173  0  0.067347  0.14479  0  3.925755  0
C  C44  1  0.84529963  0.52555162  0.24070629  1  0  -0.159867  0  3.694588  0  0  -0.175032  0  3.95437  0  0  -0.184897  0  3.974325  0  -0.011452  0  -0.07755  -0.168884  0  3.941246  0
C  C45  1  0.65469789  0.47444967  0.74070686  1  0  -0.159884  0  3.694583  0  0  -0.175053  0  3.954371  0  0  -0.184918  0  3.974327  0  -0.011455  0  -0.077543  -0.168904  0  3.941248  0
C  C46  1  0.15470031  0.02555044  0.25929371  1  0  -0.159788  0  3.694546  0  0  -0.174944  0  3.954328  0  0  -0.184809  0  3.974284  0  -0.011461  0  -0.07751  -0.168795  0  3.941203  0
C  C47  1  0.34530206  0.97444979  0.75929314  1  0  -0.159924  0  3.694625  0  0  -0.175095  0  3.954411  0  0  -0.184961  0  3.974369  0  -0.011427  0  -0.07754  -0.168946  0  3.941286  0
C  C48  1  0.15469792  0.47444862  0.75929314  1  0  -0.159915  0  3.694667  0  0  -0.175059  0  3.954437  0  0  -0.184923  0  3.974396  0  -0.011445  0  -0.077557  -0.168909  0  3.94131  0
C  C49  1  0.34530206  0.52555056  0.25929314  1  0  -0.159895  0  3.694603  0  0  -0.175059  0  3.954392  0  0  -0.184923  0  3.974348  0  -0.011446  0  -0.077561  -0.168909  0  3.941264  0
C  C50  1  0.84530203  0.97444979  0.74070686  1  0  -0.159914  0  3.694628  0  0  -0.175079  0  3.954407  0  0  -0.184945  0  3.974367  0  -0.011442  0  -0.077552  -0.168931  0  3.941283  0
C  C51  1  0.65469789  0.02555044  0.24070629  1  0  -0.159843  0  3.694579  0  0  -0.174992  0  3.954344  0  0  -0.184858  0  3.974304  0  -0.011455  0  -0.077523  -0.168843  0  3.941219  0
C  C52  1  0.86472859  0.47827421  0.16719965  1  0  0.196633  0  3.638284  0  0  0.16022  0  3.893089  0  0  0.170544  0  3.907066  0  0.464867  0  0.076426  0.153665  0  3.883671  0
C  C53  1  0.63527132  0.52172497  0.66719965  1  0  0.196661  0  3.638327  0  0  0.160219  0  3.89312  0  0  0.170541  0  3.907095  0  0.465319  0  0.076425  0.153665  0  3.883701  0
C  C54  1  0.13527255  0.97827433  0.33280035  1  0  0.196646  0  3.638354  0  0  0.160211  0  3.893173  0  0  0.170535  0  3.90715  0  0.465297  0  0.076426  0.153657  0  3.883754  0
C  C55  1  0.36472862  0.02172485  0.83280035  1  0  0.196634  0  3.638316  0  0  0.160198  0  3.893114  0  0  0.170511  0  3.907088  0  0.465309  0  0.076405  0.153644  0  3.883696  0
C  C56  1  0.13527135  0.52172497  0.83280035  1  0  0.19667  0  3.63826  0  0  0.160242  0  3.893054  0  0  0.170556  0  3.907029  0  0.464893  0  0.076422  0.153687  0  3.883637  0
C  C57  1  0.36472981  0.47827421  0.33279979  1  0  0.196615  0  3.638296  0  0  0.160189  0  3.893105  0  0  0.170511  0  3.907084  0  0.464869  0  0.076428  0.153635  0  3.883686  0
C  C58  1  0.86472859  0.02172485  0.66719965  1  0  0.196647  0  3.638292  0  0  0.16021  0  3.893088  0  0  0.170524  0  3.907062  0  0.465314  0  0.07641  0.153656  0  3.88367  0
C  C59  1  0.63527132  0.97827539  0.16719965  1  0  0.196666  0  3.638307  0  0  0.160231  0  3.893101  0  0  0.170545  0  3.907076  0  0.464881  0  0.076423  0.153676  0  3.883683  0
C  C60  1  0.13710987  0.73318806  0.08782349  1  0  0.191291  0  3.789834  0  0  0.168762  0  4.061237  0  0  0.174566  0  4.07738  0  0.937813  0  0.213244  0.164929  0  4.050178  0
C  C61  1  0.36289010  0.26681217  0.58782349  1  0  0.191407  0  3.789785  0  0  0.168868  0  4.061196  0  0  0.174678  0  4.077334  0  0.937827  0  0.213266  0.165021  0  4.050156  0
C  C62  1  0.86289007  0.23318794  0.41217651  1  0  0.191342  0  3.789835  0  0  0.168813  0  4.061237  0  0  0.174617  0  4.077383  0  0.937809  0  0.213262  0.16498  0  4.050178  0
C  C63  1  0.63710985  0.76681124  0.91217651  1  0  0.191292  0  3.789869  0  0  0.168762  0  4.061273  0  0  0.174565  0  4.07742  0  0.937811  0  0.213203  0.16493  0  4.050212  0
C  C64  1  0.86289007  0.26681112  0.91217651  1  0  0.191285  0  3.789868  0  0  0.168753  0  4.06128  0  0  0.174555  0  4.077427  0  0.93779  0  0.213194  0.164943  0  4.05019  0
C  C65  1  0.63710985  0.73318806  0.41217651  1  0  0.191345  0  3.789884  0  0  0.168778  0  4.061269  0  0  0.174582  0  4.077414  0  0.937797  0  0.213267  0.164969  0  4.050179  0
C  C66  1  0.13710987  0.76681124  0.58782349  1  0  0.191298  0  3.789866  0  0  0.168766  0  4.061272  0  0  0.17457  0  4.077418  0  0.937811  0  0.213204  0.164935  0  4.050211  0
C  C67  1  0.36289010  0.23318900  0.08782349  1  0  0.191257  0  3.789879  0  0  0.168725  0  4.06129  0  0  0.174526  0  4.077436  0  0.937815  0  0.213191  0.164916  0  4.050199  0
N  N68  1  0.14607386  0.68116802  0.01730523  1  0  -0.279093  0  3.233945  0  0  -0.220552  0  3.530493  0  0  -0.234664  0  3.544425  0  -0.709333  0  -0.222444  -0.210632  0  3.520694  0
N  N69  1  0.35392611  0.31883222  0.51730467  1  0  -0.279195  0  3.233964  0  0  -0.220647  0  3.530509  0  0  -0.234762  0  3.54444  0  -0.709324  0  -0.222469  -0.210722  0  3.520714  0
N  N70  1  0.85392608  0.18116790  0.48269477  1  0  -0.27911  0  3.233934  0  0  -0.220569  0  3.530481  0  0  -0.234682  0  3.544413  0  -0.709336  0  -0.222445  -0.210648  0  3.520682  0
N  N71  1  0.64607383  0.81883234  0.98269477  1  0  -0.279171  0  3.233969  0  0  -0.22063  0  3.530522  0  0  -0.234743  0  3.544455  0  -0.709329  0  -0.222467  -0.21071  0  3.520723  0
N  N72  1  0.85392488  0.31883222  0.98269477  1  0  -0.279158  0  3.233976  0  0  -0.220615  0  3.530524  0  0  -0.234728  0  3.544457  0  -0.709322  0  -0.222456  -0.210702  0  3.520719  0
N  N73  1  0.64607383  0.68116802  0.48269533  1  0  -0.279101  0  3.233935  0  0  -0.220565  0  3.530496  0  0  -0.234678  0  3.544428  0  -0.709319  0  -0.222449  -0.210652  0  3.520691  0
N  N74  1  0.14607386  0.81883234  0.51730523  1  0  -0.27917  0  3.233968  0  0  -0.220629  0  3.530518  0  0  -0.234742  0  3.54445  0  -0.709327  0  -0.222465  -0.210709  0  3.520719  0
N  N75  1  0.35392611  0.18116790  0.01730523  1  0  -0.279092  0  3.233933  0  0  -0.22055  0  3.530481  0  0  -0.234664  0  3.544414  0  -0.709329  0  -0.222436  -0.210638  0  3.520676  0
N  N76  1  0.24992637  0.76133750  0.98034944  1  0  -0.067451  0  2.916563  0  0  -0.0749  0  3.202957  0  0  -0.072949  0  3.216171  0  -0.109447  0  -0.096253  -0.075778  0  3.19375  0
N  N77  1  0.25007240  0.23866168  0.48034944  1  0  -0.06745  0  2.916598  0  0  -0.074887  0  3.202992  0  0  -0.072935  0  3.216204  0  -0.10949  0  -0.096256  -0.075765  0  3.193784  0
N  N78  1  0.75007357  0.26133738  0.51965056  1  0  -0.067423  0  2.916586  0  0  -0.074877  0  3.202976  0  0  -0.072925  0  3.216189  0  -0.109453  0  -0.09624  -0.075755  0  3.193769  0
N  N79  1  0.74992754  0.73866285  0.01965056  1  0  -0.067422  0  2.916604  0  0  -0.074882  0  3.202995  0  0  -0.07293  0  3.216208  0  -0.109459  0  -0.096238  -0.07576  0  3.193789  0
N  N80  1  0.75007237  0.23866274  0.01965056  1  0  -0.067435  0  2.916632  0  0  -0.074886  0  3.203027  0  0  -0.072934  0  3.21624  0  -0.109465  0  -0.096238  -0.075765  0  3.193823  0
N  N81  1  0.74992634  0.76133750  0.51965056  1  0  -0.067442  0  2.916608  0  0  -0.074896  0  3.203  0  0  -0.072943  0  3.216212  0  -0.109461  0  -0.096251  -0.075775  0  3.193795  0
N  N82  1  0.24992757  0.73866285  0.48034944  1  0  -0.06741  0  2.916575  0  0  -0.074869  0  3.202967  0  0  -0.072917  0  3.216179  0  -0.109452  0  -0.09623  -0.075747  0  3.193761  0
N  N83  1  0.25007360  0.26133738  0.98034944  1  0  -0.067458  0  2.916567  0  0  -0.074908  0  3.202959  0  0  -0.072955  0  3.21617  0  -0.109447  0  -0.096253  -0.075787  0  3.193755  0
N  N84  1  0.30236492  0.85900477  0.02811756  1  0  -0.097631  0  3.193647  0  0  -0.045313  0  3.502376  0  0  -0.053242  0  3.516468  0  -0.207115  0  -0.103491  -0.039514  0  3.492512  0
N  N85  1  0.19763505  0.14099653  0.52811812  1  0  -0.097501  0  3.193532  0  0  -0.045218  0  3.502289  0  0  -0.053147  0  3.51638  0  -0.207072  0  -0.103459  -0.039418  0  3.492422  0
N  N86  1  0.69763621  0.35900465  0.47188244  1  0  -0.09765  0  3.193692  0  0  -0.045319  0  3.502404  0  0  -0.053248  0  3.516497  0  -0.20711  0  -0.103503  -0.03952  0  3.492541  0
N  N87  1  0.80236489  0.64099664  0.97188244  1  0  -0.097615  0  3.193631  0  0  -0.045277  0  3.502333  0  0  -0.053204  0  3.516424  0  -0.207104  0  -0.103477  -0.039477  0  3.492469  0
N  N88  1  0.69763502  0.14099653  0.97188300  1  0  -0.097594  0  3.193611  0  0  -0.045276  0  3.502337  0  0  -0.053206  0  3.51643  0  -0.207128  0  -0.103499  -0.039478  0  3.492476  0
N  N89  1  0.80236489  0.85900371  0.47188244  1  0  -0.097643  0  3.193673  0  0  -0.045314  0  3.502385  0  0  -0.053242  0  3.516476  0  -0.20711  0  -0.103498  -0.039515  0  3.492523  0
N  N90  1  0.30236492  0.64099559  0.52811756  1  0  -0.097608  0  3.193613  0  0  -0.045273  0  3.502318  0  0  -0.053203  0  3.51641  0  -0.207114  0  -0.103481  -0.039474  0  3.492454  0
N  N91  1  0.19763505  0.35900465  0.02811756  1  0  -0.097616  0  3.193612  0  0  -0.045294  0  3.502337  0  0  -0.053225  0  3.516427  0  -0.207109  0  -0.103484  -0.039496  0  3.492476  0
N  N92  1  0.23462691  0.84479165  0.09593948  1  0  -0.25433  0  2.907547  0  0  -0.242358  0  3.182616  0  0  -0.24911  0  3.196  0  -0.638887  0  -0.206605  -0.237665  0  3.173495  0
N  N93  1  0.26537426  0.15520859  0.59593948  1  0  -0.254428  0  2.907545  0  0  -0.242439  0  3.182624  0  0  -0.249194  0  3.196005  0  -0.638905  0  -0.206615  -0.237741  0  3.173506  0
N  N94  1  0.76537303  0.34479047  0.40406052  1  0  -0.254349  0  2.907598  0  0  -0.242382  0  3.182666  0  0  -0.249136  0  3.196052  0  -0.638882  0  -0.206609  -0.237689  0  3.173545  0
N  N95  1  0.73462688  0.65520871  0.90406052  1  0  -0.254276  0  2.907565  0  0  -0.242307  0  3.182617  0  0  -0.249061  0  3.196003  0  -0.638894  0  -0.206552  -0.237614  0  3.173496  0
N  N96  1  0.76537423  0.15520753  0.90406108  1  0  -0.254305  0  2.907514  0  0  -0.242332  0  3.182571  0  0  -0.249083  0  3.195956  0  -0.638869  0  -0.206554  -0.237646  0  3.173444  0
N  N97  1  0.73462688  0.84479059  0.40406052  1  0  -0.254316  0  2.907538  0  0  -0.242347  0  3.182607  0  0  -0.249101  0  3.195992  0  -0.638877  0  -0.206593  -0.237662  0  3.173479  0
N  N98  1  0.23462691  0.65520871  0.59593948  1  0  -0.254301  0  2.907585  0  0  -0.242328  0  3.182634  0  0  -0.249082  0  3.196017  0  -0.638894  0  -0.206561  -0.237636  0  3.173512  0
N  N99  1  0.26537426  0.34479153  0.09593948  1  0  -0.254289  0  2.907564  0  0  -0.242321  0  3.18263  0  0  -0.249072  0  3.196011  0  -0.638901  0  -0.206562  -0.237636  0  3.173502  0
N  N100  1  0.95859012  0.54767160  0.11866211  1  0  -0.360856  0  3.21534  0  0  -0.291466  0  3.483265  0  0  -0.310008  0  3.495952  0  -1.207059  0  -0.307343  -0.279359  0  3.474658  0
N  N101  1  0.54141099  0.45232758  0.61866211  1  0  -0.360858  0  3.215399  0  0  -0.291398  0  3.483258  0  0  -0.309925  0  3.495925  0  -1.207479  0  -0.307339  -0.27929  0  3.474648  0
N  N102  1  0.04140982  0.04767148  0.38133789  1  0  -0.360855  0  3.215381  0  0  -0.291453  0  3.483294  0  0  -0.309994  0  3.495979  0  -1.207479  0  -0.307329  -0.279345  0  3.474686  0
N  N103  1  0.45859015  0.95232770  0.88133789  1  0  -0.360839  0  3.21536  0  0  -0.291373  0  3.48321  0  0  -0.309901  0  3.495882  0  -1.207487  0  -0.307332  -0.279266  0  3.474603  0
N  N104  1  0.04140982  0.45232758  0.88133846  1  0  -0.360865  0  3.21535  0  0  -0.291417  0  3.483225  0  0  -0.309949  0  3.495901  0  -1.207056  0  -0.307334  -0.279309  0  3.474619  0
N  N105  1  0.45859015  0.54767160  0.38133789  1  0  -0.360834  0  3.215409  0  0  -0.291461  0  3.483275  0  0  -0.309998  0  3.495956  0  -1.207064  0  -0.307344  -0.279354  0  3.474669  0
N  N106  1  0.95859012  0.95232664  0.61866211  1  0  -0.360844  0  3.21537  0  0  -0.291374  0  3.483211  0  0  -0.3099  0  3.495881  0  -1.207486  0  -0.307323  -0.279265  0  3.474602  0
N  N107  1  0.54140979  0.04767254  0.11866154  1  0  -0.360881  0  3.21537  0  0  -0.291431  0  3.483233  0  0  -0.309962  0  3.495908  0  -1.207072  0  -0.307338  -0.279323  0  3.474627  0
N  N108  1  0.02033146  0.71988247  0.21239554  1  0  -0.359017  0  3.015752  0  0  -0.323568  0  3.275567  0  0  -0.338496  0  3.290575  0  -1.161732  0  -0.303634  -0.313519  0  3.265463  0
N  N109  1  0.47966731  0.28011776  0.71239610  1  0  -0.358941  0  3.015655  0  0  -0.323489  0  3.275471  0  0  -0.338417  0  3.29048  0  -1.16167  0  -0.303613  -0.31344  0  3.265366  0
N  N110  1  0.97966848  0.21988236  0.28760446  1  0  -0.358957  0  3.015745  0  0  -0.323507  0  3.275568  0  0  -0.338435  0  3.290576  0  -1.161722  0  -0.303608  -0.313458  0  3.265464  0
N  N111  1  0.52033263  0.78011893  0.78760334  1  0  -0.359066  0  3.0157  0  0  -0.32362  0  3.275514  0  0  -0.338548  0  3.290522  0  -1.161734  0  -0.303639  -0.31357  0  3.265412  0
N  N112  1  0.97966609  0.28011776  0.78760446  1  0  -0.358939  0  3.015772  0  0  -0.323487  0  3.275578  0  0  -0.338415  0  3.290587  0  -1.161675  0  -0.303599  -0.313437  0  3.265475  0
N  N113  1  0.52033382  0.71988036  0.28760390  1  0  -0.358971  0  3.01578  0  0  -0.32356  0  3.275552  0  0  -0.338488  0  3.29056  0  -1.161721  0  -0.303655  -0.31351  0  3.26545  0
N  N114  1  0.02033266  0.78011893  0.71239610  1  0  -0.359022  0  3.015742  0  0  -0.323576  0  3.275562  0  0  -0.338504  0  3.290572  0  -1.161746  0  -0.303657  -0.313525  0  3.265458  0
N  N115  1  0.47966612  0.21988130  0.21239610  1  0  -0.35889  0  3.015766  0  0  -0.323443  0  3.275598  0  0  -0.338372  0  3.290609  0  -1.161741  0  -0.303584  -0.313393  0  3.265495  0
