# generated using pymatgen
data_Ho3H19C30O23
_symmetry_space_group_name_H-M   'P 1'
_cell_length_a   10.13517697
_cell_length_b   12.08913008
_cell_length_c   14.64083787
_cell_angle_alpha   68.96569959
_cell_angle_beta   84.51289708
_cell_angle_gamma   75.38029717
_symmetry_Int_Tables_number   1
_chemical_formula_structural   Ho3H19C30O23
_chemical_formula_sum   'Ho6 H38 C60 O46'
_cell_volume   1620.10574776
_cell_formula_units_Z   2
loop_
 _symmetry_equiv_pos_site_id
 _symmetry_equiv_pos_as_xyz
  1  'x, y, z'
loop_
 _atom_site_type_symbol
 _atom_site_label
 _atom_site_symmetry_multiplicity
 _atom_site_fract_x
 _atom_site_fract_y
 _atom_site_fract_z
 _atom_site_occupancy
 _atom_site_hle17_bader_spin_density
 _atom_site_hle17_ddec_charge
 _atom_site_hle17_ddec_spin_density
 _atom_site_hle17_ddec_sum_bond_order
 _atom_site_hle17_magmom
 _atom_site_hse06_10hf_bader_spin_density
 _atom_site_hse06_10hf_ddec_charge
 _atom_site_hse06_10hf_ddec_spin_density
 _atom_site_hse06_10hf_ddec_sum_bond_order
 _atom_site_hse06_10hf_magmom
 _atom_site_hse06_bader_spin_density
 _atom_site_hse06_ddec_charge
 _atom_site_hse06_ddec_spin_density
 _atom_site_hse06_ddec_sum_bond_order
 _atom_site_hse06_magmom
 _atom_site_pbe_bader_spin_density
 _atom_site_pbe_cm5_charge
 _atom_site_pbe_ddec_charge
 _atom_site_pbe_ddec_spin_density
 _atom_site_pbe_ddec_sum_bond_order
 _atom_site_pbe_magmom
Ho  Ho0  1  0.24567139  0.48503000  0.90059800  1  0  2.331803  0  1.614332  0  0  2.261785  0  1.947052  0  0  2.309311  0  1.902741  0  0  1.553184  2.227314  0  1.978275  0
Ho  Ho1  1  0.75432792  0.51497198  0.09940121  1  0  2.331808  0  1.614302  0  0  2.261803  0  1.947017  0  0  2.309331  0  1.902709  0  0  1.553195  2.227335  0  1.978239  0
Ho  Ho2  1  0.35992386  0.97936169  0.78296973  1  0  2.27504  0  1.681575  0  0  2.129796  0  2.158574  0  0  2.254668  0  1.973347  0  0  1.549149  2.09119  0  2.191718  0
Ho  Ho3  1  0.64007593  0.02063846  0.21702863  1  0  2.275045  0  1.681565  0  0  2.129767  0  2.158615  0  0  2.254661  0  1.973352  0  0  1.549172  2.091147  0  2.191781  0
Ho  Ho4  1  0.49313388  0.28878699  0.54769140  1  0  2.299311  0  1.639338  0  0  2.232883  0  1.967452  0  0  2.280922  0  1.924227  0  0  1.542038  2.11766  0  2.148986  0
Ho  Ho5  1  0.50686567  0.71121043  0.45230985  1  0  2.299328  0  1.63929  0  0  2.232897  0  1.967397  0  0  2.280933  0  1.924178  0  0  1.54206  2.117667  0  2.148944  0
H  H6  1  0.71775276  0.79876789  0.84936581  1  0  0.122711  0  0.957354  0  0  0.126713  0  1.026101  0  0  0.131197  0  1.022101  0  0  0.113834  0.123435  0  1.029083  0
H  H7  1  0.28224853  0.20123409  0.15063326  1  0  0.122767  0  0.957267  0  0  0.126719  0  1.026065  0  0  0.131198  0  1.022063  0  0  0.113839  0.123442  0  1.029044  0
H  H8  1  0.88109759  0.04978261  0.60434359  1  0  0.108005  0  0.931205  0  0  0.118759  0  0.989225  0  0  0.122255  0  0.985911  0  0  0.113504  0.116062  0  0.991912  0
H  H9  1  0.11890590  0.95021482  0.39565600  1  0  0.107985  0  0.931183  0  0  0.118721  0  0.989226  0  0  0.122216  0  0.985914  0  0  0.113508  0.116025  0  0.991912  0
H  H10  1  0.09084624  0.89194602  0.61189822  1  0  0.118924  0  0.950505  0  0  0.132651  0  1.00382  0  0  0.136079  0  1.002297  0  0  0.114574  0.130221  0  1.005014  0
H  H11  1  0.90915626  0.10805140  0.38810145  1  0  0.119004  0  0.950459  0  0  0.132693  0  1.003818  0  0  0.136118  0  1.002301  0  0  0.114584  0.130266  0  1.005009  0
H  H12  1  0.27871515  0.77348577  0.67732677  1  0  0.11958  0  0.938671  0  0  0.126657  0  1.005233  0  0  0.129406  0  1.003064  0  0  0.126365  0.124246  0  1.007752  0
H  H13  1  0.72128519  0.22651258  0.32267824  1  0  0.119538  0  0.938744  0  0  0.126656  0  1.00525  0  0  0.129408  0  1.003075  0  0  0.126354  0.124243  0  1.007769  0
H  H14  1  0.20398318  0.73294599  0.59142162  1  0  0.098724  0  0.940782  0  0  0.106574  0  1.009  0  0  0.108045  0  1.008109  0  0  0.120153  0.105842  0  1.008793  0
H  H15  1  0.79602135  0.26705511  0.40857953  1  0  0.098713  0  0.940692  0  0  0.106528  0  1.008952  0  0  0.107997  0  1.008058  0  0  0.120121  0.105797  0  1.008743  0
H  H16  1  0.01101640  0.30217224  0.95680339  1  0  0.125465  0  0.95189  0  0  0.129759  0  1.018712  0  0  0.134632  0  1.013989  0  0  0.11804  0.12628  0  1.022075  0
H  H17  1  0.98898413  0.69782883  0.04319464  1  0  0.125465  0  0.951893  0  0  0.129748  0  1.018721  0  0  0.134622  0  1.013998  0  0  0.118034  0.126271  0  1.022083  0
H  H18  1  0.96232276  0.97521335  0.18983857  1  0  0.107965  0  0.98832  0  0  0.113611  0  1.057609  0  0  0.116794  0  1.055773  0  0  0.111621  0.11069  0  1.060493  0
H  H19  1  0.03767805  0.02479047  0.81016135  1  0  0.107984  0  0.988308  0  0  0.113612  0  1.057618  0  0  0.116796  0  1.055778  0  0  0.111604  0.11069  0  1.060501  0
H  H20  1  0.16913705  0.85888493  0.13764051  1  0  0.114235  0  0.945374  0  0  0.129069  0  0.993858  0  0  0.132468  0  0.992497  0  0  0.112655  0.126675  0  0.994822  0
H  H21  1  0.83086352  0.14111615  0.86236093  1  0  0.114249  0  0.94535  0  0  0.129081  0  0.993838  0  0  0.132481  0  0.992477  0  0  0.112659  0.126687  0  0.994803  0
H  H22  1  0.32437894  0.77776825  0.08730970  1  0  0.103158  0  0.910347  0  0  0.118282  0  0.961238  0  0  0.120344  0  0.959003  0  0  0.124503  0.116968  0  0.962785  0
H  H23  1  0.67561939  0.22223373  0.91269026  1  0  0.103137  0  0.910366  0  0  0.11826  0  0.96126  0  0  0.120324  0  0.959024  0  0  0.124497  0.116945  0  0.962808  0
H  H24  1  0.44798390  0.85480895  0.09613553  1  0  0.13087  0  0.902265  0  0  0.14059  0  0.959946  0  0  0.143322  0  0.957761  0  0  0.128562  0.138759  0  0.961528  0
H  H25  1  0.55201689  0.14519121  0.90386480  1  0  0.13086  0  0.90222  0  0  0.14054  0  0.959953  0  0  0.14327  0  0.95777  0  0  0.128551  0.13871  0  0.961531  0
H  H26  1  0.93577612  0.24919654  0.62605040  1  0  0.118953  0  0.922657  0  0  0.130221  0  0.978297  0  0  0.134011  0  0.975384  0  0  0.114893  0.127337  0  0.9807  0
H  H27  1  0.06422147  0.75080452  0.37395057  1  0  0.118998  0  0.922696  0  0  0.130266  0  0.978325  0  0  0.134056  0  0.975411  0  0  0.114881  0.12738  0  0.980729  0
H  H28  1  0.88577313  0.53670570  0.34463898  1  0  0.11755  0  0.917593  0  0  0.127002  0  0.975484  0  0  0.130869  0  0.972518  0  0  0.117419  0.124106  0  0.978081  0
H  H29  1  0.11422247  0.46329536  0.65536146  1  0  0.11756  0  0.917662  0  0  0.127017  0  0.975537  0  0  0.130882  0  0.972573  0  0  0.117411  0.12412  0  0.978136  0
H  H30  1  0.13332832  0.47017295  0.30903925  1  0  0.124674  0  0.912166  0  0  0.140738  0  0.958182  0  0  0.144158  0  0.957287  0  0  0.117282  0.138277  0  0.959257  0
H  H31  1  0.86666679  0.52982993  0.69096068  1  0  0.124729  0  0.912057  0  0  0.140723  0  0.958171  0  0  0.14414  0  0.957278  0  0  0.11727  0.138263  0  0.959245  0
H  H32  1  0.34380614  0.29285827  0.28998811  1  0  0.104851  0  0.899981  0  0  0.117102  0  0.955716  0  0  0.119467  0  0.953466  0  0  0.117439  0.115284  0  0.957769  0
H  H33  1  0.65619266  0.70714188  0.71001169  1  0  0.104849  0  0.899978  0  0  0.117098  0  0.955725  0  0  0.119465  0  0.953471  0  0  0.117436  0.115285  0  0.957779  0
H  H34  1  0.28427081  0.16859442  0.37743131  1  0  0.101449  0  0.939804  0  0  0.11299  0  0.999689  0  0  0.113578  0  1.000834  0  0  0.117774  0.112529  0  0.99917  0
H  H35  1  0.71572356  0.83140754  0.62256895  1  0  0.101423  0  0.939842  0  0  0.11299  0  0.999707  0  0  0.113575  0  1.000852  0  0  0.117783  0.112532  0  0.999189  0
H  H36  1  0.44799158  0.65760133  0.88626140  1  0  0.454618  0  0.830605  0  0  0.424967  0  0.891365  0  0  0.435119  0  0.876264  0  0  0.313705  0.417725  0  0.902181  0
H  H37  1  0.55200893  0.34239973  0.11373527  1  0  0.454592  0  0.830642  0  0  0.424944  0  0.891395  0  0  0.435093  0  0.876297  0  0  0.313703  0.417703  0  0.902208  0
H  H38  1  0.53085926  0.52153165  0.90799252  1  0  0.447109  0  0.803155  0  0  0.42856  0  0.858683  0  0  0.437246  0  0.845802  0  0  0.334775  0.422352  0  0.86661  0
H  H39  1  0.46913856  0.47846850  0.09200803  1  0  0.447138  0  0.803143  0  0  0.428629  0  0.858601  0  0  0.437318  0  0.845711  0  0  0.334797  0.422417  0  0.866544  0
H  H40  1  0.40868441  0.24498608  0.74774311  1  0  0.427556  0  0.880077  0  0  0.396007  0  0.946307  0  0  0.407188  0  0.929842  0  0  0.298614  0.387957  0  0.957921  0
H  H41  1  0.59131564  0.75501316  0.25225756  1  0  0.427596  0  0.88002  0  0  0.396041  0  0.946263  0  0  0.407223  0  0.929796  0  0  0.298629  0.387988  0  0.957879  0
H  H42  1  0.44193468  0.37324939  0.72071214  1  0  0.44642  0  0.848172  0  0  0.418141  0  0.906867  0  0  0.429319  0  0.89037  0  0  0.302443  0.409817  0  0.918953  0
H  H43  1  0.55806412  0.62675076  0.27928697  1  0  0.446444  0  0.848149  0  0  0.41817  0  0.906832  0  0  0.429346  0  0.890339  0  0  0.30246  0.409847  0  0.918917  0
C  C44  1  0.02213333  0.75141999  0.73305988  1  0  0.295331  0  3.710133  0  0  0.279903  0  3.969247  0  0  0.294333  0  3.98467  0  0  0.103902  0.270348  0  3.958549  0
C  C45  1  0.97786594  0.24857833  0.26693907  1  0  0.29523  0  3.710317  0  0  0.279839  0  3.969321  0  0  0.294273  0  3.984745  0  0  0.103879  0.270287  0  3.958619  0
C  C46  1  0.91514186  0.72450041  0.80167636  1  0  -0.203445  0  3.704716  0  0  -0.187193  0  3.948014  0  0  -0.201187  0  3.970735  0  0  -0.025765  -0.178078  0  3.932795  0
C  C47  1  0.08485942  0.27549793  0.19832381  1  0  -0.203397  0  3.704683  0  0  -0.187041  0  3.947806  0  0  -0.201037  0  3.970528  0  0  -0.02573  -0.177928  0  3.932587  0
C  C48  1  0.79996348  0.81894285  0.79723291  1  0  -0.037057  0  3.711068  0  0  -0.074748  0  3.965632  0  0  -0.069665  0  3.983551  0  0  -0.069579  -0.077658  0  3.953231  0
C  C49  1  0.20003804  0.18105457  0.20276751  1  0  -0.037075  0  3.711147  0  0  -0.074755  0  3.965692  0  0  -0.069661  0  3.983602  0  0  -0.069567  -0.077668  0  3.953296  0
C  C50  1  0.78604818  0.93491572  0.72690460  1  0  -0.111487  0  3.789407  0  0  -0.088801  0  4.026254  0  0  -0.100081  0  4.048196  0  0  -0.026248  -0.081822  0  4.012145  0
C  C51  1  0.21395483  0.06508353  0.27309516  1  0  -0.111559  0  3.789483  0  0  -0.088902  0  4.026299  0  0  -0.10018  0  4.048236  0  0  -0.026273  -0.081924  0  4.012192  0
C  C52  1  0.89154920  0.95902912  0.65924091  1  0  -0.000737  0  3.713041  0  0  -0.028746  0  3.965783  0  0  -0.022367  0  3.980281  0  0  -0.067204  -0.032672  0  3.956029  0
C  C53  1  0.10845529  0.04096832  0.34075929  1  0  -0.000572  0  3.712872  0  0  -0.028552  0  3.965593  0  0  -0.022173  0  3.980091  0  0  -0.067159  -0.03248  0  3.955841  0
C  C54  1  0.00853633  0.86885341  0.66275351  1  0  -0.191329  0  3.728785  0  0  -0.214128  0  3.989158  0  0  -0.222469  0  4.00862  0  0  -0.102242  -0.208825  0  3.975919  0
C  C55  1  0.99146716  0.13114402  0.33724608  1  0  -0.191463  0  3.728847  0  0  -0.214267  0  3.98922  0  0  -0.222612  0  4.00869  0  0  -0.102291  -0.208963  0  3.97598  0
C  C56  1  0.24434603  0.70016519  0.66587118  1  0  -0.102022  0  3.609091  0  0  -0.161417  0  3.87433  0  0  -0.158315  0  3.873578  0  0  -0.062271  -0.163328  0  3.874574  0
C  C57  1  0.75565626  0.29983316  0.33413095  1  0  -0.10189  0  3.609052  0  0  -0.161342  0  3.874272  0  0  -0.158229  0  3.873505  0  0  -0.062221  -0.163282  0  3.874594  0
C  C58  1  0.36372440  0.59137582  0.67768018  1  0  0.737691  0  3.826422  0  0  0.692328  0  4.124837  0  0  0.726261  0  4.113833  0  0  0.231848  0.668325  0  4.130981  0
C  C59  1  0.63628208  0.40862527  0.32231878  1  0  0.73755  0  3.826709  0  0  0.692392  0  4.124832  0  0  0.726334  0  4.113806  0  0  0.231901  0.668375  0  4.130996  0
C  C60  1  0.91614056  0.60317394  0.88035452  1  0  0.755295  0  3.823246  0  0  0.706926  0  4.124293  0  0  0.743828  0  4.110219  0  0  0.235884  0.681823  0  4.133429  0
C  C61  1  0.08385924  0.39682622  0.11964520  1  0  0.755304  0  3.82315  0  0  0.706883  0  4.124237  0  0  0.743785  0  4.110164  0  0  0.235887  0.68178  0  4.133372  0
C  C62  1  0.65690429  0.02988884  0.71680470  1  0  0.730656  0  3.866686  0  0  0.68252  0  4.161028  0  0  0.717997  0  4.153724  0  0  0.234089  0.657358  0  4.166351  0
C  C63  1  0.34309723  0.97011223  0.28319326  1  0  0.730516  0  3.866893  0  0  0.682452  0  4.161126  0  0  0.717929  0  4.153819  0  0  0.234026  0.657291  0  4.166449  0
C  C64  1  0.20480718  0.01200335  0.01170190  1  0  0.289725  0  3.728334  0  0  0.274399  0  3.991844  0  0  0.28855  0  4.008637  0  0  0.103485  0.264677  0  3.982055  0
C  C65  1  0.79519138  0.98799771  0.98829764  1  0  0.289766  0  3.728306  0  0  0.274374  0  3.991856  0  0  0.288524  0  4.008651  0  0  0.103456  0.264645  0  3.982074  0
C  C66  1  0.16027497  0.13876418  0.96157878  1  0  -0.192298  0  3.742527  0  0  -0.177378  0  3.985334  0  0  -0.190256  0  4.005763  0  0  -0.023768  -0.16914  0  3.971856  0
C  C67  1  0.83972484  0.86123598  0.03842231  1  0  -0.19236  0  3.742544  0  0  -0.177444  0  3.985353  0  0  -0.190323  0  4.005782  0  0  -0.023808  -0.169203  0  3.971875  0
C  C68  1  0.04309200  0.20385762  0.99412588  1  0  -0.032257  0  3.696771  0  0  -0.068083  0  3.947137  0  0  -0.06258  0  3.963304  0  0  -0.066524  -0.071333  0  3.935802  0
C  C69  1  0.95690655  0.79614344  0.00587230  1  0  -0.032317  0  3.696876  0  0  -0.068099  0  3.947248  0  0  -0.062588  0  3.963406  0  0  -0.066525  -0.071349  0  3.935911  0
C  C70  1  0.96815277  0.14568721  0.07350209  1  0  -0.111752  0  3.798356  0  0  -0.091294  0  4.038194  0  0  -0.103273  0  4.062387  0  0  -0.028061  -0.083592  0  4.021832  0
C  C71  1  0.03184777  0.85431386  0.92649730  1  0  -0.111659  0  3.798312  0  0  -0.091265  0  4.038272  0  0  -0.103243  0  4.062469  0  0  -0.028071  -0.083562  0  4.021909  0
C  C72  1  0.01554692  0.02084610  0.12441356  1  0  -0.027748  0  3.733823  0  0  -0.057053  0  3.991835  0  0  -0.05261  0  4.011225  0  0  -0.069756  -0.059609  0  3.979048  0
C  C73  1  0.98445363  0.97915498  0.87558651  1  0  -0.027768  0  3.733901  0  0  -0.057035  0  3.991937  0  0  -0.05259  0  4.011326  0  0  -0.069711  -0.059588  0  3.979145  0
C  C74  1  0.13391690  0.95496690  0.09491243  1  0  -0.185203  0  3.739214  0  0  -0.205788  0  3.998921  0  0  -0.21474  0  4.019506  0  0  -0.098921  -0.199748  0  3.984285  0
C  C75  1  0.86608466  0.04503419  0.90508894  1  0  -0.185251  0  3.739248  0  0  -0.205825  0  3.998963  0  0  -0.214777  0  4.019548  0  0  -0.098927  -0.199782  0  3.984329  0
C  C76  1  0.39276440  0.83553389  0.04459142  1  0  -0.06904  0  3.570006  0  0  -0.12119  0  3.825654  0  0  -0.11811  0  3.826344  0  0  -0.052565  -0.123756  0  3.826797  0
C  C77  1  0.60723493  0.16446809  0.95540984  1  0  -0.069046  0  3.569945  0  0  -0.121178  0  3.82562  0  0  -0.118103  0  3.826312  0  0  -0.052579  -0.123743  0  3.826762  0
C  C78  1  0.48793055  0.76149913  0.99018633  1  0  0.745992  0  3.828619  0  0  0.69875  0  4.126833  0  0  0.733212  0  4.117721  0  0  0.239782  0.675176  0  4.134324  0
C  C79  1  0.51206728  0.23850102  0.00981490  1  0  0.746161  0  3.82842  0  0  0.698802  0  4.126807  0  0  0.733275  0  4.117676  0  0  0.239826  0.675227  0  4.134299  0
C  C80  1  0.23299169  0.20945274  0.87631809  1  0  0.749534  0  3.832395  0  0  0.703639  0  4.117769  0  0  0.740403  0  4.106699  0  0  0.241044  0.678745  0  4.125984  0
C  C81  1  0.76701081  0.79054469  0.12368158  1  0  0.74954  0  3.832359  0  0  0.703669  0  4.117714  0  0  0.740432  0  4.106644  0  0  0.241045  0.678775  0  4.125927  0
C  C82  1  0.84506458  0.21805606  0.10728859  1  0  0.727344  0  3.85796  0  0  0.681489  0  4.148366  0  0  0.717464  0  4.138855  0  0  0.228023  0.656825  0  4.155926  0
C  C83  1  0.15493597  0.78194501  0.89271149  1  0  0.727451  0  3.85776  0  0  0.681516  0  4.148334  0  0  0.717478  0  4.138848  0  0  0.228029  0.656851  0  4.155895  0
C  C84  1  0.17351004  0.32924913  0.45022720  1  0  0.282537  0  3.745935  0  0  0.266484  0  4.012021  0  0  0.278609  0  4.027064  0  0  0.097792  0.258366  0  3.999336  0
C  C85  1  0.82648828  0.67075285  0.54977208  1  0  0.282622  0  3.745777  0  0  0.26656  0  4.011879  0  0  0.278688  0  4.026921  0  0  0.097861  0.25844  0  3.99919  0
C  C86  1  0.12023926  0.26629293  0.54109181  1  0  -0.16199  0  3.708381  0  0  -0.146305  0  3.948614  0  0  -0.157245  0  3.968502  0  0  -0.016452  -0.138509  0  3.93428  0
C  C87  1  0.87976030  0.73370814  0.45890834  1  0  -0.161823  0  3.708393  0  0  -0.146197  0  3.948616  0  0  -0.157136  0  3.968504  0  0  -0.016464  -0.138394  0  3.934273  0
C  C88  1  0.97920323  0.29941253  0.55723085  1  0  -0.042707  0  3.672998  0  0  -0.077143  0  3.920538  0  0  -0.073348  0  3.938515  0  0  -0.06684  -0.079178  0  3.908406  0
C  C89  1  0.02079510  0.70058945  0.44276980  1  0  -0.042959  0  3.673183  0  0  -0.077408  0  3.920713  0  0  -0.073613  0  3.938693  0  0  -0.066914  -0.079444  0  3.908582  0
C  C90  1  0.89477201  0.39797788  0.48796736  1  0  -0.091102  0  3.732624  0  0  -0.06814  0  3.968539  0  0  -0.078541  0  3.992707  0  0  -0.018124  -0.062326  0  3.954691  0
C  C91  1  0.10522484  0.60202227  0.51203462  1  0  -0.091042  0  3.732559  0  0  -0.06799  0  3.968366  0  0  -0.078395  0  3.992534  0  0  -0.018062  -0.062172  0  3.954528  0
C  C92  1  0.95131002  0.46025505  0.39876629  1  0  -0.013006  0  3.683986  0  0  -0.043489  0  3.945739  0  0  -0.03902  0  3.962724  0  0  -0.067164  -0.046623  0  3.935571  0
C  C93  1  0.04868634  0.53974692  0.60123451  1  0  -0.013052  0  3.684214  0  0  -0.043548  0  3.945923  0  0  -0.039078  0  3.962909  0  0  -0.067189  -0.046686  0  3.935761  0
C  C94  1  0.08936416  0.42367058  0.37892441  1  0  -0.162909  0  3.70288  0  0  -0.188415  0  3.969522  0  0  -0.19538  0  3.988223  0  0  -0.090601  -0.184354  0  3.957922  0
C  C95  1  0.91063513  0.57632775  0.62107590  1  0  -0.162943  0  3.702885  0  0  -0.188403  0  3.96957  0  0  -0.195367  0  3.98827  0  0  -0.090586  -0.184341  0  3.957972  0
C  C96  1  0.35155113  0.23078926  0.36658735  1  0  -0.064526  0  3.584712  0  0  -0.11866  0  3.841449  0  0  -0.115827  0  3.840427  0  0  -0.056159  -0.120922  0  3.839959  0
C  C97  1  0.64844447  0.76921180  0.63341309  1  0  -0.064438  0  3.584765  0  0  -0.118654  0  3.841493  0  0  -0.115811  0  3.840464  0  0  -0.05618  -0.120935  0  3.840025  0
C  C98  1  0.49723813  0.15545611  0.38832334  1  0  0.754766  0  3.812109  0  0  0.711733  0  4.106325  0  0  0.746789  0  4.095457  0  0  0.238804  0.687817  0  4.111531  0
C  C99  1  0.50275745  0.84454129  0.61167752  1  0  0.754543  0  3.812403  0  0  0.711663  0  4.106401  0  0  0.746717  0  4.095535  0  0  0.238692  0.687748  0  4.111612  0
C  C100  1  0.20962338  0.16831135  0.62010932  1  0  0.712764  0  3.844986  0  0  0.667734  0  4.133374  0  0  0.703419  0  4.127464  0  0  0.219265  0.642279  0  4.139892  0
C  C101  1  0.79037442  0.83168879  0.37988919  1  0  0.712528  0  3.845336  0  0  0.667629  0  4.133556  0  0  0.703315  0  4.127649  0  0  0.219257  0.64217  0  4.140074  0
C  C102  1  0.74395216  0.43692690  0.50600126  1  0  0.724341  0  3.865109  0  0  0.67867  0  4.161443  0  0  0.714229  0  4.149569  0  0  0.234814  0.653917  0  4.163856  0
C  C103  1  0.25604493  0.56307234  0.49400099  1  0  0.724384  0  3.865036  0  0  0.678654  0  4.161411  0  0  0.714225  0  4.149524  0  0  0.234814  0.653878  0  4.163854  0
O  O104  1  0.14046455  0.66350026  0.73732735  1  0  -0.339005  0  2.459558  0  0  -0.272374  0  2.702748  0  0  -0.29139  0  2.707066  0  0  -0.189673  -0.258875  0  2.699418  0
O  O105  1  0.85953674  0.33649808  0.26267350  1  0  -0.338968  0  2.459607  0  0  -0.272362  0  2.702789  0  0  -0.291388  0  2.707108  0  0  -0.189652  -0.258866  0  2.699455  0
O  O106  1  0.45503736  0.59989150  0.61259127  1  0  -0.711636  0  2.051831  0  0  -0.679908  0  2.305562  0  0  -0.704495  0  2.294304  0  0  -0.380725  -0.650554  0  2.314538  0
O  O107  1  0.54496470  0.40010776  0.38741197  1  0  -0.711648  0  2.051753  0  0  -0.679977  0  2.30537  0  0  -0.70457  0  2.294107  0  0  -0.380773  -0.650614  0  2.314356  0
O  O108  1  0.36482147  0.49688535  0.75317905  1  0  -0.715308  0  2.095388  0  0  -0.669856  0  2.338536  0  0  -0.694551  0  2.325022  0  0  -0.376997  -0.653369  0  2.349258  0
O  O109  1  0.63517756  0.50311024  0.24682142  1  0  -0.715216  0  2.095606  0  0  -0.669866  0  2.338694  0  0  -0.69456  0  2.325174  0  0  -0.377015  -0.653373  0  2.349424  0
O  O110  1  0.01828491  0.51415478  0.88715539  1  0  -0.742768  0  2.065767  0  0  -0.70766  0  2.326675  0  0  -0.731631  0  2.312138  0  0  -0.412661  -0.690965  0  2.336307  0
O  O111  1  0.98171315  0.48584445  0.11284405  1  0  -0.74275  0  2.065722  0  0  -0.707641  0  2.326655  0  0  -0.731613  0  2.31212  0  0  -0.412663  -0.690944  0  2.336281  0
O  O112  1  0.81187424  0.59498115  0.93646396  1  0  -0.752858  0  1.993856  0  0  -0.718477  0  2.250786  0  0  -0.741978  0  2.235121  0  0  -0.407224  -0.701956  0  2.26111  0
O  O113  1  0.18812356  0.40501899  0.06353454  1  0  -0.75289  0  1.993911  0  0  -0.718516  0  2.250898  0  0  -0.742004  0  2.235202  0  0  -0.407243  -0.701995  0  2.261218  0
O  O114  1  0.56652794  0.01262066  0.78472365  1  0  -0.767628  0  2.045359  0  0  -0.722557  0  2.312457  0  0  -0.758882  0  2.297372  0  0  -0.438314  -0.704263  0  2.320635  0
O  O115  1  0.43347332  0.98737767  0.21527515  1  0  -0.767574  0  2.045441  0  0  -0.722509  0  2.312461  0  0  -0.758848  0  2.297396  0  0  -0.438326  -0.704213  0  2.320642  0
O  O116  1  0.64249248  0.12085338  0.63858246  1  0  -0.703331  0  2.095419  0  0  -0.665186  0  2.35526  0  0  -0.689834  0  2.34304  0  0  -0.399781  -0.636638  0  2.366656  0
O  O117  1  0.35751077  0.87914861  0.36141510  1  0  -0.703274  0  2.095478  0  0  -0.665158  0  2.355275  0  0  -0.689803  0  2.343053  0  0  -0.399735  -0.636611  0  2.366675  0
O  O118  1  0.31818396  0.94827417  0.97600983  1  0  -0.339869  0  2.406446  0  0  -0.273635  0  2.652806  0  0  -0.298265  0  2.65697  0  0  -0.190809  -0.260719  0  2.651205  0
O  O119  1  0.68181611  0.05172873  0.02399042  1  0  -0.339893  0  2.406508  0  0  -0.273536  0  2.652806  0  0  -0.298165  0  2.656973  0  0  -0.190755  -0.260613  0  2.651202  0
O  O120  1  0.56080431  0.66237549  0.04387627  1  0  -0.731451  0  2.073162  0  0  -0.694706  0  2.33609  0  0  -0.720267  0  2.323099  0  0  -0.408062  -0.676545  0  2.3444  0
O  O121  1  0.43919328  0.33762557  0.95612470  1  0  -0.73149  0  2.073078  0  0  -0.694711  0  2.336059  0  0  -0.720278  0  2.323062  0  0  -0.408061  -0.676551  0  2.344371  0
O  O122  1  0.48336570  0.79741597  0.89759176  1  0  -0.718305  0  2.088679  0  0  -0.66407  0  2.336632  0  0  -0.698301  0  2.322353  0  0  -0.369728  -0.646675  0  2.345181  0
O  O123  1  0.51663161  0.20258235  0.10240801  1  0  -0.718391  0  2.088705  0  0  -0.664092  0  2.336678  0  0  -0.698327  0  2.322388  0  0  -0.369779  -0.646698  0  2.345225  0
O  O124  1  0.30286882  0.15523940  0.82016733  1  0  -0.758702  0  2.120447  0  0  -0.699875  0  2.369034  0  0  -0.737108  0  2.354335  0  0  -0.397398  -0.681471  0  2.377529  0
O  O125  1  0.69713295  0.84476076  0.17983157  1  0  -0.758676  0  2.120413  0  0  -0.699866  0  2.369008  0  0  -0.737097  0  2.354308  0  0  -0.397385  -0.681456  0  2.377502  0
O  O126  1  0.22213166  0.32081503  0.86153190  1  0  -0.711237  0  2.035145  0  0  -0.672174  0  2.286673  0  0  -0.696367  0  2.273493  0  0  -0.385691  -0.655066  0  2.295021  0
O  O127  1  0.77787260  0.67918332  0.13846872  1  0  -0.711259  0  2.035134  0  0  -0.672201  0  2.286639  0  0  -0.696403  0  2.273487  0  0  -0.385691  -0.655091  0  2.294987  0
O  O128  1  0.82464438  0.33355138  0.07244325  1  0  -0.747316  0  2.068684  0  0  -0.707748  0  2.321952  0  0  -0.732434  0  2.30932  0  0  -0.407786  -0.690394  0  2.330057  0
O  O129  1  0.17535718  0.66644971  0.92755812  1  0  -0.747347  0  2.068621  0  0  -0.707745  0  2.321944  0  0  -0.732428  0  2.309319  0  0  -0.407751  -0.69039  0  2.330048  0
O  O130  1  0.76783824  0.16082916  0.17080377  1  0  -0.762633  0  2.0853  0  0  -0.713599  0  2.356758  0  0  -0.750594  0  2.342497  0  0  -0.418268  -0.695277  0  2.364417  0
O  O131  1  0.23215906  0.83917280  0.82919286  1  0  -0.762674  0  2.08523  0  0  -0.713624  0  2.356777  0  0  -0.750611  0  2.342525  0  0  -0.418297  -0.695313  0  2.364452  0
O  O132  1  0.31255062  0.29813561  0.43230350  1  0  -0.367241  0  2.465164  0  0  -0.305112  0  2.711386  0  0  -0.320066  0  2.711631  0  0  -0.225708  -0.28651  0  2.708593  0
O  O133  1  0.68744770  0.70186637  0.56769578  1  0  -0.36728  0  2.465165  0  0  -0.305127  0  2.7114  0  0  -0.320087  0  2.711645  0  0  -0.225709  -0.286515  0  2.708616  0
O  O134  1  0.55127950  0.10473994  0.32677730  1  0  -0.755927  0  2.038034  0  0  -0.707309  0  2.308481  0  0  -0.746542  0  2.289101  0  0  -0.434518  -0.688592  0  2.317873  0
O  O135  1  0.44871462  0.89525928  0.67322448  1  0  -0.755885  0  2.038143  0  0  -0.707319  0  2.308521  0  0  -0.74655  0  2.289143  0  0  -0.434472  -0.688615  0  2.317934  0
O  O136  1  0.55560209  0.14850944  0.46275962  1  0  -0.678984  0  2.005835  0  0  -0.642986  0  2.245086  0  0  -0.666518  0  2.233185  0  0  -0.365035  -0.616134  0  2.254436  0
O  O137  1  0.44439497  0.85148614  0.53724167  1  0  -0.67885  0  2.00592  0  0  -0.642909  0  2.245108  0  0  -0.666435  0  2.233205  0  0  -0.364991  -0.616064  0  2.254474  0
O  O138  1  0.33706346  0.16480339  0.62449178  1  0  -0.807602  0  2.128689  0  0  -0.764062  0  2.385445  0  0  -0.79631  0  2.374313  0  0  -0.41176  -0.735265  0  2.395441  0
O  O139  1  0.66293529  0.83519310  0.37550570  1  0  -0.807485  0  2.128862  0  0  -0.763951  0  2.38549  0  0  -0.796212  0  2.374383  0  0  -0.411698  -0.735162  0  2.395503  0
O  O140  1  0.15866884  0.08792646  0.68538779  1  0  -0.690648  0  1.985124  0  0  -0.643579  0  2.224293  0  0  -0.677333  0  2.214212  0  0  -0.369444  -0.626328  0  2.231139  0
O  O141  1  0.84133025  0.91207644  0.31461321  1  0  -0.690588  0  1.985158  0  0  -0.643575  0  2.224272  0  0  -0.67733  0  2.214192  0  0  -0.369474  -0.626324  0  2.231121  0
O  O142  1  0.68332513  0.35535080  0.55825093  1  0  -0.730711  0  2.029982  0  0  -0.693464  0  2.2823  0  0  -0.717555  0  2.268361  0  0  -0.396543  -0.664174  0  2.293586  0
O  O143  1  0.31667468  0.64464571  0.44175262  1  0  -0.730682  0  2.029921  0  0  -0.69343  0  2.282276  0  0  -0.717526  0  2.268335  0  0  -0.39648  -0.664127  0  2.293566  0
O  O144  1  0.68628053  0.54867807  0.46448943  1  0  -0.750513  0  2.086175  0  0  -0.719221  0  2.356649  0  0  -0.743884  0  2.343577  0  0  -0.40289  -0.688697  0  2.36652  0
O  O145  1  0.31371682  0.45132026  0.53551375  1  0  -0.750574  0  2.086154  0  0  -0.719274  0  2.356663  0  0  -0.74394  0  2.34358  0  0  -0.402945  -0.688745  0  2.366544  0
O  O146  1  0.43994206  0.57467801  0.89525191  1  0  -0.906702  0  1.883966  0  0  -0.87178  0  2.075539  0  0  -0.887905  0  2.043349  0  0  -0.618214  -0.860322  0  2.0967  0
O  O147  1  0.56005789  0.42532485  0.10473811  1  0  -0.906676  0  1.883974  0  0  -0.871855  0  2.075509  0  0  -0.887978  0  2.043325  0  0  -0.618216  -0.860394  0  2.096686  0
O  O148  1  0.47029727  0.29603410  0.70667719  1  0  -0.913998  0  1.86357  0  0  -0.880113  0  2.053303  0  0  -0.898271  0  2.019164  0  0  -0.655812  -0.856071  0  2.08221  0
O  O149  1  0.52970301  0.70396423  0.29332304  1  0  -0.914079  0  1.863553  0  0  -0.880197  0  2.053279  0  0  -0.898352  0  2.01914  0  0  -0.655833  -0.856154  0  2.08219  0
