# generated using pymatgen
data_MgH2(CO2)2
_symmetry_space_group_name_H-M   'P 1'
_cell_length_a   9.91548264
_cell_length_b   11.40355466
_cell_length_c   14.59180069
_cell_angle_alpha   91.41667494
_cell_angle_beta   89.99994222
_cell_angle_gamma   89.99997775
_symmetry_Int_Tables_number   1
_chemical_formula_structural   MgH2(CO2)2
_chemical_formula_sum   'Mg12 H24 C24 O48'
_cell_volume   1649.41609474
_cell_formula_units_Z   12
loop_
 _symmetry_equiv_pos_site_id
 _symmetry_equiv_pos_as_xyz
  1  'x, y, z'
loop_
 _atom_site_type_symbol
 _atom_site_label
 _atom_site_symmetry_multiplicity
 _atom_site_fract_x
 _atom_site_fract_y
 _atom_site_fract_z
 _atom_site_occupancy
 _atom_site_hle17_bader_spin_density
 _atom_site_hle17_ddec_charge
 _atom_site_hle17_ddec_spin_density
 _atom_site_hle17_ddec_sum_bond_order
 _atom_site_hle17_magmom
 _atom_site_hse06_10hf_bader_spin_density
 _atom_site_hse06_10hf_ddec_charge
 _atom_site_hse06_10hf_ddec_spin_density
 _atom_site_hse06_10hf_ddec_sum_bond_order
 _atom_site_hse06_10hf_magmom
 _atom_site_hse06_bader_spin_density
 _atom_site_hse06_ddec_charge
 _atom_site_hse06_ddec_spin_density
 _atom_site_hse06_ddec_sum_bond_order
 _atom_site_hse06_magmom
 _atom_site_pbe_bader_spin_density
 _atom_site_pbe_cm5_charge
 _atom_site_pbe_ddec_charge
 _atom_site_pbe_ddec_spin_density
 _atom_site_pbe_ddec_sum_bond_order
 _atom_site_pbe_magmom
Mg  Mg0  1  0.92239907  0.74349320  0.86494401  1  0  1.495233  0  1.144646  0  0  1.375882  0  1.407482  0  0  1.402709  0  1.368084  0  0  0.827915  1.357049  0  1.434693  0
Mg  Mg1  1  0.42239937  0.75650675  0.63505631  1  0  1.495256  0  1.144608  0  0  1.375887  0  1.407471  0  0  1.402735  0  1.368056  0  0  0.827925  1.357075  0  1.43464  0
Mg  Mg2  1  0.07760070  0.25650733  0.13505572  1  0  1.495234  0  1.144634  0  0  1.37588  0  1.407468  0  0  1.402701  0  1.36808  0  0  0.827903  1.357038  0  1.43469  0
Mg  Mg3  1  0.57760040  0.24349290  0.36494409  1  0  1.495228  0  1.144679  0  0  1.375878  0  1.407512  0  0  1.402702  0  1.36812  0  0  0.827904  1.357044  0  1.434718  0
Mg  Mg4  1  0.00000101  1.00000000  1.00000000  1  0  1.481791  0  1.157807  0  0  1.369795  0  1.420156  0  0  1.396343  0  1.380716  0  0  0.815723  1.351001  0  1.447739  0
Mg  Mg5  1  0.50000039  0.49999939  0.49999985  1  0  1.481796  0  1.157806  0  0  1.369762  0  1.420237  0  0  1.39631  0  1.380796  0  0  0.815718  1.350974  0  1.447824  0
Mg  Mg6  1  0.11190915  0.76022831  0.68945205  1  0  1.475541  0  1.190792  0  0  1.362618  0  1.450404  0  0  1.388064  0  1.413686  0  0  0.827986  1.344588  0  1.476141  0
Mg  Mg7  1  0.61190994  0.73977175  0.81054848  1  0  1.475541  0  1.190786  0  0  1.362623  0  1.450394  0  0  1.388068  0  1.413674  0  0  0.827999  1.34459  0  1.476127  0
Mg  Mg8  1  0.88808962  0.23977222  0.31054768  1  0  1.475542  0  1.190785  0  0  1.362634  0  1.45037  0  0  1.38808  0  1.413652  0  0  0.827992  1.3446  0  1.47609  0
Mg  Mg9  1  0.38808984  0.26022878  0.18945125  1  0  1.47554  0  1.190781  0  0  1.362596  0  1.450431  0  0  1.388042  0  1.413713  0  0  0.827992  1.344564  0  1.476169  0
Mg  Mg10  1  0.99999989  0.50000025  0.00000069  1  0  1.489762  0  1.162196  0  0  1.377263  0  1.426179  0  0  1.403493  0  1.386715  0  0  0.821972  1.35868  0  1.453742  0
Mg  Mg11  1  0.49999927  0.99999964  0.49999986  1  0  1.489702  0  1.162287  0  0  1.37724  0  1.426229  0  0  1.403468  0  1.386769  0  0  0.821962  1.358702  0  1.453698  0
H  H12  1  0.04373409  0.02927773  0.72632746  1  0  0.024652  0  0.885059  0  0  0.035739  0  0.945052  0  0  0.036477  0  0.940296  0  0  0.125993  0.034961  0  0.948612  0
H  H13  1  0.54373483  0.47072185  0.77367242  1  0  0.024632  0  0.885064  0  0  0.035712  0  0.945063  0  0  0.036448  0  0.94031  0  0  0.125986  0.034926  0  0.948623  0
H  H14  1  0.95626569  0.97072280  0.27367227  1  0  0.02465  0  0.885118  0  0  0.035756  0  0.945094  0  0  0.036492  0  0.940339  0  0  0.125999  0.034968  0  0.948658  0
H  H15  1  0.45626696  0.52927693  0.22632728  1  0  0.024646  0  0.885075  0  0  0.035739  0  0.945063  0  0  0.036475  0  0.940309  0  0  0.125999  0.034958  0  0.948623  0
H  H16  1  0.60302268  0.93800953  0.95869582  1  0  0.021333  0  0.904013  0  0  0.029946  0  0.971244  0  0  0.030838  0  0.965513  0  0  0.122708  0.028996  0  0.975545  0
H  H17  1  0.10302320  0.56198965  0.54130539  1  0  0.021342  0  0.904014  0  0  0.029954  0  0.971241  0  0  0.030846  0  0.96551  0  0  0.122698  0.029003  0  0.975544  0
H  H18  1  0.39697811  0.06199012  0.04130458  1  0  0.021367  0  0.904005  0  0  0.029994  0  0.971214  0  0  0.030887  0  0.965481  0  0  0.122709  0.029048  0  0.975516  0
H  H19  1  0.89697859  0.43801000  0.45869570  1  0  0.021329  0  0.903917  0  0  0.029907  0  0.971204  0  0  0.030798  0  0.965473  0  0  0.122699  0.02896  0  0.975502  0
H  H20  1  0.74946367  0.63190536  0.62445557  1  0  0.024717  0  0.931565  0  0  0.030551  0  1.004422  0  0  0.031245  0  0.999792  0  0  0.12227  0.029844  0  1.007725  0
H  H21  1  0.24946356  0.86809377  0.87554484  1  0  0.024713  0  0.931504  0  0  0.030544  0  1.004369  0  0  0.031238  0  0.999737  0  0  0.122263  0.029843  0  1.007673  0
H  H22  1  0.25053409  0.36809604  0.37554211  1  0  0.024729  0  0.931565  0  0  0.030569  0  1.004409  0  0  0.031264  0  0.999778  0  0  0.122264  0.029862  0  1.00772  0
H  H23  1  0.75053722  0.13190588  0.12445555  1  0  0.024734  0  0.93152  0  0  0.030571  0  1.004375  0  0  0.031264  0  0.999747  0  0  0.122273  0.029865  0  1.007679  0
H  H24  1  0.70506821  0.49604509  0.99227871  1  0  0.025113  0  0.901689  0  0  0.033559  0  0.966563  0  0  0.034319  0  0.96141  0  0  0.12513  0.032617  0  0.970654  0
H  H25  1  0.20506881  0.00395355  0.50772241  1  0  0.025121  0  0.901701  0  0  0.033563  0  0.966574  0  0  0.034328  0  0.961413  0  0  0.125143  0.032622  0  0.970662  0
H  H26  1  0.29493157  0.50395456  0.00772237  1  0  0.025102  0  0.901705  0  0  0.03354  0  0.966586  0  0  0.034303  0  0.961427  0  0  0.125135  0.032599  0  0.970671  0
H  H27  1  0.79493197  0.99604522  0.49227729  1  0  0.025079  0  0.901748  0  0  0.033531  0  0.966615  0  0  0.034274  0  0.96148  0  0  0.125134  0.032591  0  0.970709  0
H  H28  1  0.20770681  0.51680411  0.76237074  1  0  0.011752  0  0.892686  0  0  0.023325  0  0.955567  0  0  0.02335  0  0.951257  0  0  0.119581  0.022986  0  0.9588  0
H  H29  1  0.70770659  0.98319591  0.73762904  1  0  0.011769  0  0.892674  0  0  0.023336  0  0.955555  0  0  0.023362  0  0.951243  0  0  0.11958  0.022993  0  0.958801  0
H  H30  1  0.79229297  0.48319554  0.23762829  1  0  0.011784  0  0.892694  0  0  0.023356  0  0.955571  0  0  0.023381  0  0.951259  0  0  0.119586  0.023018  0  0.958807  0
H  H31  1  0.29229319  0.01680374  0.26237067  1  0  0.011759  0  0.892685  0  0  0.023329  0  0.955566  0  0  0.023354  0  0.951255  0  0  0.119582  0.022995  0  0.958797  0
H  H32  1  0.16683178  0.81031734  0.07726472  1  0  0.018403  0  0.898698  0  0  0.028872  0  0.961115  0  0  0.029247  0  0.956501  0  0  0.123391  0.028329  0  0.964619  0
H  H33  1  0.66683142  0.68968249  0.42273571  1  0  0.018403  0  0.89871  0  0  0.028876  0  0.961124  0  0  0.029251  0  0.956509  0  0  0.123398  0.028337  0  0.964626  0
H  H34  1  0.83316800  0.18968319  0.92273501  1  0  0.018408  0  0.898677  0  0  0.028902  0  0.96107  0  0  0.029254  0  0.956479  0  0  0.123398  0.028349  0  0.964582  0
H  H35  1  0.33316937  0.31031717  0.57726468  1  0  0.018387  0  0.898715  0  0  0.028858  0  0.96113  0  0  0.029232  0  0.956516  0  0  0.123392  0.028315  0  0.964632  0
C  C36  1  0.01734883  0.98170013  0.78904487  1  0  0.660331  0  3.843224  0  0  0.580571  0  4.163666  0  0  0.613841  0  4.152016  0  0  0.182039  0.558145  0  4.170812  0
C  C37  1  0.51734886  0.51829996  0.71095436  1  0  0.66038  0  3.843132  0  0  0.580628  0  4.163559  0  0  0.613899  0  4.151905  0  0  0.182054  0.558218  0  4.170692  0
C  C38  1  0.98265095  0.01830040  0.21095555  1  0  0.660325  0  3.843173  0  0  0.580551  0  4.163623  0  0  0.613821  0  4.151973  0  0  0.182025  0.558135  0  4.170764  0
C  C39  1  0.48265092  0.48169969  0.28904535  1  0  0.660382  0  3.843077  0  0  0.580616  0  4.163518  0  0  0.613886  0  4.151867  0  0  0.182041  0.5582  0  4.170658  0
C  C40  1  0.71250097  0.92210938  0.95034578  1  0  0.658639  0  3.834901  0  0  0.582384  0  4.145625  0  0  0.615623  0  4.134866  0  0  0.182428  0.559934  0  4.152358  0
C  C41  1  0.21250047  0.57788977  0.54965466  1  0  0.658614  0  3.83497  0  0  0.582363  0  4.145678  0  0  0.615604  0  4.134917  0  0  0.18243  0.559923  0  4.152408  0
C  C42  1  0.28750083  0.07789027  0.04965393  1  0  0.65858  0  3.834978  0  0  0.582316  0  4.145694  0  0  0.615556  0  4.134935  0  0  0.182396  0.559864  0  4.152432  0
C  C43  1  0.78749830  0.42210989  0.45034505  1  0  0.658649  0  3.83482  0  0  0.582409  0  4.145549  0  0  0.615647  0  4.134789  0  0  0.182393  0.559953  0  4.152291  0
C  C44  1  0.83031194  0.66895974  0.66837319  1  0  0.663179  0  3.8113  0  0  0.586705  0  4.122677  0  0  0.620392  0  4.11096  0  0  0.177661  0.563996  0  4.129976  0
C  C45  1  0.33031292  0.83104024  0.83162651  1  0  0.663158  0  3.811342  0  0  0.586681  0  4.122723  0  0  0.620366  0  4.111008  0  0  0.17765  0.563959  0  4.130037  0
C  C46  1  0.16968683  0.33104429  0.33162455  1  0  0.663142  0  3.811559  0  0  0.586662  0  4.122938  0  0  0.620349  0  4.111224  0  0  0.177618  0.563944  0  4.130253  0
C  C47  1  0.66968786  0.16895942  0.16837389  1  0  0.663067  0  3.811433  0  0  0.586586  0  4.122816  0  0  0.620273  0  4.111102  0  0  0.177591  0.563872  0  4.130125  0
C  C48  1  0.72379450  0.56859934  0.94528960  1  0  0.666445  0  3.820392  0  0  0.587952  0  4.134755  0  0  0.622025  0  4.122226  0  0  0.180991  0.564946  0  4.14271  0
C  C49  1  0.22379585  0.93140068  0.55471016  1  0  0.666453  0  3.820442  0  0  0.587967  0  4.134804  0  0  0.622039  0  4.122274  0  0  0.181009  0.564959  0  4.142764  0
C  C50  1  0.27620528  0.43140031  0.05471011  1  0  0.66649  0  3.820423  0  0  0.588003  0  4.134783  0  0  0.622075  0  4.122253  0  0  0.181013  0.564996  0  4.142738  0
C  C51  1  0.77620494  0.06859810  0.44529022  1  0  0.666503  0  3.82046  0  0  0.588006  0  4.13483  0  0  0.62209  0  4.122297  0  0  0.181006  0.56499  0  4.1428  0
C  C52  1  0.13353488  0.54707926  0.81470364  1  0  0.660106  0  3.852421  0  0  0.584371  0  4.165073  0  0  0.617749  0  4.154248  0  0  0.179189  0.561843  0  4.171831  0
C  C53  1  0.63353475  0.95291992  0.68529686  1  0  0.660078  0  3.852444  0  0  0.58435  0  4.16509  0  0  0.617728  0  4.154266  0  0  0.17922  0.561825  0  4.171857  0
C  C54  1  0.86646389  0.45292215  0.18529748  1  0  0.660106  0  3.85266  0  0  0.584373  0  4.165308  0  0  0.617752  0  4.154485  0  0  0.179278  0.561842  0  4.172069  0
C  C55  1  0.36646502  0.04707886  0.31470283  1  0  0.66011  0  3.852403  0  0  0.584379  0  4.165046  0  0  0.617758  0  4.154221  0  0  0.179215  0.561848  0  4.17181  0
C  C56  1  0.10240834  0.75743260  0.03041654  1  0  0.67252  0  3.826199  0  0  0.593116  0  4.142247  0  0  0.6273  0  4.129567  0  0  0.181938  0.569926  0  4.150429  0
C  C57  1  0.60240788  0.74256725  0.46958325  1  0  0.672502  0  3.826313  0  0  0.593097  0  4.14236  0  0  0.627283  0  4.129679  0  0  0.181928  0.569904  0  4.150549  0
C  C58  1  0.89759144  0.24256793  0.96958319  1  0  0.672549  0  3.826145  0  0  0.593128  0  4.1422  0  0  0.62733  0  4.129514  0  0  0.181926  0.569952  0  4.150373  0
C  C59  1  0.39759089  0.25743328  0.53041648  1  0  0.672565  0  3.826153  0  0  0.593161  0  4.142198  0  0  0.627348  0  4.129515  0  0  0.181961  0.569975  0  4.150379  0
O  O60  1  0.00726060  0.86959942  0.77988413  1  0  -0.782287  0  2.16953  0  0  -0.712619  0  2.431209  0  0  -0.736105  0  2.41613  0  0  -0.385246  -0.696258  0  2.440906  0
O  O61  1  0.50725955  0.63040156  0.72011581  1  0  -0.782299  0  2.169441  0  0  -0.712636  0  2.43113  0  0  -0.736124  0  2.416044  0  0  -0.385251  -0.696293  0  2.440824  0
O  O62  1  0.99274120  0.13040199  0.22011699  1  0  -0.782277  0  2.1694  0  0  -0.712616  0  2.431088  0  0  -0.736103  0  2.416012  0  0  -0.38525  -0.696259  0  2.440778  0
O  O63  1  0.49273921  0.36959897  0.27988461  1  0  -0.782307  0  2.169479  0  0  -0.712641  0  2.431191  0  0  -0.736128  0  2.416112  0  0  -0.385268  -0.696286  0  2.440887  0
O  O64  1  0.74529621  0.84313992  0.88964247  1  0  -0.773219  0  2.125863  0  0  -0.702247  0  2.380886  0  0  -0.725975  0  2.366058  0  0  -0.37504  -0.685835  0  2.390544  0
O  O65  1  0.24529659  0.65686097  0.61035730  1  0  -0.773224  0  2.125866  0  0  -0.702252  0  2.380886  0  0  -0.725986  0  2.366056  0  0  -0.375045  -0.685845  0  2.390542  0
O  O66  1  0.25470357  0.15686061  0.11035725  1  0  -0.773245  0  2.125907  0  0  -0.702264  0  2.380923  0  0  -0.725993  0  2.366097  0  0  -0.375032  -0.685846  0  2.39058  0
O  O67  1  0.75470319  0.34313868  0.38964242  1  0  -0.773249  0  2.125795  0  0  -0.702286  0  2.380835  0  0  -0.726015  0  2.366011  0  0  -0.375029  -0.685867  0  2.390488  0
O  O68  1  0.80010255  0.69279359  0.75251071  1  0  -0.779969  0  2.152757  0  0  -0.707356  0  2.400978  0  0  -0.732374  0  2.38861  0  0  -0.378043  -0.690055  0  2.408966  0
O  O69  1  0.30010266  0.80720640  0.74749038  1  0  -0.779976  0  2.152798  0  0  -0.707343  0  2.40098  0  0  -0.732366  0  2.388618  0  0  -0.378035  -0.69004  0  2.408977  0
O  O70  1  0.19989622  0.30720869  0.24748974  1  0  -0.779963  0  2.152925  0  0  -0.707338  0  2.40113  0  0  -0.732356  0  2.388771  0  0  -0.378039  -0.690029  0  2.40912  0
O  O71  1  0.69989712  0.19279238  0.25251069  1  0  -0.779942  0  2.152836  0  0  -0.707318  0  2.401038  0  0  -0.732336  0  2.388675  0  0  -0.378039  -0.69002  0  2.409032  0
O  O72  1  0.84747380  0.60171688  0.93713208  1  0  -0.77304  0  2.10482  0  0  -0.702088  0  2.355095  0  0  -0.725771  0  2.339015  0  0  -0.373176  -0.685541  0  2.365421  0
O  O73  1  0.34747415  0.89828309  0.56286829  1  0  -0.772994  0  2.104783  0  0  -0.702049  0  2.355054  0  0  -0.725736  0  2.338975  0  0  -0.373166  -0.685512  0  2.36539  0
O  O74  1  0.15252698  0.39828365  0.06286765  1  0  -0.773031  0  2.104836  0  0  -0.70208  0  2.355107  0  0  -0.725763  0  2.33903  0  0  -0.373165  -0.685528  0  2.365429  0
O  O75  1  0.65252664  0.10171568  0.43713209  1  0  -0.773049  0  2.104864  0  0  -0.702104  0  2.355131  0  0  -0.725784  0  2.339046  0  0  -0.373177  -0.685557  0  2.365454  0
O  O76  1  0.08249045  0.64937332  0.80278580  1  0  -0.776813  0  2.146738  0  0  -0.704897  0  2.399891  0  0  -0.729517  0  2.386665  0  0  -0.374224  -0.687871  0  2.408463  0
O  O77  1  0.58249035  0.85062763  0.69721408  1  0  -0.77676  0  2.146812  0  0  -0.70484  0  2.399969  0  0  -0.729465  0  2.386744  0  0  -0.374215  -0.687815  0  2.40854  0
O  O78  1  0.91750731  0.35062809  0.19721326  1  0  -0.776841  0  2.146939  0  0  -0.704928  0  2.400079  0  0  -0.729544  0  2.386852  0  0  -0.374279  -0.687899  0  2.408651  0
O  O79  1  0.41750942  0.14937378  0.30278566  1  0  -0.776825  0  2.146734  0  0  -0.704906  0  2.399889  0  0  -0.729525  0  2.386661  0  0  -0.374237  -0.687877  0  2.408464  0
O  O80  1  0.02761046  0.81568519  0.97514211  1  0  -0.778493  0  2.104779  0  0  -0.709112  0  2.363826  0  0  -0.732447  0  2.34652  0  0  -0.377315  -0.693005  0  2.375305  0
O  O81  1  0.52760968  0.68431577  0.52485781  1  0  -0.7785  0  2.104809  0  0  -0.709109  0  2.363856  0  0  -0.732448  0  2.346544  0  0  -0.377316  -0.693001  0  2.375334  0
O  O82  1  0.97239033  0.18431446  0.02485828  1  0  -0.77853  0  2.104765  0  0  -0.709134  0  2.363786  0  0  -0.732465  0  2.346469  0  0  -0.377326  -0.693032  0  2.375265  0
O  O83  1  0.47239010  0.31568388  0.47514259  1  0  -0.778491  0  2.104811  0  0  -0.709095  0  2.363845  0  0  -0.732431  0  2.346538  0  0  -0.377307  -0.692992  0  2.375327  0
O  O84  1  0.99990428  0.03902902  0.86214379  1  0  -0.649009  0  2.052994  0  0  -0.594233  0  2.301677  0  0  -0.617559  0  2.289174  0  0  -0.335629  -0.578138  0  2.309821  0
O  O85  1  0.49990247  0.46097127  0.63785579  1  0  -0.649032  0  2.052996  0  0  -0.594249  0  2.301678  0  0  -0.617576  0  2.289174  0  0  -0.335648  -0.578168  0  2.30982  0
O  O86  1  0.00009751  0.96097326  0.13785598  1  0  -0.649005  0  2.053003  0  0  -0.594228  0  2.301693  0  0  -0.617554  0  2.289193  0  0  -0.335622  -0.578144  0  2.309842  0
O  O87  1  0.50009630  0.53902838  0.36214461  1  0  -0.649041  0  2.052901  0  0  -0.594257  0  2.301592  0  0  -0.617583  0  2.289091  0  0  -0.335618  -0.578168  0  2.309739  0
O  O88  1  0.79304465  0.98086068  0.99871838  1  0  -0.6459  0  2.059629  0  0  -0.591387  0  2.307398  0  0  -0.615271  0  2.295957  0  0  -0.333567  -0.574922  0  2.314716  0
O  O89  1  0.29304324  0.51913931  0.50128203  1  0  -0.645877  0  2.059685  0  0  -0.591353  0  2.307444  0  0  -0.615238  0  2.296005  0  0  -0.333538  -0.574897  0  2.314769  0
O  O90  1  0.20695815  0.01913985  0.00128204  1  0  -0.64585  0  2.059709  0  0  -0.591335  0  2.307481  0  0  -0.615221  0  2.296043  0  0  -0.333522  -0.574874  0  2.314806  0
O  O91  1  0.70695654  0.48086034  0.49871837  1  0  -0.645869  0  2.059726  0  0  -0.591334  0  2.307473  0  0  -0.615219  0  2.296034  0  0  -0.333514  -0.574874  0  2.314799  0
O  O92  1  0.62474841  0.61120850  0.90439236  1  0  -0.657814  0  2.024415  0  0  -0.602921  0  2.264684  0  0  -0.626166  0  2.251499  0  0  -0.348983  -0.586924  0  2.273438  0
O  O93  1  0.12474972  0.88879068  0.59560746  1  0  -0.657854  0  2.024505  0  0  -0.602963  0  2.264776  0  0  -0.626209  0  2.251591  0  0  -0.349006  -0.586963  0  2.273534  0
O  O94  1  0.37525137  0.38879116  0.09560804  1  0  -0.657837  0  2.02443  0  0  -0.60294  0  2.264701  0  0  -0.626186  0  2.251518  0  0  -0.34901  -0.586946  0  2.273461  0
O  O95  1  0.87525208  0.11120897  0.40439293  1  0  -0.657823  0  2.024412  0  0  -0.602934  0  2.264688  0  0  -0.626177  0  2.251495  0  0  -0.348996  -0.586929  0  2.273443  0
O  O96  1  0.10757545  0.48068836  0.87903373  1  0  -0.638984  0  2.038834  0  0  -0.585564  0  2.278512  0  0  -0.608396  0  2.266433  0  0  -0.334542  -0.569912  0  2.286529  0
O  O97  1  0.60757561  0.01931119  0.62096610  1  0  -0.63902  0  2.038814  0  0  -0.58561  0  2.278485  0  0  -0.608441  0  2.266404  0  0  -0.334578  -0.569961  0  2.286494  0
O  O98  1  0.89242534  0.51931392  0.12096740  1  0  -0.638994  0  2.038847  0  0  -0.585573  0  2.27852  0  0  -0.608406  0  2.266441  0  0  -0.334584  -0.56992  0  2.286536  0
O  O99  1  0.39242417  0.98068934  0.37903431  1  0  -0.638976  0  2.038836  0  0  -0.585564  0  2.278502  0  0  -0.608396  0  2.266425  0  0  -0.334549  -0.569919  0  2.286518  0
O  O100  1  0.10809946  0.64840071  0.03428157  1  0  -0.65494  0  2.057922  0  0  -0.59855  0  2.304438  0  0  -0.621959  0  2.291354  0  0  -0.33611  -0.582479  0  2.313135  0
O  O101  1  0.60809896  0.85159826  0.46571820  1  0  -0.654909  0  2.057999  0  0  -0.598529  0  2.30451  0  0  -0.621936  0  2.291424  0  0  -0.336095  -0.582462  0  2.313206  0
O  O102  1  0.89190032  0.35160070  0.96571886  1  0  -0.654953  0  2.057939  0  0  -0.598569  0  2.30447  0  0  -0.621976  0  2.291373  0  0  -0.336093  -0.582502  0  2.313165  0
O  O103  1  0.39190183  0.14839963  0.53428148  1  0  -0.654957  0  2.057843  0  0  -0.598578  0  2.304356  0  0  -0.621987  0  2.29127  0  0  -0.336143  -0.582513  0  2.313048  0
O  O104  1  0.94395545  0.68392228  0.63261758  1  0  -0.653278  0  2.012025  0  0  -0.598163  0  2.25259  0  0  -0.621572  0  2.239446  0  0  -0.346215  -0.582073  0  2.261168  0
O  O105  1  0.44395538  0.81607766  0.86738203  1  0  -0.653258  0  2.012101  0  0  -0.598142  0  2.252666  0  0  -0.621551  0  2.239521  0  0  -0.346204  -0.582044  0  2.261244  0
O  O106  1  0.05604433  0.31608000  0.36738081  1  0  -0.653248  0  2.012087  0  0  -0.598131  0  2.252649  0  0  -0.62154  0  2.239506  0  0  -0.346158  -0.582034  0  2.261226  0
O  O107  1  0.55604440  0.18392200  0.13261836  1  0  -0.653211  0  2.012135  0  0  -0.598096  0  2.252704  0  0  -0.621506  0  2.239562  0  0  -0.346159  -0.582006  0  2.261285  0
