# generated using pymatgen
data_Cu2P2H22C27N2
_symmetry_space_group_name_H-M   'P 1'
_cell_length_a   8.17446358
_cell_length_b   9.10042896
_cell_length_c   9.35012672
_cell_angle_alpha   105.10662429
_cell_angle_beta   115.89915420
_cell_angle_gamma   89.99078005
_symmetry_Int_Tables_number   1
_chemical_formula_structural   Cu2P2H22C27N2
_chemical_formula_sum   'Cu2 P2 H22 C27 N2'
_cell_volume   598.88700844
_cell_formula_units_Z   1
loop_
 _symmetry_equiv_pos_site_id
 _symmetry_equiv_pos_as_xyz
  1  'x, y, z'
loop_
 _atom_site_type_symbol
 _atom_site_label
 _atom_site_symmetry_multiplicity
 _atom_site_fract_x
 _atom_site_fract_y
 _atom_site_fract_z
 _atom_site_occupancy
 _atom_site_hle17_bader_spin_density
 _atom_site_hle17_ddec_charge
 _atom_site_hle17_ddec_spin_density
 _atom_site_hle17_ddec_sum_bond_order
 _atom_site_hle17_magmom
 _atom_site_hse06_10hf_bader_spin_density
 _atom_site_hse06_10hf_ddec_charge
 _atom_site_hse06_10hf_ddec_spin_density
 _atom_site_hse06_10hf_ddec_sum_bond_order
 _atom_site_hse06_10hf_magmom
 _atom_site_hse06_bader_spin_density
 _atom_site_hse06_ddec_charge
 _atom_site_hse06_ddec_spin_density
 _atom_site_hse06_ddec_sum_bond_order
 _atom_site_hse06_magmom
 _atom_site_pbe_bader_spin_density
 _atom_site_pbe_cm5_charge
 _atom_site_pbe_ddec_charge
 _atom_site_pbe_ddec_spin_density
 _atom_site_pbe_ddec_sum_bond_order
 _atom_site_pbe_magmom
Cu  Cu0  1  0.79229734  0.03296430  0.35660089  1  0  0.241439  0  2.374571  0  0  0.172597  0  2.842871  0  0  0.162616  0  2.809534  0  0  0.465184  0.18158  0  2.863913  0
Cu  Cu1  1  0.43572310  0.96694073  0.64350130  1  0  0.241004  0  2.375008  0  0  0.172201  0  2.843249  0  0  0.162067  0  2.8099  0  0  0.465231  0.181765  0  2.863984  0
P  P2  1  0.62777906  0.86751890  0.83708800  1  0  0.351592  0  3.755632  0  0  0.292193  0  4.225833  0  0  0.311204  0  4.214181  0  0  -0.034906  0.278126  0  4.23422  0
P  P3  1  0.79080059  0.13260713  0.16312484  1  0  0.352324  0  3.755323  0  0  0.293478  0  4.224426  0  0  0.312508  0  4.212752  0  0  -0.034774  0.279835  0  4.23239  0
H  H4  1  0.88274183  0.06443383  0.93820108  1  0  0.139907  0  0.933664  0  0  0.159216  0  0.983954  0  0  0.161074  0  0.984886  0  0  0.109479  0.157644  0  0.983906  0
H  H5  1  0.94459101  0.93562569  0.06173845  1  0  0.139458  0  0.933493  0  0  0.158693  0  0.984082  0  0  0.160601  0  0.984921  0  0  0.109241  0.157462  0  0.983375  0
H  H6  1  0.45963391  0.17559902  0.19509803  1  0  0.081436  0  0.986944  0  0  0.085268  0  1.063053  0  0  0.088348  0  1.061382  0  0  0.093826  0.083062  0  1.064266  0
H  H7  1  0.26454765  0.82441141  0.80459903  1  0  0.081315  0  0.987041  0  0  0.085086  0  1.06334  0  0  0.08824  0  1.061524  0  0  0.093747  0.082865  0  1.064541  0
H  H8  1  0.17105565  0.27411102  0.03638635  1  0  0.083921  0  0.968035  0  0  0.09454  0  1.027996  0  0  0.096385  0  1.02914  0  0  0.095387  0.093003  0  1.027969  0
H  H9  1  0.13406255  0.72582174  0.96292937  1  0  0.083696  0  0.969001  0  0  0.093936  0  1.029751  0  0  0.095841  0  1.030808  0  0  0.095578  0.09267  0  1.028929  0
H  H10  1  0.13255120  0.35709543  0.79127799  1  0  0.08075  0  0.984719  0  0  0.091931  0  1.046933  0  0  0.093991  0  1.04666  0  0  0.097468  0.090526  0  1.047181  0
H  H11  1  0.34012009  0.64277812  0.20816793  1  0  0.07983  0  0.985511  0  0  0.091395  0  1.047436  0  0  0.093335  0  1.047316  0  0  0.097471  0.090094  0  1.047465  0
H  H12  1  0.38144986  0.34347726  0.70596081  1  0  0.088142  0  0.96896  0  0  0.099455  0  1.030009  0  0  0.101368  0  1.030499  0  0  0.099177  0.097697  0  1.030425  0
H  H13  1  0.67440683  0.65641813  0.29391807  1  0  0.088058  0  0.968798  0  0  0.099395  0  1.029795  0  0  0.101342  0  1.030261  0  0  0.099268  0.097827  0  1.030098  0
H  H14  1  0.67319576  0.25362273  0.86898364  1  0  0.090918  0  0.953135  0  0  0.103528  0  1.012618  0  0  0.10567  0  1.011299  0  0  0.100632  0.101958  0  1.013889  0
H  H15  1  0.80363019  0.74639277  0.13126241  1  0  0.091082  0  0.952434  0  0  0.103879  0  1.012105  0  0  0.106031  0  1.010751  0  0  0.100869  0.102458  0  1.012887  0
H  H16  1  0.82119604  0.46467357  0.17294280  1  0  0.086332  0  0.985234  0  0  0.096041  0  1.051959  0  0  0.097716  0  1.053367  0  0  0.095825  0.094826  0  1.051045  0
H  H17  1  0.64837856  0.53559603  0.82731465  1  0  0.085785  0  0.985791  0  0  0.095628  0  1.052405  0  0  0.097132  0  1.054033  0  0  0.095855  0.094557  0  1.051343  0
H  H18  1  0.09155477  0.66597503  0.31048083  1  0  0.087349  0  0.968689  0  0  0.099431  0  1.027949  0  0  0.101611  0  1.027383  0  0  0.097741  0.097945  0  1.02821  0
H  H19  1  0.78115308  0.33412508  0.68975779  1  0  0.087876  0  0.968372  0  0  0.100031  0  1.027175  0  0  0.102215  0  1.026654  0  0  0.097707  0.098344  0  1.028025  0
H  H20  1  0.40497747  0.60029329  0.46121031  1  0  0.085255  0  0.966816  0  0  0.094307  0  1.032709  0  0  0.097514  0  1.030664  0  0  0.097361  0.091925  0  1.034386  0
H  H21  1  0.94387307  0.39953485  0.53885072  1  0  0.084835  0  0.968441  0  0  0.094292  0  1.033686  0  0  0.097411  0  1.031783  0  0  0.097208  0.091865  0  1.03552  0
H  H22  1  0.44753463  0.33096544  0.47032666  1  0  0.088206  0  0.97581  0  0  0.098589  0  1.037607  0  0  0.10011  0  1.038921  0  0  0.098135  0.097418  0  1.0372  0
H  H23  1  0.97763530  0.66885039  0.52984838  1  0  0.088014  0  0.975789  0  0  0.098398  0  1.037759  0  0  0.099792  0  1.039214  0  0  0.098354  0.097427  0  1.036885  0
H  H24  1  0.18038258  0.13256144  0.34200827  1  0  0.09822  0  0.960985  0  0  0.110235  0  1.020329  0  0  0.112388  0  1.020127  0  0  0.101429  0.108713  0  1.020474  0
H  H25  1  0.83898028  0.86748867  0.65827993  1  0  0.09859  0  0.960443  0  0  0.110699  0  1.01946  0  0  0.112863  0  1.019306  0  0  0.10167  0.10881  0  1.020226  0
C  C26  1  0.64535499  0.04797266  0.46619740  1  0  -0.076068  0  3.481297  0  0  -0.077801  0  3.840456  0  0  -0.061588  0  3.835663  0  0  -0.049554  -0.088861  0  3.844121  0
C  C27  1  0.17924785  0.95187026  0.53376305  1  0  -0.074646  0  3.480883  0  0  -0.076208  0  3.8402  0  0  -0.05969  0  3.835058  0  0  -0.049085  -0.08787  0  3.843183  0
C  C28  1  0.83456730  0.00007039  0.00007283  1  0  -0.435187  0  3.586242  0  0  -0.438774  0  3.832844  0  0  -0.449998  0  3.843811  0  0  -0.170433  -0.430316  0  3.824861  0
C  C29  1  0.58549142  0.20922924  0.04402468  1  0  -0.112063  0  3.767732  0  0  -0.067435  0  3.995421  0  0  -0.075795  0  4.022703  0  0  -0.030718  -0.061977  0  3.977307  0
C  C30  1  0.54125580  0.79083949  0.95601794  1  0  -0.112004  0  3.769137  0  0  -0.066549  0  3.995454  0  0  -0.074896  0  4.022848  0  0  -0.029569  -0.06105  0  3.977382  0
C  C31  1  0.44268299  0.21468455  0.08918206  1  0  -0.068895  0  3.753271  0  0  -0.086667  0  3.992258  0  0  -0.087579  0  4.01539  0  0  -0.083468  -0.085809  0  3.976569  0
C  C32  1  0.35323953  0.78532715  0.91059112  1  0  -0.069266  0  3.752348  0  0  -0.087166  0  3.99103  0  0  -0.088081  0  4.014083  0  0  -0.084107  -0.086249  0  3.975371  0
C  C33  1  0.28016360  0.26811391  0.99849523  1  0  -0.063139  0  3.753365  0  0  -0.072213  0  3.992414  0  0  -0.075687  0  4.015601  0  0  -0.087847  -0.069716  0  3.976882  0
C  C34  1  0.28107005  0.73188828  0.00108115  1  0  -0.063807  0  3.753612  0  0  -0.072752  0  3.992837  0  0  -0.076302  0  4.016003  0  0  -0.08904  -0.070388  0  3.976886  0
C  C35  1  0.25882566  0.31488901  0.86151817  1  0  -0.045466  0  3.746591  0  0  -0.057932  0  3.986384  0  0  -0.058706  0  4.007933  0  0  -0.082933  -0.057267  0  3.971199  0
C  C36  1  0.39639376  0.68506434  0.13812614  1  0  -0.043148  0  3.745232  0  0  -0.05569  0  3.984296  0  0  -0.056319  0  4.005936  0  0  -0.081939  -0.055113  0  3.969319  0
C  C37  1  0.39958660  0.30843081  0.81427706  1  0  -0.064359  0  3.743258  0  0  -0.076685  0  3.991983  0  0  -0.078992  0  4.011227  0  0  -0.089781  -0.074458  0  3.978665  0
C  C38  1  0.58441539  0.69151005  0.18558409  1  0  -0.065201  0  3.743547  0  0  -0.077505  0  3.992244  0  0  -0.079871  0  4.011538  0  0  -0.090079  -0.075686  0  3.979421  0
C  C39  1  0.56282325  0.25614770  0.90507209  1  0  -0.085657  0  3.762341  0  0  -0.104416  0  4.011731  0  0  -0.102266  0  4.028124  0  0  -0.092833  -0.106097  0  4.000703  0
C  C40  1  0.65716486  0.74385305  0.09499701  1  0  -0.085492  0  3.763567  0  0  -0.104728  0  4.012954  0  0  -0.102652  0  4.029522  0  0  -0.093331  -0.106318  0  4.001684  0
C  C41  1  0.98173179  0.28492762  0.24714327  1  0  -0.102033  0  3.760601  0  0  -0.060631  0  4.000532  0  0  -0.066298  0  4.024748  0  0  -0.02856  -0.056775  0  3.984036  0
C  C42  1  0.73489591  0.71524545  0.75312247  1  0  -0.101778  0  3.759062  0  0  -0.061015  0  3.999798  0  0  -0.066671  0  4.024  0  0  -0.028939  -0.056737  0  3.983234  0
C  C43  1  0.95846233  0.43536087  0.23791065  1  0  -0.087867  0  3.760774  0  0  -0.108243  0  4.002401  0  0  -0.110028  0  4.025782  0  0  -0.091662  -0.106786  0  3.986115  0
C  C44  1  0.72072996  0.56481066  0.76231236  1  0  -0.086305  0  3.758892  0  0  -0.106293  0  4.000113  0  0  -0.107978  0  4.023525  0  0  -0.091367  -0.105383  0  3.984226  0
C  C45  1  0.11049931  0.54825094  0.31456123  1  0  -0.078789  0  3.778936  0  0  -0.087899  0  4.021776  0  0  -0.090208  0  4.043032  0  0  -0.09331  -0.086203  0  4.007105  0
C  C46  1  0.79612175  0.45182074  0.68564175  1  0  -0.080114  0  3.779863  0  0  -0.089145  0  4.022608  0  0  -0.091468  0  4.043784  0  0  -0.093285  -0.087595  0  4.008595  0
C  C47  1  0.28645438  0.51176196  0.39963366  1  0  -0.069435  0  3.758666  0  0  -0.08243  0  4.003661  0  0  -0.083501  0  4.023831  0  0  -0.089021  -0.081781  0  3.990774  0
C  C48  1  0.88702311  0.48815726  0.60047329  1  0  -0.068305  0  3.759411  0  0  -0.081444  0  4.004168  0  0  -0.082544  0  4.024319  0  0  -0.08849  -0.081113  0  3.991123  0
C  C49  1  0.31069361  0.36126505  0.40629753  1  0  -0.067488  0  3.768579  0  0  -0.075262  0  4.008178  0  0  -0.077825  0  4.030845  0  0  -0.088915  -0.073939  0  3.994358  0
C  C50  1  0.90472752  0.63865385  0.59386511  1  0  -0.067711  0  3.76761  0  0  -0.075763  0  4.008041  0  0  -0.078186  0  4.030617  0  0  -0.089292  -0.074119  0  3.9929  0
C  C51  1  0.15951909  0.24846071  0.33167408  1  0  -0.078961  0  3.724398  0  0  -0.097697  0  3.962172  0  0  -0.098971  0  3.983785  0  0  -0.085217  -0.096709  0  3.948176  0
C  C52  1  0.82826002  0.75158475  0.66857302  1  0  -0.079657  0  3.724279  0  0  -0.098057  0  3.962225  0  0  -0.099418  0  3.98377  0  0  -0.085745  -0.097035  0  3.947669  0
N  N53  1  0.56438072  0.04629443  0.54360274  1  0  -0.385578  0  3.301835  0  0  -0.323266  0  3.621773  0  0  -0.338159  0  3.627384  0  0  -0.437655  -0.313884  0  3.618439  0
N  N54  1  0.02091872  0.95364414  0.45632982  1  0  -0.386913  0  3.301428  0  0  -0.324779  0  3.62203  0  0  -0.339696  0  3.627369  0  0  -0.437983  -0.315171  0  3.617934  0
