# generated using pymatgen
data_ZnH27C32N2O10F
_symmetry_space_group_name_H-M   'P 1'
_cell_length_a   12.06269356
_cell_length_b   12.87686941
_cell_length_c   23.49987878
_cell_angle_alpha   88.20680251
_cell_angle_beta   86.49508431
_cell_angle_gamma   86.42842403
_symmetry_Int_Tables_number   1
_chemical_formula_structural   ZnH27C32N2O10F
_chemical_formula_sum   'Zn2 H54 C64 N4 O20 F2'
_cell_volume   3634.94174874
_cell_formula_units_Z   2
loop_
 _symmetry_equiv_pos_site_id
 _symmetry_equiv_pos_as_xyz
  1  'x, y, z'
loop_
 _atom_site_type_symbol
 _atom_site_label
 _atom_site_symmetry_multiplicity
 _atom_site_fract_x
 _atom_site_fract_y
 _atom_site_fract_z
 _atom_site_occupancy
 _atom_site_pbe_bader_charge
 _atom_site_pbe_bader_spin_density
 _atom_site_pbe_cm5_charge
 _atom_site_pbe_ddec_charge
 _atom_site_pbe_ddec_spin_density
 _atom_site_pbe_ddec_sum_bond_order
 _atom_site_pbe_magmom
Zn  Zn0  1  0.62844332  0.50619094  0.50401018  1  1.311614  0  0.687741  0.90062  0  2.254226  0
Zn  Zn1  1  0.38420756  0.48157683  0.50106068  1  1.316256  0  0.688802  0.885613  0  2.304164  0
H  H2  1  0.69381853  0.70582407  0.93404685  1  0.129937  0  0.119999  0.124814  0  0.974931  0
H  H3  1  0.35056261  0.66047341  0.66731216  1  0.09212  0  0.111106  0.116232  0  0.986535  0
H  H4  1  0.42833890  0.69621082  0.23367876  1  0.09543  0  0.119316  0.148501  0  0.968118  0
H  H5  1  0.56474533  0.43234588  0.80099746  1  0.096546  0  0.117812  0.146034  0  0.971428  0
H  H6  1  0.38817962  0.18612500  0.50438269  1  0.116593  0  0.108545  0.121784  0  1.018094  0
H  H7  1  0.63524566  0.80613668  0.49800480  1  0.111726  0  0.107076  0.119994  0  1.028181  0
H  H8  1  0.68685325  0.58000966  0.62480792  1  0.143755  0  0.102949  0.079596  0  1.033892  0
H  H9  1  0.81114733  0.64885126  0.61271768  1  0.040477  0  0.102157  0.06201  0  0.968237  0
H  H10  1  0.89251091  0.55773052  0.69768516  1  0.002793  0  0.086662  0.11574  0  1.005467  0
H  H11  1  0.75992031  0.61816377  0.71898850  1  0.066558  0  0.098352  0.140517  0  0.985769  0
H  H12  1  0.77349807  0.48197767  0.70771659  1  0.024945  0  0.090704  0.128599  0  1.007621  0
H  H13  1  0.22011497  0.46817937  0.07087525  1  0.131733  0  0.11993  0.12478  0  0.975636  0
H  H14  1  0.26561244  0.67773606  0.41070533  1  0.144712  0  0.106605  0.091223  0  1.009618  0
H  H15  1  0.11882519  0.68373526  0.42360034  1  0.053672  0  0.097762  0.056498  0  1.017837  0
H  H16  1  0.09534203  0.61771916  0.32517031  1  0.017898  0  0.085102  0.11278  0  1.01931  0
H  H17  1  0.17869469  0.72747871  0.31969321  1  0.015501  0  0.095383  0.130805  0  0.987958  0
H  H18  1  0.24189895  0.59942029  0.31389639  1  0.068695  0  0.094683  0.137812  0  1.006618  0
H  H19  1  0.82508539  0.58245791  0.34168118  1  0.069962  0  0.106209  0.068203  0  0.957244  0
H  H20  1  0.88518578  0.69944656  0.36045713  1  0.039624  0  0.095958  0.046431  0  1.000635  0
H  H21  1  0.70098770  0.79838087  0.35561198  1  0.026767  0  0.091179  0.124224  0  1.010921  0
H  H22  1  0.73446739  0.73305600  0.29045421  1  0.049253  0  0.096938  0.134592  0  0.983312  0
H  H23  1  0.63735135  0.68153173  0.34240429  1  0.074711  0  0.090194  0.132039  0  1.052259  0
H  H24  1  0.01887384  0.41689258  0.61557270  1  0.107018  0  0.113308  0.13369  0  1.032682  0
H  H25  1  0.13712572  0.30476063  0.65431722  1  0.036045  0  0.098069  0.050702  0  0.991063  0
H  H26  1  0.19718955  0.42386794  0.66940517  1  0.06218  0  0.104676  0.066172  0  0.964178  0
H  H27  1  0.38759617  0.32773806  0.66565617  1  0.093841  0  0.094077  0.1373  0  1.018904  0
H  H28  1  0.29549339  0.27393639  0.71936335  1  0.008704  0  0.095815  0.129176  0  0.988868  0
H  H29  1  0.32511461  0.21007002  0.65344739  1  0.040812  0  0.094002  0.128217  0  1.006404  0
H  H30  1  0.80779852  0.14927337  0.42732577  1  0.044114  0  0.094376  0.046709  0  0.985822  0
H  H31  1  0.90766341  0.09757524  0.47540849  1  0.038392  0  0.092227  0.045923  0  1.010066  0
H  H32  1  0.93329984  0.28294377  0.50495839  1  0.042154  0  0.08625  0.122333  0  1.019742  0
H  H33  1  0.97405811  0.26183558  0.43191523  1  0.026641  0  0.087628  0.118811  0  0.99969  0
H  H34  1  0.84328810  0.32932384  0.45128857  1  0.062742  0  0.087343  0.13149  0  1.014175  0
H  H35  1  0.99161513  0.58351147  0.39539196  1  0.095836  0  0.108081  0.119296  0  1.080656  0
H  H36  1  0.11982370  0.89200886  0.54593635  1  0.05125  0  0.094473  0.050831  0  1.006254  0
H  H37  1  0.23286330  0.85501099  0.58926138  1  0.033104  0  0.094569  0.046387  0  0.996304  0
H  H38  1  0.20188384  0.66652697  0.57723082  1  0.04723  0  0.089731  0.134696  0  1.015547  0
H  H39  1  0.07719735  0.73373291  0.60575624  1  0.02924  0  0.087495  0.11828  0  0.999486  0
H  H40  1  0.09058737  0.70169803  0.53259709  1  0.029732  0  0.082669  0.113134  0  1.037603  0
H  H41  1  0.28485343  0.14202271  0.57042327  1  0.045828  0  0.096058  0.056701  0  1.025348  0
H  H42  1  0.22457801  0.02590756  0.59697012  1  0.02602  0  0.089285  0.036944  0  1.010121  0
H  H43  1  0.04913162  0.08029540  0.54711704  1  0.026277  0  0.092212  0.124692  0  1.008161  0
H  H44  1  0.08067951  0.17532444  0.59582030  1  0.035669  0  0.090205  0.12058  0  1.009211  0
H  H45  1  0.11093567  0.19629368  0.52149505  1  0.040333  0  0.092484  0.129695  0  1.001814  0
H  H46  1  0.70846374  0.69530730  0.04113673  1  0.130962  0  0.119104  0.123753  0  0.978523  0
H  H47  1  0.81626868  0.97156075  0.41738274  1  0.01586  0  0.091008  0.04017  0  1.004253  0
H  H48  1  0.75131362  0.85378963  0.43651829  1  0.054068  0  0.093694  0.051489  0  1.033343  0
H  H49  1  0.91270690  0.79407118  0.49446277  1  0.022434  0  0.08967  0.126259  0  1.002964  0
H  H50  1  0.95787285  0.82070929  0.42224569  1  0.006428  0  0.088546  0.118249  0  1.01386  0
H  H51  1  0.97874883  0.91144720  0.47539752  1  0.047314  0  0.092953  0.12663  0  1.008324  0
H  H52  1  0.20635039  0.47701887  0.96362497  1  0.131955  0  0.119578  0.125513  0  0.975565  0
H  H53  1  0.56768229  0.38559874  0.20062034  1  0.051602  0  0.108817  0.11707  0  0.984534  0
H  H54  1  0.33804819  0.69854046  0.77175888  1  0.056419  0  0.110904  0.121909  0  0.979235  0
H  H55  1  0.58208010  0.35206588  0.30528728  1  0.060126  0  0.113289  0.115848  0  0.972066  0
C  C56  1  0.46976123  0.69032927  0.49658121  1  1.611315  0  0.217613  0.61192  0  4.140122  0
C  C57  1  0.52551569  0.46601004  0.71406604  1  0.421836  0  0.109815  0.288041  0  4.048144  0
C  C58  1  0.46228083  0.62066151  0.24871023  1  0.079846  0  -0.09273  -0.28006  0  3.987489  0
C  C59  1  0.51836450  0.48388007  0.77212222  1  0.057182  0  -0.095351  -0.287646  0  3.979314  0
C  C60  1  0.49719425  0.54202598  0.21119317  1  0.321581  0  0.084663  0.203711  0  4.053855  0
C  C61  1  0.45121893  0.56846274  0.79214178  1  0.316593  0  0.089078  0.21527  0  4.041258  0
C  C62  1  0.56340639  0.18371965  0.50740457  1  -0.020561  0  -0.021493  -0.109878  0  3.949346  0
C  C63  1  0.45978375  0.80725089  0.49774876  1  -0.037583  0  -0.022525  -0.107043  0  3.959974  0
C  C64  1  0.35750641  0.97629052  0.50575737  1  0.536862  0  0.067566  0.08366  0  4.043838  0
C  C65  1  0.66505479  0.01425094  0.50150545  1  0.419955  0  0.067552  0.082577  0  4.039002  0
C  C66  1  0.35665115  0.86821165  0.50220691  1  0.496357  0  0.075444  0.124241  0  4.060336  0
C  C67  1  0.55524504  0.30074688  0.50913564  1  1.590796  0  0.220962  0.620257  0  4.126189  0
C  C68  1  0.66618219  0.12183085  0.50647354  1  0.58117  0  0.07769  0.129544  0  4.066736  0
C  C69  1  0.55911235  0.85579159  0.49791488  1  -0.036314  0  -0.093521  -0.138116  0  3.982595  0
C  C70  1  0.46391742  0.13598178  0.50528559  1  -0.065899  0  -0.089664  -0.13261  0  3.974682  0
C  C71  1  0.51626675  0.48681638  0.39216335  1  1.631118  0  0.215901  0.610718  0  4.207262  0
C  C72  1  0.47673344  0.51209335  0.61193333  1  1.628078  0  0.214167  0.60123  0  4.196458  0
C  C73  1  0.56265993  0.96460228  0.50022526  1  0.007901  0  -0.019496  -0.002071  0  4.049169  0
C  C74  1  0.45988752  0.02691141  0.50354441  1  0.038101  0  -0.019057  -0.005186  0  4.04791  0
C  C75  1  0.05476184  0.44093988  0.57415300  1  0.051922  0  -0.110633  -0.318497  0  4.014044  0
C  C76  1  0.95893339  0.56221536  0.43779224  1  0.032215  0  -0.115788  -0.329517  0  4.042866  0
C  C77  1  0.16620304  0.42169032  0.55815807  1  0.975817  0  0.206895  0.393556  0  4.093316  0
C  C78  1  0.54110432  0.44583398  0.23091768  1  0.039619  0  -0.090708  -0.171494  0  3.999435  0
C  C79  1  0.84763712  0.58166542  0.45389345  1  0.991876  0  0.202917  0.392219  0  4.093618  0
C  C80  1  0.14844320  0.50457700  0.46880191  1  1.185108  0  0.241239  0.392547  0  4.013243  0
C  C81  1  0.86864320  0.51047186  0.54511458  1  1.173222  0  0.240236  0.390467  0  4.026753  0
C  C82  1  0.03001866  0.51755623  0.47846882  1  0.027928  0  -0.008031  -0.019616  0  4.054621  0
C  C83  1  0.98565075  0.48928233  0.53356821  1  0.01173  0  -0.003612  -0.01043  0  4.046736  0
C  C84  1  0.35488337  0.54626824  0.88543746  1  1.325604  0  0.243848  0.436033  0  4.098901  0
C  C85  1  0.56908830  0.60974921  0.11880995  1  1.34361  0  0.245017  0.436767  0  4.094865  0
C  C86  1  0.53688547  0.63219337  0.87433184  1  1.334857  0  0.243304  0.433076  0  4.101751  0
C  C87  1  0.38563889  0.52657939  0.12974314  1  1.349233  0  0.244726  0.435597  0  4.094914  0
C  C88  1  0.53975358  0.63222303  0.93735540  1  -0.021962  0  -0.003634  -0.060391  0  3.986253  0
C  C89  1  0.39058409  0.63313925  0.75518527  1  0.02418  0  -0.090278  -0.172561  0  3.991837  0
C  C90  1  0.37654288  0.53759693  0.06718507  1  -0.063  0  -0.003642  -0.060822  0  3.988528  0
C  C91  1  0.45386884  0.58820493  0.97218759  1  -0.004453  0  0.004681  0.031572  0  3.997777  0
C  C92  1  0.46202720  0.58243512  0.03245815  1  -0.018226  0  0.004415  0.031052  0  4.000988  0
C  C93  1  0.36084769  0.54835572  0.94823773  1  0.040636  0  -0.003198  -0.06021  0  3.984978  0
C  C94  1  0.55593550  0.62057524  0.05643801  1  -0.026299  0  -0.002564  -0.05765  0  3.980076  0
C  C95  1  0.62941916  0.67189983  0.96201923  1  0.044939  0  -0.061126  -0.066965  0  3.929369  0
C  C96  1  0.28464441  0.50164670  0.04279785  1  -0.012907  0  -0.060083  -0.064851  0  3.929397  0
C  C97  1  0.63756130  0.66600343  0.02142975  1  -0.072196  0  -0.061602  -0.068424  0  3.9314  0
C  C98  1  0.27692509  0.50679482  0.98338935  1  -0.053059  0  -0.062046  -0.070451  0  3.933358  0
C  C99  1  0.77622081  0.57717330  0.63077725  1  0.316966  0  -0.062657  0.09148  0  3.83592  0
C  C100  1  0.54889776  0.42740767  0.28937893  1  -0.010239  0  -0.077278  -0.066161  0  3.978647  0
C  C101  1  0.80266992  0.55749453  0.69236670  1  -0.023491  0  -0.245158  -0.398523  0  3.97429  0
C  C102  1  0.18901397  0.64368686  0.39957111  1  0.313884  0  -0.063343  0.083521  0  3.829772  0
C  C103  1  0.17496248  0.64680698  0.33607995  1  -0.027909  0  -0.24533  -0.398748  0  3.972968  0
C  C104  1  0.80794877  0.65748896  0.36282721  1  0.365595  0  -0.057868  0.099404  0  3.888093  0
C  C105  1  0.71445545  0.72171890  0.33637294  1  -0.048998  0  -0.245525  -0.398112  0  3.94725  0
C  C106  1  0.21336963  0.34800478  0.64899263  1  0.397469  0  -0.05788  0.09226  0  3.89414  0
C  C107  1  0.31133054  0.28624134  0.67318019  1  -0.049179  0  -0.241426  -0.393054  0  3.944778  0
C  C108  1  0.84733566  0.16335825  0.46721660  1  0.41822  0  -0.065955  0.098234  0  3.901655  0
C  C109  1  0.90280282  0.26588653  0.46341939  1  -0.078489  0  -0.25138  -0.398995  0  3.969201  0
C  C110  1  0.18513003  0.83057460  0.55398359  1  0.396366  0  -0.067  0.092466  0  3.907238  0
C  C111  1  0.39794054  0.61199437  0.69724657  1  -0.004039  0  -0.075369  -0.05679  0  3.971602  0
C  C112  1  0.13618826  0.72668170  0.56829340  1  -0.047416  0  -0.250855  -0.399455  0  3.964314  0
C  C113  1  0.22455895  0.08468448  0.56177853  1  0.402  0  -0.07157  0.075936  0  3.926461  0
C  C114  1  0.10980484  0.13696426  0.55604983  1  -0.042368  0  -0.244198  -0.388869  0  3.966254  0
C  C115  1  0.80861185  0.90964445  0.45067566  1  0.423269  0  -0.071101  0.076654  0  3.926251  0
C  C116  1  0.92093105  0.85600342  0.46153751  1  -0.035992  0  -0.244992  -0.3893  0  3.963075  0
C  C117  1  0.51319340  0.50412720  0.32836859  1  0.034391  0  -0.009825  -0.110464  0  3.947748  0
C  C118  1  0.46655999  0.52896206  0.67524591  1  0.005985  0  -0.016248  -0.139005  0  3.953949  0
C  C119  1  0.47138544  0.59960524  0.30650643  1  0.391883  0  0.104639  0.267794  0  4.057789  0
N  N120  1  0.44593409  0.58539689  0.85273462  1  -1.165929  0  -0.230134  -0.210123  0  3.559004  0
N  N121  1  0.48434089  0.55961405  0.15090681  1  -1.149193  0  -0.230393  -0.209635  0  3.564584  0
N  N122  1  0.80134809  0.54991174  0.50594077  1  -1.242329  0  -0.317193  -0.409883  0  3.384907  0
N  N123  1  0.21277793  0.45901703  0.50752181  1  -1.245972  0  -0.319679  -0.387499  0  3.425068  0
O  O124  1  0.56277020  0.65049007  0.51259223  1  -1.16435  0  -0.321881  -0.560993  0  2.410136  0
O  O125  1  0.64917532  0.64069275  0.14181163  1  -1.091447  0  -0.279197  -0.436234  0  2.05716  0
O  O126  1  0.60987018  0.66767722  0.84197523  1  -1.097096  0  -0.273283  -0.430476  0  2.068274  0
O  O127  1  0.31335063  0.48965366  0.16196596  1  -1.093667  0  -0.273073  -0.427513  0  2.058727  0
O  O128  1  0.82901909  0.48899612  0.59845958  1  -1.055228  0  -0.176047  -0.226073  0  2.475347  0
O  O129  1  0.20039603  0.53441988  0.41957307  1  -1.064209  0  -0.170213  -0.212552  0  2.500611  0
O  O130  1  0.77457346  0.63632291  0.42198907  1  -1.053357  0  -0.157426  -0.188165  0  2.549614  0
O  O131  1  0.24077394  0.36681373  0.58904708  1  -1.073761  0  -0.158643  -0.189231  0  2.562251  0
O  O132  1  0.76281368  0.16856140  0.51349240  1  -1.071381  0  -0.198415  -0.205564  0  2.53408  0
O  O133  1  0.25904411  0.81890720  0.50353625  1  -1.062411  0  -0.196528  -0.2066  0  2.544764  0
O  O134  1  0.25676293  0.03370342  0.50864559  1  -1.059485  0  -0.203722  -0.221837  0  2.518425  0
O  O135  1  0.45862654  0.34138203  0.52252539  1  -1.173933  0  -0.318574  -0.562021  0  2.399176  0
O  O136  1  0.76462822  0.95522757  0.50342863  1  -1.067034  0  -0.205099  -0.221374  0  2.519492  0
O  O137  1  0.39106007  0.63942916  0.48039872  1  -1.150002  0  -0.305249  -0.541853  0  2.358962  0
O  O138  1  0.64177716  0.35088877  0.49651960  1  -1.136873  0  -0.310612  -0.5304  0  2.331255  0
O  O139  1  0.60301866  0.51248601  0.41439998  1  -1.154234  0  -0.307294  -0.549295  0  2.315711  0
O  O140  1  0.38849605  0.53070849  0.58558710  1  -1.160897  0  -0.311951  -0.550933  0  2.330643  0
O  O141  1  0.42987514  0.45060488  0.41650501  1  -1.151437  0  -0.313524  -0.539767  0  2.306294  0
O  O142  1  0.57245094  0.48324174  0.59090263  1  -1.153382  0  -0.305604  -0.545326  0  2.36087  0
O  O143  1  0.27774418  0.51015088  0.86232613  1  -1.093077  0  -0.277367  -0.433838  0  2.061223  0
F  F144  1  0.43750996  0.67676583  0.34343017  1  -0.639196  0  -0.085982  -0.133605  0  1.353795  0
F  F145  1  0.59046680  0.38194520  0.69604498  1  -0.628367  0  -0.093307  -0.137142  0  1.341427  0
