# generated using pymatgen
data_ZnH7C10S(NO)3
_symmetry_space_group_name_H-M   'P 1'
_cell_length_a   9.23340600
_cell_length_b   9.23340611
_cell_length_c   14.74697425
_cell_angle_alpha   78.05791072
_cell_angle_beta   78.05813745
_cell_angle_gamma   61.40075406
_symmetry_Int_Tables_number   1
_chemical_formula_structural   ZnH7C10S(NO)3
_chemical_formula_sum   'Zn4 H28 C40 S4 N12 O12'
_cell_volume   1071.42519010
_cell_formula_units_Z   4
loop_
 _symmetry_equiv_pos_site_id
 _symmetry_equiv_pos_as_xyz
  1  'x, y, z'
loop_
 _atom_site_type_symbol
 _atom_site_label
 _atom_site_symmetry_multiplicity
 _atom_site_fract_x
 _atom_site_fract_y
 _atom_site_fract_z
 _atom_site_occupancy
 _atom_site_pbe_bader_spin_density
 _atom_site_pbe_cm5_charge
 _atom_site_pbe_ddec_charge
 _atom_site_pbe_ddec_spin_density
 _atom_site_pbe_ddec_sum_bond_order
 _atom_site_pbe_magmom
Zn  Zn0  1  0.82870483  0.33189669  0.31160397  1  0  0.729926  0.887013  0  2.430592  0
Zn  Zn1  1  0.66810587  0.17129481  0.18839478  1  0  0.729893  0.886936  0  2.430548  0
Zn  Zn2  1  0.17129563  0.66810208  0.68839659  1  0  0.729936  0.886978  0  2.430652  0
Zn  Zn3  1  0.33189289  0.82870769  0.81160483  1  0  0.729909  0.886925  0  2.430486  0
H  H4  1  0.58800770  0.87835440  0.40049003  1  0  0.098264  0.097286  0  1.039026  0
H  H5  1  0.12164448  0.41199240  0.09950887  1  0  0.098235  0.097291  0  1.038984  0
H  H6  1  0.41199164  0.12164438  0.59950999  1  0  0.098247  0.09728  0  1.039006  0
H  H7  1  0.87835542  0.58800762  0.90049160  1  0  0.098246  0.097284  0  1.039053  0
H  H8  1  0.62290931  0.61918624  0.50746464  1  0  0.099525  0.113802  0  1.041828  0
H  H9  1  0.38081407  0.37709260  0.99253483  1  0  0.099531  0.11382  0  1.041774  0
H  H10  1  0.37709226  0.38081252  0.49253510  1  0  0.09953  0.113828  0  1.041795  0
H  H11  1  0.61918582  0.62290742  0.00746563  1  0  0.099537  0.113827  0  1.041795  0
H  H12  1  0.96026761  0.91102668  0.51895451  1  0  0.103999  0.127578  0  1.040424  0
H  H13  1  0.08897667  0.03972910  0.98104463  1  0  0.103998  0.127556  0  1.040453  0
H  H14  1  0.03973228  0.08897334  0.48104529  1  0  0.103999  0.127603  0  1.040385  0
H  H15  1  0.91102323  0.96027092  0.01895516  1  0  0.103996  0.12756  0  1.040473  0
H  H16  1  0.21257552  0.30018956  0.73164640  1  0  0.111482  0.100846  0  0.975334  0
H  H17  1  0.69981082  0.78742316  0.76835474  1  0  0.111481  0.100834  0  0.975321  0
H  H18  1  0.78742549  0.69980796  0.26835222  1  0  0.111481  0.100825  0  0.97534  0
H  H19  1  0.30018797  0.21257686  0.23164588  1  0  0.111488  0.100848  0  0.975344  0
H  H20  1  0.04325657  0.38831754  0.81821707  1  0  0.106934  0.085199  0  1.013729  0
H  H21  1  0.61168497  0.95673951  0.68178382  1  0  0.10696  0.085241  0  1.013672  0
H  H22  1  0.95674668  0.61167750  0.18178293  1  0  0.106944  0.085203  0  1.013713  0
H  H23  1  0.38831438  0.04325927  0.31821689  1  0  0.106936  0.085215  0  1.013659  0
H  H24  1  0.83788092  0.38587022  0.64565349  1  0  0.300802  0.266545  0  1.004301  0
H  H25  1  0.61412854  0.16211886  0.85434566  1  0  0.300801  0.266553  0  1.004291  0
H  H26  1  0.16211897  0.61412979  0.35434563  1  0  0.300813  0.266574  0  1.00427  0
H  H27  1  0.38586856  0.83788240  0.14565365  1  0  0.300818  0.266578  0  1.004242  0
H  H28  1  0.95172491  0.21609780  0.80359487  1  0  0.264085  0.289385  0  1.059422  0
H  H29  1  0.78390261  0.04827346  0.69640527  1  0  0.264083  0.289376  0  1.059456  0
H  H30  1  0.04827388  0.78389973  0.19640404  1  0  0.264069  0.289364  0  1.059449  0
H  H31  1  0.21609784  0.95172531  0.30359461  1  0  0.264083  0.289367  0  1.05946  0
C  C32  1  0.75801033  0.05242764  0.38034755  1  0  0.223655  0.606993  0  4.157863  0
C  C33  1  0.94757414  0.24198743  0.11965248  1  0  0.223668  0.60709  0  4.157759  0
C  C34  1  0.24198790  0.94757363  0.61965365  1  0  0.223657  0.607003  0  4.158002  0
C  C35  1  0.05242465  0.75801259  0.88034814  1  0  0.223669  0.607068  0  4.157834  0
C  C36  1  0.77328685  0.90755380  0.45196462  1  0  -0.025681  -0.050492  0  3.988533  0
C  C37  1  0.09244754  0.22670979  0.04803459  1  0  -0.025633  -0.050464  0  3.988412  0
C  C38  1  0.22671471  0.09244497  0.54803511  1  0  -0.02567  -0.050508  0  3.988566  0
C  C39  1  0.90755125  0.77329024  0.95196670  1  0  -0.025678  -0.050472  0  3.988446  0
C  C40  1  0.67748895  0.82603920  0.45050512  1  0  -0.087371  -0.083059  0  3.967573  0
C  C41  1  0.17396221  0.32250989  0.04949446  1  0  -0.087366  -0.083044  0  3.967502  0
C  C42  1  0.32251038  0.17396206  0.54949526  1  0  -0.087376  -0.083047  0  3.967542  0
C  C43  1  0.82603768  0.67749012  0.95050533  1  0  -0.087339  -0.08303  0  3.96753  0
C  C44  1  0.69594712  0.68189121  0.50971012  1  0  -0.092734  -0.154226  0  3.968721  0
C  C45  1  0.31810937  0.30405026  0.99028857  1  0  -0.09271  -0.154187  0  3.968759  0
C  C46  1  0.30405165  0.31810880  0.49028846  1  0  -0.092734  -0.154207  0  3.968832  0
C  C47  1  0.68188996  0.69595100  0.00971181  1  0  -0.092759  -0.15422  0  3.968866  0
C  C48  1  0.81449594  0.62072142  0.57128962  1  0  0.100752  0.159156  0  3.993119  0
C  C49  1  0.37927771  0.18550286  0.92870998  1  0  0.100754  0.159077  0  3.99321  0
C  C50  1  0.18550230  0.37927736  0.42871124  1  0  0.100778  0.159052  0  3.993338  0
C  C51  1  0.62072384  0.81449840  0.07128943  1  0  0.100812  0.159103  0  3.993225  0
C  C52  1  0.90742100  0.70375305  0.57603790  1  0  0.08635  0.142675  0  4.047325  0
C  C53  1  0.29624863  0.09257599  0.92396093  1  0  0.086388  0.142723  0  4.047435  0
C  C54  1  0.09257891  0.29624448  0.42396222  1  0  0.08632  0.142701  0  4.047353  0
C  C55  1  0.70375182  0.90742528  0.07603997  1  0  0.086367  0.142701  0  4.047451  0
C  C56  1  0.88763030  0.84835249  0.51621157  1  0  -0.087745  -0.168637  0  3.941812  0
C  C57  1  0.15164877  0.11236827  0.98378758  1  0  -0.087787  -0.16868  0  3.941876  0
C  C58  1  0.11237073  0.15164505  0.48378975  1  0  -0.087733  -0.168661  0  3.941793  0
C  C59  1  0.84835000  0.88763423  0.01621203  1  0  -0.087778  -0.168689  0  3.94193  0
C  C60  1  0.98904125  0.47915739  0.67754436  1  0  0.24025  0.343891  0  3.929242  0
C  C61  1  0.52084245  0.01095978  0.82245252  1  0  0.240167  0.343748  0  3.929407  0
C  C62  1  0.01095977  0.52084014  0.32245561  1  0  0.240228  0.343883  0  3.929213  0
C  C63  1  0.47915912  0.98903898  0.17754722  1  0  0.240197  0.343794  0  3.929285  0
C  C64  1  0.07813258  0.34073320  0.75014535  1  0  -0.065276  -0.033745  0  3.967324  0
C  C65  1  0.65926660  0.92186768  0.74985544  1  0  -0.065289  -0.033739  0  3.967325  0
C  C66  1  0.92186953  0.65926681  0.24985415  1  0  -0.065284  -0.033757  0  3.967344  0
C  C67  1  0.34073383  0.07813358  0.25014411  1  0  -0.065268  -0.033703  0  3.967236  0
C  C68  1  0.47296740  0.60864836  0.36546572  1  0  0.15769  0.285031  0  4.308452  0
C  C69  1  0.39135798  0.52702759  0.13453441  1  0  0.15767  0.285045  0  4.308606  0
C  C70  1  0.52703473  0.39134917  0.63453478  1  0  0.157625  0.28489  0  4.308371  0
C  C71  1  0.60863794  0.47298360  0.86546239  1  0  0.157688  0.285061  0  4.308772  0
S  S72  1  0.29391833  0.73934013  0.41209031  1  0  -0.102778  -0.277705  0  2.432045  0
S  S73  1  0.26066037  0.70608228  0.08790812  1  0  -0.102807  -0.277765  0  2.431852  0
S  S74  1  0.70608268  0.26065740  0.58790966  1  0  -0.102757  -0.27763  0  2.432095  0
S  S75  1  0.73933950  0.29392021  0.91209135  1  0  -0.10282  -0.277838  0  2.431619  0
N  N76  1  0.01420050  0.61239479  0.64397606  1  0  -0.355168  -0.40549  0  3.479344  0
N  N77  1  0.38760698  0.98579974  0.85602271  1  0  -0.355185  -0.405459  0  3.479433  0
N  N78  1  0.98579885  0.38760399  0.35602464  1  0  -0.355167  -0.40548  0  3.479343  0
N  N79  1  0.61239400  0.01420275  0.14397593  1  0  -0.355191  -0.405483  0  3.479409  0
N  N80  1  0.86985165  0.48073670  0.63632357  1  0  -0.369854  -0.291341  0  3.607188  0
N  N81  1  0.51926493  0.13014599  0.86367540  1  0  -0.36983  -0.291297  0  3.607111  0
N  N82  1  0.13014991  0.51926208  0.36367684  1  0  -0.369862  -0.291343  0  3.607064  0
N  N83  1  0.48073496  0.86985402  0.13632371  1  0  -0.36989  -0.291361  0  3.606981  0
N  N84  1  0.60452211  0.51143125  0.33346338  1  0  -0.404708  -0.49508  0  3.320578  0
N  N85  1  0.48856710  0.39548718  0.16653280  1  0  -0.40465  -0.495018  0  3.320828  0
N  N86  1  0.39547111  0.48857377  0.66653935  1  0  -0.404645  -0.494973  0  3.320425  0
N  N87  1  0.51143775  0.60451653  0.83346448  1  0  -0.404669  -0.494968  0  3.321248  0
O  O88  1  0.64777371  0.10636792  0.32557551  1  0  -0.320764  -0.559618  0  2.396432  0
O  O89  1  0.89363455  0.35222464  0.17442347  1  0  -0.320799  -0.559717  0  2.396475  0
O  O90  1  0.35222672  0.89363333  0.67442336  1  0  -0.320762  -0.5596  0  2.396514  0
O  O91  1  0.10636645  0.64777537  0.82557685  1  0  -0.320787  -0.559654  0  2.396467  0
O  O92  1  0.85790879  0.11344267  0.37761124  1  0  -0.312388  -0.539841  0  2.391096  0
O  O93  1  0.88655902  0.14209014  0.12238734  1  0  -0.312333  -0.539785  0  2.390969  0
O  O94  1  0.14208999  0.88655735  0.62238870  1  0  -0.312399  -0.539864  0  2.391154  0
O  O95  1  0.11344031  0.85791111  0.87761236  1  0  -0.312334  -0.53981  0  2.391072  0
O  O96  1  0.04648109  0.20378908  0.75440909  1  0  -0.399257  -0.446164  0  2.355098  0
O  O97  1  0.79620849  0.95351750  0.74559031  1  0  -0.399224  -0.446107  0  2.355095  0
O  O98  1  0.95352048  0.79620720  0.24559029  1  0  -0.39923  -0.446095  0  2.355116  0
O  O99  1  0.20379085  0.04648127  0.25440904  1  0  -0.399246  -0.446155  0  2.355063  0
