# generated using pymatgen
data_ZnSiH28C26(N2F3)2
_symmetry_space_group_name_H-M   'P 1'
_cell_length_a   7.81663629
_cell_length_b   11.45006441
_cell_length_c   11.45005328
_cell_angle_alpha   67.17814351
_cell_angle_beta   70.01086572
_cell_angle_gamma   70.01036315
_symmetry_Int_Tables_number   1
_chemical_formula_structural   ZnSiH28C26(N2F3)2
_chemical_formula_sum   'Zn1 Si1 H28 C26 N4 F6'
_cell_volume   861.36901611
_cell_formula_units_Z   1
loop_
 _symmetry_equiv_pos_site_id
 _symmetry_equiv_pos_as_xyz
  1  'x, y, z'
loop_
 _atom_site_type_symbol
 _atom_site_label
 _atom_site_symmetry_multiplicity
 _atom_site_fract_x
 _atom_site_fract_y
 _atom_site_fract_z
 _atom_site_occupancy
 _atom_site_hle17_bader_spin_density
 _atom_site_hle17_ddec_charge
 _atom_site_hle17_ddec_spin_density
 _atom_site_hle17_ddec_sum_bond_order
 _atom_site_hle17_magmom
 _atom_site_hse06_10hf_bader_spin_density
 _atom_site_hse06_10hf_ddec_charge
 _atom_site_hse06_10hf_ddec_spin_density
 _atom_site_hse06_10hf_ddec_sum_bond_order
 _atom_site_hse06_10hf_magmom
 _atom_site_hse06_bader_spin_density
 _atom_site_hse06_ddec_charge
 _atom_site_hse06_ddec_spin_density
 _atom_site_hse06_ddec_sum_bond_order
 _atom_site_hse06_magmom
 _atom_site_pbe_bader_spin_density
 _atom_site_pbe_cm5_charge
 _atom_site_pbe_ddec_charge
 _atom_site_pbe_ddec_spin_density
 _atom_site_pbe_ddec_sum_bond_order
 _atom_site_pbe_magmom
Zn  Zn0  1  0.45633972  0.54352281  0.54352221  1  0  0.983529  0  1.826768  0  0  0.775842  0  2.274227  0  0  0.822905  0  2.227391  0  0  0.703051  0.742585  0  2.30739  0
Si  Si1  1  0.95645098  0.54349439  0.54349290  1  0  1.967228  0  3.333554  0  0  1.755339  0  3.88627  0  0  1.813863  0  3.802076  0  0  0.26308  1.71386  0  3.94552  0
H  H2  1  0.80989831  0.58702191  0.32352469  1  0  0.096511  0  0.973349  0  0  0.100742  0  1.042445  0  0  0.1043  0  1.037712  0  0  0.11512  0.098116  0  1.045869  0
H  H3  1  0.27880888  0.32347293  0.58709484  1  0  0.096344  0  0.97341  0  0  0.100195  0  1.043147  0  0  0.103747  0  1.038378  0  0  0.114854  0.097555  0  1.046625  0
H  H4  1  0.80990126  0.32351931  0.58702687  1  0  0.096594  0  0.973288  0  0  0.100774  0  1.042444  0  0  0.104335  0  1.037706  0  0  0.115131  0.098146  0  1.045867  0
H  H5  1  0.27880525  0.58709694  0.32347007  1  0  0.096366  0  0.973499  0  0  0.100232  0  1.043219  0  0  0.103788  0  1.038451  0  0  0.114885  0.097593  0  1.046697  0
H  H6  1  0.90668080  0.65717603  0.08091212  1  0  0.104286  0  0.942753  0  0  0.117826  0  0.996046  0  0  0.120783  0  0.996034  0  0  0.106807  0.115766  0  0.99616  0
H  H7  1  0.35479253  0.08082862  0.65730350  1  0  0.105118  0  0.94328  0  0  0.118147  0  0.997054  0  0  0.121061  0  0.997105  0  0  0.106943  0.116079  0  0.997194  0
H  H8  1  0.90668096  0.08090637  0.65718423  1  0  0.104313  0  0.942751  0  0  0.117842  0  0.996053  0  0  0.120801  0  0.996041  0  0  0.106799  0.11578  0  0.996167  0
H  H9  1  0.35479434  0.65730185  0.08082744  1  0  0.105141  0  0.943336  0  0  0.118176  0  0.997094  0  0  0.121089  0  0.997145  0  0  0.106947  0.116108  0  0.997233  0
H  H10  1  0.61341767  0.67435058  0.87378170  1  0  0.087616  0  0.932203  0  0  0.104457  0  0.992198  0  0  0.105278  0  0.992436  0  0  0.096463  0.103812  0  0.992145  0
H  H11  1  0.83874998  0.87387537  0.67430313  1  0  0.087421  0  0.932685  0  0  0.103804  0  0.993169  0  0  0.104651  0  0.993373  0  0  0.096648  0.103152  0  0.993111  0
H  H12  1  0.61341705  0.87378117  0.67435298  1  0  0.087627  0  0.932185  0  0  0.10446  0  0.992174  0  0  0.105281  0  0.99241  0  0  0.096467  0.103816  0  0.992122  0
H  H13  1  0.83874960  0.67429802  0.87387833  1  0  0.087415  0  0.932682  0  0  0.103804  0  0.993175  0  0  0.104662  0  0.993366  0  0  0.096643  0.103154  0  0.993117  0
H  H14  1  0.48775665  0.89926424  0.89927036  1  0  0.061373  0  0.92371  0  0  0.082284  0  0.97793  0  0  0.083291  0  0.978408  0  0  0.089539  0.081547  0  0.977635  0
H  H15  1  0.71341026  0.89933492  0.89934297  1  0  0.062254  0  0.924444  0  0  0.082376  0  0.979439  0  0  0.083326  0  0.980026  0  0  0.089968  0.08172  0  0.979011  0
H  H16  1  0.10305364  0.49946377  0.76361952  1  0  0.095793  0  0.974533  0  0  0.099799  0  1.043881  0  0  0.103303  0  1.0392  0  0  0.115174  0.097209  0  1.047284  0
H  H17  1  0.63413555  0.76334139  0.49973478  1  0  0.095129  0  0.974967  0  0  0.099573  0  1.043952  0  0  0.103094  0  1.039244  0  0  0.114983  0.096969  0  1.047403  0
H  H18  1  0.10305094  0.76362398  0.49946253  1  0  0.095827  0  0.974412  0  0  0.099835  0  1.043758  0  0  0.103341  0  1.039071  0  0  0.115178  0.097245  0  1.047159  0
H  H19  1  0.63413690  0.49973525  0.76333838  1  0  0.095093  0  0.974958  0  0  0.099533  0  1.04395  0  0  0.103052  0  1.039245  0  0  0.114973  0.096928  0  1.047402  0
H  H20  1  0.00640976  0.42936852  0.00624372  1  0  0.104774  0  0.943138  0  0  0.118099  0  0.996571  0  0  0.121072  0  0.996547  0  0  0.10701  0.11604  0  0.996685  0
H  H21  1  0.55849135  0.00596581  0.42954515  1  0  0.10458  0  0.943595  0  0  0.118377  0  0.996357  0  0  0.121331  0  0.996362  0  0  0.107296  0.116257  0  0.99654  0
H  H22  1  0.00640321  0.00625157  0.42936468  1  0  0.10476  0  0.94305  0  0  0.118065  0  0.996512  0  0  0.121038  0  0.996489  0  0  0.106981  0.116005  0  0.996626  0
H  H23  1  0.55849458  0.42954291  0.00596464  1  0  0.104642  0  0.943529  0  0  0.118432  0  0.996295  0  0  0.121401  0  0.99628  0  0  0.107321  0.116312  0  0.996479  0
H  H24  1  0.07463307  0.41269748  0.21302949  1  0  0.086669  0  0.932437  0  0  0.103891  0  0.992564  0  0  0.104723  0  0.992759  0  0  0.096474  0.103272  0  0.992499  0
H  H25  1  0.30008522  0.21303483  0.41265007  1  0  0.087276  0  0.932287  0  0  0.104196  0  0.992777  0  0  0.105016  0  0.992975  0  0  0.096641  0.103546  0  0.992776  0
H  H26  1  0.07462970  0.21303513  0.41269287  1  0  0.086683  0  0.932396  0  0  0.103956  0  0.992485  0  0  0.10479  0  0.992682  0  0  0.096506  0.103337  0  0.99242  0
H  H27  1  0.30008887  0.41265159  0.21303168  1  0  0.087304  0  0.932291  0  0  0.104229  0  0.99275  0  0  0.105051  0  0.992943  0  0  0.09664  0.103577  0  0.992749  0
H  H28  1  0.19969716  0.18768898  0.18768597  1  0  0.062016  0  0.924474  0  0  0.082202  0  0.97905  0  0  0.08317  0  0.979566  0  0  0.089854  0.081525  0  0.978649  0
H  H29  1  0.42545815  0.18759925  0.18759812  1  0  0.061904  0  0.923817  0  0  0.082218  0  0.978139  0  0  0.083148  0  0.978711  0  0  0.089608  0.081498  0  0.977819  0
C  C30  1  0.71327604  0.60256422  0.26637811  1  0  0.130327  0  3.692035  0  0  0.098975  0  3.943115  0  0  0.106673  0  3.960452  0  0  0.044773  0.093999  0  3.931406  0
C  C31  1  0.41710716  0.26634698  0.60261186  1  0  0.131957  0  3.690143  0  0  0.100988  0  3.940954  0  0  0.108729  0  3.958243  0  0  0.045382  0.095958  0  3.929328  0
C  C32  1  0.71328005  0.26637259  0.60257066  1  0  0.130266  0  3.692082  0  0  0.098946  0  3.943165  0  0  0.106644  0  3.960503  0  0  0.044777  0.093971  0  3.931454  0
C  C33  1  0.41710084  0.60260981  0.26634947  1  0  0.131993  0  3.690184  0  0  0.101004  0  3.940991  0  0  0.10874  0  3.958286  0  0  0.045337  0.095973  0  3.929366  0
C  C34  1  0.76580750  0.64235041  0.13062381  1  0  -0.184758  0  3.732803  0  0  -0.202112  0  3.980842  0  0  -0.211147  0  4.002935  0  0  -0.090005  -0.196228  0  3.96583  0
C  C35  1  0.46071824  0.13055167  0.64242700  1  0  -0.185998  0  3.730496  0  0  -0.202985  0  3.978699  0  0  -0.21199  0  4.00074  0  0  -0.089586  -0.197058  0  3.963714  0
C  C36  1  0.76580851  0.13062045  0.64235820  1  0  -0.184807  0  3.732742  0  0  -0.202117  0  3.980774  0  0  -0.211156  0  4.002873  0  0  -0.089989  -0.196231  0  3.96576  0
C  C37  1  0.46071844  0.64242688  0.13054805  1  0  -0.186071  0  3.730468  0  0  -0.20308  0  3.97867  0  0  -0.212085  0  4.00071  0  0  -0.089586  -0.197152  0  3.963684  0
C  C38  1  0.63878431  0.66330614  0.05883602  1  0  0.14862  0  3.756338  0  0  0.162439  0  3.999004  0  0  0.16813  0  4.021539  0  0  0.010303  0.158766  0  3.983608  0
C  C39  1  0.63878122  0.05883270  0.66331323  1  0  0.148619  0  3.756185  0  0  0.162358  0  3.998961  0  0  0.168047  0  4.021501  0  0  0.010282  0.158684  0  3.983566  0
C  C40  1  0.68819349  0.71140177  0.91238243  1  0  -0.16484  0  3.695868  0  0  -0.208055  0  3.949964  0  0  -0.20923  0  3.96151  0  0  -0.158953  -0.207084  0  3.941961  0
C  C41  1  0.68819416  0.91237908  0.71140648  1  0  -0.164857  0  3.695879  0  0  -0.207996  0  3.949914  0  0  -0.209164  0  3.961461  0  0  -0.158969  -0.207025  0  3.941911  0
C  C42  1  0.63867525  0.86133689  0.86134024  1  0  -0.077823  0  3.668067  0  0  -0.116634  0  3.92806  0  0  -0.118169  0  3.942153  0  0  -0.153766  -0.115401  0  3.918215  0
C  C43  1  0.19962771  0.48403876  0.82074590  1  0  0.132309  0  3.693688  0  0  0.100749  0  3.944602  0  0  0.108521  0  3.961904  0  0  0.044948  0.095731  0  3.93291  0
C  C44  1  0.49586021  0.82058768  0.48420650  1  0  0.132868  0  3.694155  0  0  0.100893  0  3.945321  0  0  0.10867  0  3.962628  0  0  0.044819  0.095843  0  3.933667  0
C  C45  1  0.19962373  0.82075771  0.48403369  1  0  0.13221  0  3.693817  0  0  0.100651  0  3.944731  0  0  0.108424  0  3.962036  0  0  0.04489  0.095637  0  3.933033  0
C  C46  1  0.49585992  0.48420582  0.82058663  1  0  0.133035  0  3.694092  0  0  0.101073  0  3.945231  0  0  0.108847  0  3.962542  0  0  0.044902  0.096022  0  3.933575  0
C  C47  1  0.14717867  0.44439820  0.95649462  1  0  -0.185724  0  3.732488  0  0  -0.202677  0  3.980923  0  0  -0.211736  0  4.003002  0  0  -0.089805  -0.196786  0  3.965923  0
C  C48  1  0.45235166  0.95632144  0.44454133  1  0  -0.185831  0  3.732101  0  0  -0.203221  0  3.980565  0  0  -0.212271  0  4.002631  0  0  -0.090261  -0.197231  0  3.965568  0
C  C49  1  0.14718009  0.95649617  0.44439653  1  0  -0.185655  0  3.732571  0  0  -0.202596  0  3.98099  0  0  -0.211658  0  4.003071  0  0  -0.089743  -0.196703  0  3.965985  0
C  C50  1  0.45235258  0.44454153  0.95631959  1  0  -0.185977  0  3.732052  0  0  -0.203363  0  3.980536  0  0  -0.212423  0  4.002596  0  0  -0.090292  -0.197374  0  3.965538  0
C  C51  1  0.27437452  0.42362013  0.02812504  1  0  0.148747  0  3.755042  0  0  0.16222  0  3.999019  0  0  0.167905  0  4.021588  0  0  0.009607  0.158562  0  3.983613  0
C  C52  1  0.27436878  0.02813164  0.42361732  1  0  0.14869  0  3.755007  0  0  0.162208  0  3.998956  0  0  0.167904  0  4.021499  0  0  0.009619  0.158548  0  3.983553  0
C  C53  1  0.22517977  0.37558632  0.17455474  1  0  -0.162515  0  3.695319  0  0  -0.207332  0  3.950718  0  0  -0.20844  0  3.962248  0  0  -0.158357  -0.206458  0  3.942816  0
C  C54  1  0.22517691  0.17455997  0.37558247  1  0  -0.16244  0  3.69521  0  0  -0.207358  0  3.950744  0  0  -0.208471  0  3.962279  0  0  -0.158385  -0.206487  0  3.942846  0
C  C55  1  0.27461971  0.22562653  0.22562283  1  0  -0.08016  0  3.668572  0  0  -0.117111  0  3.927769  0  0  -0.118613  0  3.941822  0  0  -0.154044  -0.115842  0  3.917987  0
N  N56  1  0.37158946  0.50393584  0.75313454  1  0  -0.329119  0  3.264013  0  0  -0.250375  0  3.529561  0  0  -0.270349  0  3.548159  0  0  -0.322779  -0.236871  0  3.517291  0
N  N57  1  0.37158336  0.75313616  0.50393550  1  0  -0.329043  0  3.263856  0  0  -0.250297  0  3.529401  0  0  -0.270273  0  3.548002  0  0  -0.322705  -0.236793  0  3.51713  0
N  N58  1  0.54132689  0.58269605  0.33389669  1  0  -0.328588  0  3.261781  0  0  -0.251014  0  3.528319  0  0  -0.27096  0  3.546941  0  0  -0.323506  -0.237521  0  3.516035  0
N  N59  1  0.54132833  0.33389622  0.58270046  1  0  -0.328581  0  3.261618  0  0  -0.251015  0  3.528154  0  0  -0.270959  0  3.546771  0  0  -0.323538  -0.23752  0  3.515868  0
F  F60  1  0.95648855  0.40917228  0.67780533  1  0  -0.58944  0  0.902734  0  0  -0.545956  0  1.078222  0  0  -0.559282  0  1.053778  0  0  -0.238522  -0.53632  0  1.095076  0
F  F61  1  0.95649449  0.67779473  0.40915813  1  0  -0.589439  0  0.902748  0  0  -0.545963  0  1.078243  0  0  -0.559289  0  1.053798  0  0  -0.238574  -0.536325  0  1.095097  0
F  F62  1  0.18131933  0.54369379  0.54369039  1  0  -0.582783  0  1.098917  0  0  -0.510652  0  1.31771  0  0  -0.528681  0  1.292335  0  0  -0.193601  -0.497661  0  1.33506  0
F  F63  1  0.73150785  0.54335063  0.54335200  1  0  -0.583345  0  1.098896  0  0  -0.510521  0  1.316616  0  0  -0.528514  0  1.29119  0  0  -0.19377  -0.497559  0  1.333994  0
F  F64  1  0.85811006  0.64128932  0.64126888  1  0  -0.596864  0  0.935437  0  0  -0.544334  0  1.117367  0  0  -0.559511  0  1.094735  0  0  -0.22762  -0.533417  0  1.132904  0
F  F65  1  0.05472959  0.44570977  0.44572191  1  0  -0.596565  0  0.935174  0  0  -0.544444  0  1.117805  0  0  -0.559554  0  1.095131  0  0  -0.227265  -0.533158  0  1.133023  0
