# generated using pymatgen
data_MnH24C24S2(N3O4)2
_symmetry_space_group_name_H-M   'P 1'
_cell_length_a   5.72821560
_cell_length_b   7.05476876
_cell_length_c   15.49519637
_cell_angle_alpha   100.60961902
_cell_angle_beta   99.14399012
_cell_angle_gamma   94.22524551
_symmetry_Int_Tables_number   1
_chemical_formula_structural   MnH24C24S2(N3O4)2
_chemical_formula_sum   'Mn1 H24 C24 S2 N6 O8'
_cell_volume   604.22544281
_cell_formula_units_Z   1
loop_
 _symmetry_equiv_pos_site_id
 _symmetry_equiv_pos_as_xyz
  1  'x, y, z'
loop_
 _atom_site_type_symbol
 _atom_site_label
 _atom_site_symmetry_multiplicity
 _atom_site_fract_x
 _atom_site_fract_y
 _atom_site_fract_z
 _atom_site_occupancy
 _atom_site_hle17_ddec_charge
 _atom_site_hle17_ddec_spin_density
 _atom_site_hle17_ddec_sum_bond_order
 _atom_site_hle17_magmom
 _atom_site_hse06_10hf_ddec_charge
 _atom_site_hse06_10hf_ddec_spin_density
 _atom_site_hse06_10hf_ddec_sum_bond_order
 _atom_site_hse06_10hf_magmom
 _atom_site_hse06_ddec_charge
 _atom_site_hse06_ddec_spin_density
 _atom_site_hse06_ddec_sum_bond_order
 _atom_site_hse06_magmom
 _atom_site_pbe_cm5_charge
 _atom_site_pbe_ddec_charge
 _atom_site_pbe_ddec_spin_density
 _atom_site_pbe_ddec_sum_bond_order
 _atom_site_pbe_magmom
Mn  Mn0  1  0.00000565  0.00000283  0.00000381  1  1.221581  4.809788  1.643321  4.685  1.067847  4.734164  2.117387  4.55  1.117033  4.778213  2.056762  4.611  0.611306  1.030926  4.6859  2.161334  4.485
H  H1  1  0.41954273  0.37658873  0.71970122  1  0.101911  -1e-06  0.975598  0.0  0.11014  -1.2e-05  1.040281  0.0  0.112482  -2e-05  1.040627  0.0  0.103912  0.108317  2e-06  1.040234  0.0
H  H2  1  0.58047124  0.62339140  0.28029239  1  0.101985  1e-06  0.975676  0.0  0.110155  -1.2e-05  1.040422  0.0  0.112496  -2e-05  1.04077  0.0  0.103931  0.108335  2e-06  1.040377  0.0
H  H3  1  0.57727064  0.12194584  0.59260477  1  0.106098  -9.7e-05  0.968884  0.0  0.111569  -1.1e-05  1.036935  0.0  0.114124  -2.7e-05  1.036318  0.0  0.106673  0.109606  7e-06  1.037773  0.0
H  H4  1  0.42273144  0.87806206  0.40739622  1  0.106163  -9.9e-05  0.968805  0.0  0.111614  -1.1e-05  1.036863  0.0  0.114172  -2.7e-05  1.036241  0.0  0.10667  0.109654  7e-06  1.037693  0.0
H  H5  1  0.40079886  0.24082238  0.06003177  1  0.307022  -0.000272  0.916213  0.0  0.292718  0.000643  0.979317  0.001  0.299438  0.000379  0.973968  0.001  0.297487  0.287783  0.000889  0.983203  0.001
H  H6  1  0.59919437  0.75917403  0.93996965  1  0.307033  -0.000273  0.916326  0.0  0.292722  0.000643  0.979421  0.001  0.299443  0.000379  0.97407  0.001  0.297473  0.287788  0.000888  0.983305  0.001
H  H7  1  0.73152336  0.13960560  0.75441749  1  0.107491  -0.000112  0.955414  0.0  0.114899  -0.000159  1.020611  0.0  0.11802  -0.000164  1.019485  0.0  0.105852  0.112465  -0.000155  1.021796  0.0
H  H8  1  0.26847936  0.86040666  0.24558455  1  0.107592  -0.000111  0.955423  0.0  0.115  -0.000159  1.020598  0.0  0.118119  -0.000164  1.019473  0.0  0.105913  0.11257  -0.000155  1.021781  0.0
H  H9  1  0.17848826  0.36707403  0.08848932  1  0.328009  -0.00026  0.899697  0.0  0.314371  0.00041  0.959139  0.001  0.320751  0.000282  0.954394  0.001  0.30267  0.309799  0.000517  0.96248  0.001
H  H10  1  0.82150587  0.63292817  0.91151135  1  0.327951  -0.000261  0.899823  0.0  0.314334  0.000409  0.959227  0.001  0.320713  0.000282  0.954488  0.001  0.302674  0.30978  0.000516  0.962535  0.001
H  H11  1  0.26650066  0.34710559  0.55679551  1  0.108182  -3.8e-05  0.964499  0.0  0.107013  5.4e-05  1.045758  0.0  0.110823  3.8e-05  1.042856  0.0  0.104808  0.104113  7.5e-05  1.048279  0.0
H  H12  1  0.73350090  0.65287471  0.44319928  1  0.108064  -4.2e-05  0.964539  0.0  0.106895  5.3e-05  1.045811  0.0  0.110707  3.8e-05  1.04291  0.0  0.104742  0.103998  7.5e-05  1.048329  0.0
H  H13  1  0.78205424  0.32629560  0.04007039  1  0.424952  4.3e-05  0.882485  0.001  0.393261  0.000735  0.948249  0.002  0.403778  0.000505  0.932909  0.001  0.297718  0.385919  0.000932  0.958915  0.002
H  H14  1  0.21794495  0.67370508  0.95993111  1  0.424958  4.3e-05  0.882474  0.001  0.393276  0.000735  0.948226  0.002  0.403793  0.000505  0.932884  0.001  0.297739  0.385935  0.000932  0.958891  0.002
H  H15  1  0.62692620  0.21826530  0.94958250  1  0.434413  -9.2e-05  0.862174  0.001  0.405115  0.00047  0.922891  0.002  0.415342  0.000272  0.908023  0.002  0.301518  0.39788  0.000642  0.933409  0.002
H  H16  1  0.37307321  0.78173683  0.05041913  1  0.434411  -9.2e-05  0.862201  0.001  0.405142  0.00047  0.922868  0.002  0.415369  0.000272  0.908  0.002  0.301555  0.397908  0.000642  0.933385  0.002
H  H17  1  0.04274929  0.36117790  0.23350124  1  0.106591  -0.000225  0.970829  0.0  0.115547  -9e-06  1.033462  0.0  0.118119  -3e-05  1.033895  0.0  0.10152  0.113599  1.6e-05  1.033369  0.0
H  H18  1  0.95723816  0.63881568  0.76650152  1  0.106573  -0.000226  0.970714  0.0  0.115542  -9e-06  1.033318  0.0  0.118093  -3e-05  1.033821  0.0  0.101512  0.113583  1.6e-05  1.033248  0.0
H  H19  1  0.20071002  0.35651931  0.39224644  1  0.104754  7.2e-05  0.95941  0.0  0.106567  -4.2e-05  1.036108  0.0  0.109542  -3.9e-05  1.033869  0.0  0.104626  0.104393  -3.6e-05  1.037903  0.0
H  H20  1  0.79928583  0.64348287  0.60775627  1  0.104799  7.1e-05  0.959439  0.0  0.106608  -4.2e-05  1.036144  0.0  0.109582  -3.9e-05  1.033906  0.0  0.104645  0.104438  -3.6e-05  1.037935  0.0
H  H21  1  0.82550039  0.11918432  0.31582538  1  0.101712  9.5e-05  0.976482  0.0  0.107255  1e-05  1.046212  0.0  0.109474  -4e-06  1.045765  0.0  0.104542  0.10554  2.3e-05  1.046744  0.0
H  H22  1  0.17449326  0.88081498  0.68417695  1  0.101675  9.6e-05  0.976506  0.0  0.107224  1e-05  1.04623  0.0  0.109443  -4e-06  1.045782  0.0  0.104514  0.105507  2.3e-05  1.046762  0.0
H  H23  1  0.66295113  0.11332958  0.15682500  1  0.114338  -0.000811  0.985071  0.0  0.122817  -0.000724  1.046725  0.0  0.12691  -0.000726  1.044679  0.0  0.103867  0.119588  -0.000719  1.048649  0.0
H  H24  1  0.33703962  0.88667413  0.84317816  1  0.114301  -0.000811  0.985074  0.0  0.12282  -0.000724  1.046685  0.0  0.126917  -0.000726  1.044631  0.0  0.103856  0.119593  -0.000719  1.048606  0.0
C  C25  1  0.23583025  0.32084015  0.69142570  1  -0.058764  -0.001087  3.749691  -0.001  -0.082857  0.000393  3.995075  0.0  -0.081811  -9e-05  4.016337  0.0  -0.085049  -0.083296  0.000733  3.980826  0.0
C  C26  1  0.76417481  0.67915173  0.30857092  1  -0.059079  -0.001159  3.750037  -0.001  -0.083117  0.000396  3.995458  0.0  -0.082076  -9.7e-05  4.016726  0.0  -0.085136  -0.083562  0.000733  3.981225  0.0
C  C27  1  0.08316076  0.26278203  0.74591934  1  -0.13379  0.004156  3.757299  0.004  -0.106618  0.003835  4.003199  0.003  -0.113544  0.003182  4.022878  0.003  -0.020048  -0.102658  0.004904  3.99058  0.004
C  C28  1  0.91684801  0.73721125  0.25407891  1  -0.133608  0.004209  3.757302  0.004  -0.10648  0.00383  4.003226  0.003  -0.113405  0.003189  4.02291  0.003  -0.020026  -0.102523  0.004904  3.990631  0.004
C  C29  1  0.84628017  0.18868273  0.71139820  1  -0.053866  -0.001618  3.744902  -0.001  -0.077851  -0.000228  3.993739  0.0  -0.076203  -0.000626  4.012372  0.0  -0.083353  -0.079057  0.000114  3.981902  0.0
C  C30  1  0.15372131  0.81132083  0.28860045  1  -0.054068  -0.001679  3.745076  -0.001  -0.078035  -0.000224  3.993919  0.0  -0.076391  -0.000632  4.012558  0.0  -0.083427  -0.079249  0.000115  3.982098  0.0
C  C31  1  0.90956769  0.24181440  0.56655344  1  0.173832  -0.002052  3.799588  -0.002  0.178644  -0.000539  4.046441  -0.001  0.180832  -0.001038  4.069252  -0.001  0.093879  0.1774  -6.7e-05  4.030805  -0.001
C  C32  1  0.09043469  0.75818333  0.43344414  1  0.173807  -0.002113  3.799597  -0.002  0.178615  -0.000532  4.046463  -0.001  0.180802  -0.001057  4.069275  -0.001  0.093835  0.177374  -6.6e-05  4.030825  -0.001
C  C33  1  0.75989812  0.17913843  0.62171898  1  -0.119574  0.002411  3.693628  0.002  -0.138182  0.0018  3.939326  0.001  -0.142761  0.001591  3.961469  0.001  -0.079503  -0.135264  0.002336  3.924695  0.002
C  C34  1  0.24010339  0.82086512  0.37827838  1  -0.119623  0.002466  3.693658  0.002  -0.138211  0.001798  3.939377  0.001  -0.142791  0.001596  3.96152  0.001  -0.079518  -0.135293  0.002336  3.924747  0.002
C  C35  1  0.14975699  0.30640157  0.60100895  1  -0.110899  0.002597  3.666541  0.002  -0.129821  0.001991  3.916177  0.002  -0.134828  0.00175  3.93742  0.001  -0.076697  -0.126554  0.002364  3.902035  0.002
C  C36  1  0.85024717  0.69358451  0.39898777  1  -0.110628  0.002661  3.66649  0.002  -0.12956  0.001989  3.916131  0.002  -0.134568  0.001753  3.937377  0.001  -0.076559  -0.126295  0.002364  3.901991  0.002
C  C37  1  0.34548522  0.24187006  0.18505519  1  0.311378  -0.006693  3.752542  -0.004  0.30476  -0.002157  4.003336  -0.001  0.315134  -0.003714  4.022964  -0.002  0.097654  0.296609  -0.000339  3.990705  0.001
C  C38  1  0.65450822  0.75812779  0.81494637  1  0.311542  -0.006729  3.752531  -0.004  0.304902  -0.002156  4.003335  -0.001  0.315279  -0.003714  4.022956  -0.002  0.097719  0.296761  -0.000339  3.990694  0.001
C  C39  1  0.21380082  0.30812675  0.25149844  1  -0.165932  0.006191  3.704701  0.006  -0.18158  0.004562  3.951381  0.004  -0.188099  0.004413  3.972873  0.004  -0.096291  -0.177174  0.004719  3.937517  0.004
C  C40  1  0.78618998  0.69187695  0.74850279  1  -0.165972  0.006211  3.7047  0.006  -0.181622  0.004561  3.951445  0.004  -0.188151  0.004411  3.972924  0.004  -0.096313  -0.177219  0.004718  3.937564  0.004
C  C41  1  0.65517598  0.17270136  0.29704988  1  -0.101216  -0.005828  3.73353  -0.004  -0.121348  -0.00255  3.980966  -0.002  -0.120995  -0.003577  4.003194  -0.002  -0.083091  -0.12128  -0.001355  3.965631  -0.001
C  C42  1  0.34482232  0.82730515  0.70295205  1  -0.10118  -0.005857  3.733569  -0.004  -0.121337  -0.00255  3.981003  -0.002  -0.120982  -0.003575  4.003228  -0.002  -0.08309  -0.121266  -0.001354  3.965663  -0.001
C  C43  1  0.52748516  0.24503811  0.36418110  1  0.126588  0.005689  3.845009  0.005  0.13258  0.005026  4.091824  0.004  0.127903  0.004737  4.118682  0.004  0.079447  0.136108  0.005432  4.073071  0.005
C  C44  1  0.47251115  0.75496697  0.63582059  1  0.126533  0.005708  3.844954  0.005  0.132583  0.005025  4.091703  0.004  0.12791  0.00474  4.118554  0.004  0.079496  0.136108  0.005431  4.072957  0.005
C  C45  1  0.56401366  0.16975831  0.20857878  1  -0.179375  0.005311  3.726426  0.005  -0.1975  0.003233  3.979398  0.003  -0.204168  0.003404  3.99837  0.003  -0.102262  -0.193109  0.003  3.967475  0.003
C  C46  1  0.43598224  0.83024387  0.79142199  1  -0.179382  0.005329  3.726378  0.005  -0.19752  0.003232  3.979362  0.003  -0.204188  0.003403  3.998327  0.003  -0.102257  -0.193131  0.002999  3.96743  0.003
C  C47  1  0.30317588  0.30775137  0.34029116  1  -0.09169  -0.005889  3.705681  -0.004  -0.111082  -0.002594  3.95414  -0.002  -0.111853  -0.003671  3.976756  -0.003  -0.074796  -0.110489  -0.001367  3.938769  -0.001
C  C48  1  0.69681867  0.69225373  0.65971042  1  -0.091747  -0.005914  3.705682  -0.004  -0.111178  -0.002595  3.95418  -0.002  -0.11194  -0.003668  3.97678  -0.003  -0.074857  -0.110589  -0.001366  3.938811  -0.001
S  S49  1  0.18724195  0.29072730  0.86155642  1  1.332827  0.004884  5.566642  0.004  1.227044  0.00804  6.082922  0.006  1.27537  0.006253  6.058875  0.005  0.535135  1.193843  0.009763  6.098017  0.007
S  S50  1  0.81276307  0.70927621  0.13844181  1  1.332898  0.004885  5.566391  0.004  1.227127  0.008045  6.082656  0.006  1.27545  0.006249  6.058612  0.005  0.53515  1.193925  0.009765  6.097756  0.007
N  N51  1  0.26062317  0.24411376  0.09408003  1  -0.684657  0.025431  3.089979  0.013  -0.634477  0.027371  3.332611  0.01  -0.656849  0.025585  3.328169  0.009  -0.593939  -0.61721  0.028405  3.335319  0.01
N  N52  1  0.73937442  0.75588840  0.90592343  1  -0.684649  0.025426  3.090068  0.013  -0.634488  0.027369  3.332768  0.01  -0.656858  0.025584  3.328321  0.009  -0.593948  -0.617241  0.028403  3.335436  0.01
N  N53  1  0.60991342  0.25559149  0.45539643  1  -0.147542  -0.004943  3.012975  -0.005  -0.122848  -0.001315  3.298307  -0.002  -0.119153  -0.003341  3.304966  -0.003  -0.146542  -0.125452  0.001416  3.294045  0.001
N  N54  1  0.39008617  0.74441210  0.54460663  1  -0.147468  -0.005001  3.012999  -0.005  -0.122789  -0.001313  3.298315  -0.002  -0.119095  -0.003343  3.304976  -0.003  -0.146541  -0.125392  0.001416  3.294053  0.001
N  N55  1  0.83151126  0.24173235  0.47564279  1  -0.161523  0.007993  2.985125  0.008  -0.136882  0.007806  3.268415  0.008  -0.137559  0.006764  3.276132  0.007  -0.150915  -0.136514  0.010415  3.263459  0.01
N  N56  1  0.16848734  0.75826398  0.52435573  1  -0.161524  0.008037  2.985158  0.008  -0.136886  0.007803  3.268462  0.008  -0.137563  0.006769  3.27618  0.007  -0.150866  -0.136513  0.010415  3.263498  0.01
O  O57  1  0.71578986  0.19315606  0.00641082  1  -0.842448  0.029821  1.881684  0.018  -0.775943  0.037434  2.080693  0.023  -0.800058  0.033872  2.048449  0.02  -0.564598  -0.757611  0.040555  2.102779  0.025
O  O58  1  0.28420600  0.80684612  0.99359125  1  -0.842448  0.029824  1.881695  0.018  -0.775971  0.037437  2.08068  0.023  -0.800089  0.033874  2.048445  0.02  -0.56464  -0.75764  0.040558  2.102768  0.025
O  O59  1  0.09369288  0.11144621  0.88742341  1  -0.705928  0.029549  2.070296  0.015  -0.634747  0.037058  2.358016  0.019  -0.660582  0.033633  2.341116  0.016  -0.327925  -0.615451  0.04031  2.368702  0.022
O  O60  1  0.90631446  0.88856162  0.11257920  1  -0.705989  0.029555  2.070234  0.015  -0.634805  0.03706  2.357953  0.019  -0.660653  0.033642  2.341062  0.016  -0.327944  -0.615505  0.040314  2.368643  0.022
O  O61  1  0.44793199  0.31817960  0.87515955  1  -0.661485  0.001049  1.968175  0.002  -0.606146  0.002071  2.213363  0.003  -0.626573  0.001372  2.199078  0.002  -0.330217  -0.591716  0.002732  2.222772  0.004
O  O62  1  0.55207485  0.68182388  0.12483685  1  -0.661417  0.00105  1.968144  0.002  -0.606088  0.002068  2.213315  0.003  -0.626512  0.001376  2.199029  0.002  -0.330163  -0.591651  0.002733  2.222722  0.004
O  O63  1  0.08449393  0.46069858  0.90583212  1  -0.682214  -0.000134  2.008266  0.001  -0.620349  0.000312  2.254207  0.001  -0.641518  -7.2e-05  2.238947  0.001  -0.33176  -0.605604  0.000783  2.264459  0.002
O  O64  1  0.91552311  0.53931347  0.09416304  1  -0.68228  -0.000135  2.008171  0.001  -0.620388  0.000315  2.254107  0.001  -0.641549  -7.4e-05  2.238832  0.001  -0.331772  -0.60564  0.000783  2.264361  0.002
