# generated using pymatgen
data_LaH45C40S3N8O17
_symmetry_space_group_name_H-M   'P 1'
_cell_length_a   9.47322257
_cell_length_b   16.39734476
_cell_length_c   17.45498039
_cell_angle_alpha   103.28036603
_cell_angle_beta   104.10265754
_cell_angle_gamma   92.44107051
_symmetry_Int_Tables_number   1
_chemical_formula_structural   LaH45C40S3N8O17
_chemical_formula_sum   'La2 H90 C80 S6 N16 O34'
_cell_volume   2545.34793823
_cell_formula_units_Z   2
loop_
 _symmetry_equiv_pos_site_id
 _symmetry_equiv_pos_as_xyz
  1  'x, y, z'
loop_
 _atom_site_type_symbol
 _atom_site_label
 _atom_site_symmetry_multiplicity
 _atom_site_fract_x
 _atom_site_fract_y
 _atom_site_fract_z
 _atom_site_occupancy
 _atom_site_pbe_bader_charge
 _atom_site_pbe_bader_spin_density
 _atom_site_pbe_cm5_charge
 _atom_site_pbe_ddec_charge
 _atom_site_pbe_ddec_spin_density
 _atom_site_pbe_ddec_sum_bond_order
 _atom_site_pbe_magmom
La  La0  1  0.25607746  0.50023627  0.99619118  1  2.283566  0  1.405821  1.949656  0  2.381901  0
La  La1  1  0.74392918  0.49976171  0.00380542  1  2.283556  0  1.405861  1.949666  0  2.381627  0
H  H2  1  0.17473905  0.68429340  0.99287891  1  0.634811  0  0.301799  0.397868  0  0.927688  0
H  H3  1  0.82527288  0.31570890  0.00711640  1  0.63491  0  0.301835  0.397849  0  0.927692  0
H  H4  1  0.07667907  0.65252699  0.04547474  1  0.64691  0  0.296921  0.395292  0  0.939263  0
H  H5  1  0.92331179  0.34747279  0.95451368  1  0.646843  0  0.296943  0.395239  0  0.939305  0
H  H6  1  0.12977009  0.29785062  0.96421656  1  0.640163  0  0.287207  0.336017  0  1.026782  0
H  H7  1  0.87023254  0.70213944  0.03578712  1  0.640421  0  0.287198  0.335976  0  1.026802  0
H  H8  1  0.10121665  0.32759195  0.88063283  1  0.598763  0  0.328225  0.40629  0  0.87563  0
H  H9  1  0.89879521  0.67237696  0.11935721  1  0.598536  0  0.328331  0.406478  0  0.875172  0
H  H10  1  0.28219940  0.63521092  0.46920594  1  0.474703  0  0.328819  0.295211  0  0.910328  0
H  H11  1  0.71780004  0.36478895  0.53078829  1  0.474761  0  0.328816  0.295065  0  0.910362  0
H  H12  1  0.15822555  0.42344840  0.78134120  1  0.514957  0  0.30199  0.281087  0  1.004667  0
H  H13  1  0.84177018  0.57653979  0.21866116  1  0.514639  0  0.301903  0.280987  0  1.004706  0
H  H14  1  0.19132364  0.11955556  0.41784423  1  0.458294  0  0.329533  0.286841  0  0.91369  0
H  H15  1  0.80864713  0.88044983  0.58215965  1  0.458219  0  0.329607  0.286984  0  0.913611  0
H  H16  1  0.30755276  0.42241140  0.16363855  1  0.531357  0  0.307325  0.28396  0  1.021968  0
H  H17  1  0.69244280  0.57759027  0.83635147  1  0.531072  0  0.307396  0.283998  0  1.021905  0
H  H18  1  0.58655139  0.92996683  0.25458682  1  0.477786  0  0.326438  0.285672  0  0.923232  0
H  H19  1  0.41345420  0.07001553  0.74541179  1  0.477754  0  0.326457  0.285642  0  0.923346  0
H  H20  1  0.69600554  0.35569712  0.22456341  1  0.512957  0  0.315706  0.299954  0  0.952718  0
H  H21  1  0.30398584  0.64429451  0.77542524  1  0.512693  0  0.315659  0.299986  0  0.952876  0
H  H22  1  0.31986288  0.83987261  0.51991657  1  0.069894  0  0.096786  0.151564  0  1.015152  0
H  H23  1  0.68013657  0.16012878  0.48008769  1  0.069836  0  0.096832  0.15172  0  1.01522  0
H  H24  1  0.29862472  0.75197874  0.43349120  1  0.054688  0  0.099855  0.153998  0  0.986092  0
H  H25  1  0.70137348  0.24803195  0.56650838  1  0.054939  0  0.099869  0.15404  0  0.986032  0
H  H26  1  0.14831112  0.81083170  0.44545294  1  0.104279  0  0.104746  0.166746  0  0.984766  0
H  H27  1  0.85168086  0.18917944  0.55453840  1  0.104443  0  0.104768  0.166823  0  0.984863  0
H  H28  1  0.31143954  0.50230401  0.47558712  1  0.112672  0  0.104076  0.121747  0  1.041205  0
H  H29  1  0.68858380  0.49770716  0.52441551  1  0.11282  0  0.104147  0.121808  0  1.041224  0
H  H30  1  0.25550559  0.37971303  0.52888470  1  0.083541  0  0.104576  0.107519  0  1.01768  0
H  H31  1  0.74452816  0.62028413  0.47111326  1  0.083704  0  0.10452  0.107391  0  1.017818  0
H  H32  1  0.04117938  0.53656713  0.68932686  1  0.072049  0  0.103356  0.096907  0  1.058025  0
H  H33  1  0.95882937  0.46343013  0.31066703  1  0.072293  0  0.103378  0.097079  0  1.057933  0
H  H34  1  0.09238117  0.65805361  0.63546518  1  0.128651  0  0.102854  0.117091  0  1.060081  0
H  H35  1  0.90761315  0.34195469  0.36453798  1  0.128544  0  0.102888  0.117148  0  1.060206  0
H  H36  1  0.39869807  0.33602973  0.72488013  1  0.063367  0  0.115405  0.117005  0  0.964305  0
H  H37  1  0.60131753  0.66396375  0.27511515  1  0.06346  0  0.115424  0.116948  0  0.96453  0
H  H38  1  0.39413203  0.44602562  0.73570030  1  0.119194  0  0.106725  0.108728  0  1.029251  0
H  H39  1  0.60586303  0.55396859  0.26429223  1  0.119042  0  0.106684  0.108615  0  1.029355  0
H  H40  1  0.27584419  0.92084294  0.38566234  1  0.089768  0  0.10713  0.169584  0  0.98706  0
H  H41  1  0.72407581  0.07916693  0.61435188  1  0.089864  0  0.107064  0.169324  0  0.987561  0
H  H42  1  0.17871841  0.99517667  0.43866526  1  0.03295  0  0.097499  0.141414  0  0.995475  0
H  H43  1  0.82121954  0.00486520  0.56133184  1  0.033807  0  0.097688  0.141685  0  0.995395  0
H  H44  1  0.36026800  0.97918699  0.48741467  1  0.086117  0  0.102018  0.16227  0  1.007478  0
H  H45  1  0.63966602  0.02082633  0.51259245  1  0.085237  0  0.101989  0.162046  0  1.007553  0
H  H46  1  0.12963735  0.24842980  0.40698779  1  0.115595  0  0.1122  0.131561  0  1.007811  0
H  H47  1  0.87036543  0.75158291  0.59301854  1  0.115739  0  0.112158  0.131592  0  1.007632  0
H  H48  1  0.17885075  0.37992542  0.36834627  1  0.092807  0  0.111343  0.112977  0  1.007242  0
H  H49  1  0.82114776  0.62008151  0.63165377  1  0.092932  0  0.111374  0.113057  0  1.007174  0
H  H50  1  0.54582908  0.28158824  0.28565607  1  0.088873  0  0.103557  0.104471  0  1.028829  0
H  H51  1  0.45418329  0.71841168  0.71434457  1  0.088911  0  0.10345  0.104253  0  1.029087  0
H  H52  1  0.49726793  0.14904840  0.32469938  1  0.13024  0  0.102351  0.118035  0  1.05835  0
H  H53  1  0.50270043  0.85095572  0.67530334  1  0.129199  0  0.102475  0.118373  0  1.058442  0
H  H54  1  0.14359326  0.51844207  0.27419892  1  0.121263  0  0.119137  0.131423  0  0.993681  0
H  H55  1  0.85640212  0.48153622  0.72578429  1  0.120772  0  0.119156  0.131392  0  0.993494  0
H  H56  1  0.07158195  0.41057758  0.23069661  1  0.091517  0  0.106255  0.101849  0  1.03366  0
H  H57  1  0.92841853  0.58941091  0.76929501  1  0.091302  0  0.106268  0.101728  0  1.033754  0
H  H58  1  0.42230522  0.73412443  0.13377412  1  0.121079  0  0.113725  0.181242  0  0.994829  0
H  H59  1  0.57769517  0.26586571  0.86623213  1  0.12102  0  0.11374  0.181258  0  0.994843  0
H  H60  1  0.48996809  0.79932993  0.23578511  1  0.062301  0  0.101588  0.149709  0  0.987349  0
H  H61  1  0.51005265  0.20066156  0.76420764  1  0.061889  0  0.101652  0.149881  0  0.987509  0
H  H62  1  0.61268708  0.74977564  0.18140079  1  0.092871  0  0.111129  0.17542  0  0.980337  0
H  H63  1  0.38737523  0.25021460  0.81858208  1  0.092812  0  0.111148  0.1755  0  0.980503  0
H  H64  1  0.70746991  0.06082805  0.31282660  1  0.085213  0  0.110312  0.12074  0  0.994575  0
H  H65  1  0.29252758  0.93915753  0.68717206  1  0.08526  0  0.110294  0.120667  0  0.994533  0
H  H66  1  0.80880212  0.19514640  0.29847336  1  0.140569  0  0.108335  0.122532  0  1.059334  0
H  H67  1  0.19117727  0.80484116  0.70152314  1  0.17296  0  0.108245  0.122345  0  1.059346  0
H  H68  1  0.66283497  0.10623672  0.03632105  1  0.099069  0  0.105587  0.107769  0  1.047387  0
H  H69  1  0.33714304  0.89376027  0.96367593  1  0.099078  0  0.105586  0.107758  0  1.047429  0
H  H70  1  0.56793139  0.96778506  0.05130358  1  0.133521  0  0.105715  0.119073  0  1.061548  0
H  H71  1  0.43203473  0.03221839  0.94869640  1  0.133297  0  0.10575  0.119112  0  1.061449  0
H  H72  1  0.45779526  0.28458362  0.14364145  1  0.090673  0  0.103142  0.090946  0  1.016453  0
H  H73  1  0.54218411  0.71540736  0.85634253  1  0.090697  0  0.103148  0.090896  0  1.016511  0
H  H74  1  0.53547796  0.24636931  0.06092702  1  0.152819  0  0.123296  0.13094  0  0.999171  0
H  H75  1  0.46450967  0.75361981  0.93906005  1  0.153203  0  0.123328  0.131045  0  0.999289  0
H  H76  1  0.97809979  0.96918781  0.27594375  1  0.037499  0  0.105597  0.071065  0  0.98945  0
H  H77  1  0.02186541  0.03080864  0.72407596  1  0.037563  0  0.105668  0.071047  0  0.989903  0
H  H78  1  0.00577399  0.08851965  0.21377415  1  0.085303  0  0.10117  0.109447  0  1.039544  0
H  H79  1  0.99425161  0.91146597  0.78623534  1  0.086072  0  0.101244  0.109442  0  1.039455  0
H  H80  1  0.27100320  0.94006620  0.07709937  1  0.059621  0  0.105131  0.113206  0  1.026938  0
H  H81  1  0.72906132  0.05995063  0.92291700  1  0.059201  0  0.105182  0.113227  0  1.027278  0
H  H82  1  0.22631810  0.82580340  0.14249734  1  0.080909  0  0.113548  0.086153  0  0.993771  0
H  H83  1  0.77369465  0.17422199  0.85751742  1  0.080668  0  0.113537  0.086099  0  0.993721  0
H  H84  1  0.14684950  0.30435573  0.11961589  1  0.074094  0  0.118308  0.086914  0  1.013062  0
H  H85  1  0.85315639  0.69566283  0.88039946  1  0.074544  0  0.118205  0.086642  0  1.013269  0
H  H86  1  0.14840271  0.19774739  0.19939182  1  0.095177  0  0.103848  0.114331  0  1.040956  0
H  H87  1  0.85161062  0.80227626  0.80062841  1  0.095679  0  0.103881  0.114317  0  1.041111  0
H  H88  1  0.16162688  0.00999860  0.98256766  1  0.080304  0  0.101731  0.107709  0  1.038242  0
H  H89  1  0.83838758  0.99001665  0.01746717  1  0.08031  0  0.101813  0.107944  0  1.038295  0
H  H90  1  0.16569295  0.12575388  0.91322549  1  0.105303  0  0.111699  0.079122  0  1.003956  0
H  H91  1  0.83431237  0.87424512  0.08678545  1  0.105126  0  0.1116  0.079006  0  1.004086  0
C  C92  1  0.24475920  0.78636122  0.47811166  1  -0.112841  0  -0.242738  -0.531441  0  3.921939  0
C  C93  1  0.75522632  0.21364077  0.52188733  1  -0.111951  0  -0.242813  -0.531682  0  3.922048  0
C  C94  1  0.19440415  0.73318117  0.52829050  1  1.391844  0  0.244403  0.591407  0  4.066554  0
C  C95  1  0.80559893  0.26682703  0.47171157  1  1.391156  0  0.244338  0.591235  0  4.066219  0
C  C96  1  0.20312710  0.58773575  0.55076667  1  0.32032  0  0.106729  0.266361  0  4.002447  0
C  C97  1  0.79687289  0.41226735  0.44923113  1  0.320163  0  0.106612  0.2663  0  4.002949  0
C  C98  1  0.25047411  0.50920954  0.52188404  1  -0.008112  0  -0.093297  -0.184191  0  3.940257  0
C  C99  1  0.74953299  0.49078606  0.47811732  1  -0.008505  0  -0.093357  -0.184382  0  3.94076  0
C  C100  1  0.21981704  0.44070455  0.55164191  1  -0.006685  0  -0.082271  -0.06055  0  4.002245  0
C  C101  1  0.78019166  0.55928214  0.44835510  1  -0.000383  0  -0.082156  -0.06024  0  4.002194  0
C  C102  1  0.14165636  0.45004451  0.61081511  1  -0.163502  0  -0.032223  -0.118256  0  4.009544  0
C  C103  1  0.85836733  0.54995224  0.38918765  1  -0.169376  0  -0.032251  -0.118245  0  4.009555  0
C  C104  1  0.09843078  0.52865095  0.64165934  1  -0.016734  0  -0.087775  -0.071316  0  4.007658  0
C  C105  1  0.90158700  0.47134328  0.35834097  1  -0.017236  0  -0.08778  -0.071555  0  4.008008  0
C  C106  1  0.12798868  0.59747710  0.61206384  1  -0.018478  0  -0.10001  -0.184299  0  3.941882  0
C  C107  1  0.87202799  0.40252857  0.38794195  1  -0.018286  0  -0.099982  -0.184268  0  3.942167  0
C  C108  1  0.35877473  0.39235303  0.75706838  1  0.263516  0  -0.070616  -0.163488  0  3.912101  0
C  C109  1  0.64121965  0.60764382  0.24292857  1  0.263643  0  -0.070616  -0.163141  0  3.911875  0
C  C110  1  0.43205537  0.41033007  0.84801859  1  1.615861  0  0.233319  0.659028  0  4.143436  0
C  C111  1  0.56795123  0.58967136  0.15196605  1  1.615798  0  0.233236  0.658947  0  4.143496  0
C  C112  1  0.28667656  0.98240246  0.42898207  1  -0.098062  0  -0.239515  -0.532199  0  3.915162  0
C  C113  1  0.71326966  0.01762197  0.57102201  1  -0.097784  0  -0.239656  -0.531927  0  3.915224  0
C  C114  1  0.35406584  0.04764798  0.39620032  1  1.380763  0  0.240394  0.584973  0  4.075698  0
C  C115  1  0.64589242  0.95235347  0.60379302  1  1.37919  0  0.240405  0.584893  0  4.075269  0
C  C116  1  0.31232421  0.19033684  0.36954647  1  0.311554  0  0.102763  0.254368  0  4.018648  0
C  C117  1  0.68765623  0.80967927  0.63046254  1  0.3116  0  0.10279  0.254347  0  4.018738  0
C  C118  1  0.22128453  0.25546221  0.38030380  1  -0.008733  0  -0.088336  -0.183318  0  3.919124  0
C  C119  1  0.77870399  0.74454993  0.61970043  1  -0.009465  0  -0.088325  -0.183344  0  3.918484  0
C  C120  1  0.24839377  0.32955378  0.35805707  1  -0.040436  0  -0.07834  -0.051773  0  3.974815  0
C  C121  1  0.75161348  0.67045383  0.64194777  1  -0.040255  0  -0.078512  -0.051996  0  3.974839  0
C  C122  1  0.36575146  0.33927743  0.32406255  1  -0.176526  0  -0.029574  -0.122998  0  4.000662  0
C  C123  1  0.63425643  0.66072683  0.67593486  1  -0.176661  0  -0.029499  -0.122874  0  4.000361  0
C  C124  1  0.45410395  0.27390587  0.31162833  1  -0.02654  0  -0.085734  -0.074161  0  4.017658  0
C  C125  1  0.54591039  0.72610340  0.68837037  1  -0.025888  0  -0.085678  -0.073914  0  4.017397  0
C  C126  1  0.42823338  0.19957568  0.33402954  1  0.011101  0  -0.097322  -0.177508  0  3.938309  0
C  C127  1  0.57175009  0.80044407  0.66597602  1  0.011803  0  -0.097407  -0.177948  0  3.938845  0
C  C128  1  0.13718501  0.46381051  0.22279579  1  0.289926  0  -0.064556  -0.163372  0  3.910083  0
C  C129  1  0.86281219  0.53617649  0.77718591  1  0.290201  0  -0.064499  -0.163154  0  3.90977  0
C  C130  1  0.04897321  0.48524940  0.14600281  1  1.603869  0  0.240814  0.668341  0  4.114894  0
C  C131  1  0.95100518  0.51474224  0.85398173  1  1.60355  0  0.240615  0.668024  0  4.115231  0
C  C132  1  0.51077777  0.78038911  0.17532323  1  -0.137974  0  -0.23757  -0.538656  0  3.896601  0
C  C133  1  0.48925331  0.21960400  0.82466326  1  -0.138172  0  -0.237801  -0.539009  0  3.896826  0
C  C134  1  0.53137719  0.85330438  0.13907072  1  1.348114  0  0.246969  0.585171  0  4.075069  0
C  C135  1  0.46862090  0.14668207  0.86091387  1  1.349397  0  0.24699  0.585137  0  4.07471  0
C  C136  1  0.63138564  0.00511174  0.18264471  1  0.320999  0  0.105563  0.257844  0  4.02651  0
C  C137  1  0.36860025  0.99488075  0.81735079  1  0.320285  0  0.105578  0.257698  0  4.026874  0
C  C138  1  0.69894200  0.07021702  0.25199183  1  0.033242  0  -0.089352  -0.178576  0  3.951967  0
C  C139  1  0.30107767  0.92977027  0.74800799  1  0.03381  0  -0.089274  -0.178301  0  3.951702  0
C  C140  1  0.75506575  0.14634584  0.24380215  1  -0.073039  0  -0.086983  -0.082783  0  3.996016  0
C  C141  1  0.24494941  0.85364166  0.75620395  1  -0.104857  0  -0.086913  -0.082818  0  3.996026  0
C  C142  1  0.74342130  0.15815790  0.16566196  1  -0.189265  0  -0.033247  -0.124575  0  4.033059  0
C  C143  1  0.25656932  0.84182732  0.83434485  1  -0.190478  0  -0.033091  -0.124392  0  4.033126  0
C  C144  1  0.67429343  0.09487125  0.09650064  1  -0.012912  0  -0.083788  -0.074299  0  4.009815  0
C  C145  1  0.32568499  0.90512835  0.90350033  1  -0.013413  0  -0.08384  -0.074262  0  4.009666  0
C  C146  1  0.61867661  0.01824911  0.10456018  1  -0.033541  0  -0.098202  -0.186607  0  3.944225  0
C  C147  1  0.38128126  0.98175617  0.89543556  1  -0.032126  0  -0.098235  -0.186585  0  3.944016  0
C  C148  1  0.53847207  0.30057463  0.11231803  1  0.238521  0  -0.064494  -0.157755  0  3.910389  0
C  C149  1  0.46153376  0.69942459  0.88767755  1  0.237639  0  -0.064469  -0.157662  0  3.910451  0
C  C150  1  0.49408938  0.37377159  0.07452571  1  1.617735  0  0.242009  0.678511  0  4.084851  0
C  C151  1  0.50593120  0.62621853  0.92546274  1  1.619103  0  0.242231  0.678678  0  4.084363  0
C  C152  1  0.04400517  0.96497791  0.23191805  1  0.471352  0  0.031241  0.076802  0  4.046499  0
C  C153  1  0.95600901  0.03501748  0.76810089  1  0.4709  0  0.031056  0.076848  0  4.047002  0
C  C154  1  0.06048065  0.03243743  0.19755558  1  0.008122  0  -0.088506  -0.178603  0  3.945105  0
C  C155  1  0.93953684  0.96756360  0.80246434  1  0.008243  0  -0.088421  -0.178551  0  3.944736  0
C  C156  1  0.14245953  0.02542296  0.13972371  1  -0.041764  0  0.005549  0.09779  0  3.979437  0
C  C157  1  0.85757220  0.97460223  0.86031316  1  -0.042854  0  0.005488  0.097568  0  3.979901  0
C  C158  1  0.20434470  0.94962553  0.12057600  1  -0.059804  0  -0.085987  -0.172343  0  3.934503  0
C  C159  1  0.79567860  0.05038799  0.87944426  1  0.005309  0  -0.086155  -0.172472  0  3.934864  0
C  C160  1  0.18104393  0.88570605  0.15819573  1  0.55618  0  0.040369  0.093409  0  3.995426  0
C  C161  1  0.81897842  0.11430656  0.84181334  1  0.492614  0  0.040529  0.093671  0  3.994649  0
C  C162  1  0.15214583  0.23843603  0.09155018  1  0.535835  0  0.046886  0.10481  0  3.95198  0
C  C163  1  0.84786183  0.76158066  0.90846620  1  0.535203  0  0.04699  0.105047  0  3.952352  0
C  C164  1  0.15255627  0.17812227  0.13608857  1  -0.023189  0  -0.086084  -0.178604  0  3.940386  0
C  C165  1  0.84749378  0.82189994  0.86393655  1  -0.023194  0  -0.086078  -0.178679  0  3.940755  0
C  C166  1  0.15474954  0.09322743  0.09784779  1  -0.052266  0  0.010647  0.103721  0  3.971042  0
C  C167  1  0.84527062  0.90679245  0.90217440  1  -0.053433  0  0.010643  0.104062  0  3.970995  0
C  C168  1  0.16174472  0.07466059  0.01634698  1  -0.005205  0  -0.086211  -0.17795  0  3.945972  0
C  C169  1  0.83830606  0.92536541  0.98367954  1  -0.004722  0  -0.08624  -0.178407  0  3.946046  0
C  C170  1  0.16216766  0.13931064  0.97684642  1  0.466775  0  0.045665  0.099627  0  3.973378  0
C  C171  1  0.83782648  0.86070358  0.02316702  1  0.468113  0  0.045649  0.099734  0  3.973325  0
S  S172  1  0.09865357  0.36302043  0.64865058  1  2.964028  0  0.545113  1.081979  0  5.966464  0
S  S173  1  0.90136503  0.63697750  0.35134769  1  2.964223  0  0.545032  1.081765  0  5.966934  0
S  S174  1  0.40583375  0.43540088  0.29881188  1  3.002346  0  0.563966  1.090173  0  5.969797  0
S  S175  1  0.59417189  0.56460271  0.70118279  1  3.003232  0  0.563885  1.09012  0  5.970233  0
S  S176  1  0.80882897  0.25626588  0.15489568  1  3.008457  0  0.566478  1.086411  0  5.983168  0
S  S177  1  0.19116712  0.74372345  0.84510236  1  3.008708  0  0.566277  1.086224  0  5.983566  0
N  N178  1  0.23530000  0.65295975  0.51619458  1  -1.249876  0  -0.394132  -0.386484  0  3.554125  0
N  N179  1  0.76470322  0.34704754  0.48379702  1  -1.250188  0  -0.394131  -0.386238  0  3.554493  0
N  N180  1  0.19976066  0.37934181  0.74229926  1  -1.34859  0  -0.467518  -0.474856  0  3.456246  0
N  N181  1  0.80024820  0.62065271  0.25770902  1  -1.348716  0  -0.467374  -0.474817  0  3.456266  0
N  N182  1  0.28081400  0.11827741  0.39539229  1  -1.245673  0  -0.393173  -0.384701  0  3.551098  0
N  N183  1  0.71916216  0.88173293  0.60461100  1  -1.245254  0  -0.39325  -0.384753  0  3.551147  0
N  N184  1  0.28326084  0.44288064  0.21919597  1  -1.406051  0  -0.457897  -0.464529  0  3.543213  0
N  N185  1  0.71673619  0.55711719  0.78079180  1  -1.405783  0  -0.457957  -0.464411  0  3.543055  0
N  N186  1  0.58165196  0.92920711  0.19556633  1  -1.270703  0  -0.397464  -0.397251  0  3.563756  0
N  N187  1  0.41833656  0.07077651  0.80442669  1  -1.270633  0  -0.39755  -0.397209  0  3.564026  0
N  N188  1  0.68445109  0.31881584  0.16716287  1  -1.379  0  -0.456485  -0.458384  0  3.532539  0
N  N189  1  0.31555927  0.68117822  0.83282892  1  -1.378631  0  -0.456477  -0.458442  0  3.532468  0
N  N190  1  0.10226182  0.89205272  0.21335929  1  -1.187634  0  -0.337008  -0.292054  0  3.31058  0
N  N191  1  0.89775161  0.10793659  0.78664347  1  -1.187833  0  -0.337056  -0.292152  0  3.310653  0
N  N192  1  0.15586434  0.22019928  0.01305716  1  -1.223745  0  -0.30012  -0.225761  0  3.384725  0
N  N193  1  0.84414012  0.77981737  0.98695648  1  -1.224829  0  -0.300099  -0.225693  0  3.384882  0
O  O194  1  0.17062619  0.64698949  0.02936641  1  -1.279188  0  -0.628454  -0.82264  0  2.020886  0
O  O195  1  0.82937014  0.35301100  0.97062636  1  -1.279208  0  -0.6285  -0.822548  0  2.021105  0
O  O196  1  0.09314417  0.34484201  0.93657887  1  -1.239885  0  -0.572117  -0.771742  0  2.131443  0
O  O197  1  0.90686315  0.65514195  0.06340940  1  -1.239739  0  -0.572162  -0.771833  0  2.131317  0
O  O198  1  0.34962637  0.40765488  0.89531899  1  -1.210097  0  -0.403861  -0.655974  0  2.335768  0
O  O199  1  0.65038144  0.59234871  0.10467656  1  -1.210226  0  -0.403796  -0.65593  0  2.336187  0
O  O200  1  0.56939160  0.42701899  0.87018722  1  -1.204393  0  -0.373967  -0.615711  0  2.241155  0
O  O201  1  0.43060173  0.57298275  0.12980480  1  -1.204216  0  -0.373981  -0.615809  0  2.240953  0
O  O202  1  0.94956941  0.36533045  0.65619104  1  -1.317941  0  -0.324132  -0.549309  0  2.177978  0
O  O203  1  0.05044516  0.63466868  0.34380402  1  -1.318035  0  -0.324113  -0.549186  0  2.178082  0
O  O204  1  0.14118354  0.28889855  0.59996136  1  -1.324998  0  -0.33765  -0.554329  0  2.124214  0
O  O205  1  0.85880304  0.71110118  0.40002359  1  -1.324745  0  -0.337597  -0.554254  0  2.124153  0
O  O206  1  0.12313235  0.76194701  0.57754916  1  -1.165348  0  -0.303433  -0.511466  0  2.138669  0
O  O207  1  0.87685488  0.23805088  0.42243782  1  -1.165597  0  -0.303406  -0.511462  0  2.13829  0
O  O208  1  0.10421941  0.48370411  0.08657825  1  -1.21845  0  -0.386949  -0.632735  0  2.292415  0
O  O209  1  0.89573654  0.51627008  0.91338031  1  -1.217911  0  -0.386779  -0.632393  0  2.292931  0
O  O210  1  0.91833881  0.50123339  0.14469505  1  -1.206484  0  -0.355738  -0.618756  0  2.238976  0
O  O211  1  0.08165989  0.49875852  0.85530615  1  -1.206412  0  -0.355802  -0.618762  0  2.238477  0
O  O212  1  0.54157885  0.42807008  0.27448624  1  -1.329011  0  -0.305259  -0.534244  0  2.260781  0
O  O213  1  0.45842281  0.57191832  0.72550209  1  -1.329314  0  -0.305175  -0.534258  0  2.260965  0
O  O214  1  0.39512158  0.50268830  0.36667121  1  -1.322564  0  -0.318007  -0.535669  0  2.160736  0
O  O215  1  0.60486839  0.49731850  0.63332131  1  -1.323097  0  -0.318005  -0.535693  0  2.160839  0
O  O216  1  0.46758240  0.03758669  0.37323359  1  -1.160047  0  -0.307273  -0.517541  0  2.08096  0
O  O217  1  0.53238054  0.96239539  0.62676414  1  -1.159076  0  -0.307177  -0.517466  0  2.081013  0
O  O218  1  0.36307436  0.39148443  0.06876605  1  -1.207306  0  -0.365418  -0.619448  0  2.315957  0
O  O219  1  0.63694626  0.60851782  0.93123047  1  -1.207582  0  -0.365559  -0.619614  0  2.316319  0
O  O220  1  0.58735834  0.41075058  0.04994469  1  -1.210755  0  -0.383681  -0.632111  0  2.303556  0
O  O221  1  0.41264779  0.58922779  0.95004521  1  -1.211369  0  -0.383817  -0.632268  0  2.30306  0
O  O222  1  0.93717223  0.29095621  0.22130914  1  -1.326595  0  -0.304782  -0.53455  0  2.242439  0
O  O223  1  0.06281435  0.70903594  0.77869728  1  -1.326833  0  -0.304675  -0.534457  0  2.24263  0
O  O224  1  0.81714503  0.24201499  0.07091502  1  -1.32255  0  -0.300813  -0.536683  0  2.237845  0
O  O225  1  0.18287002  0.75796614  0.92908755  1  -1.322413  0  -0.300739  -0.536657  0  2.237788  0
O  O226  1  0.51096487  0.84505683  0.06481010  1  -1.126119  0  -0.284364  -0.483323  0  2.135559  0
O  O227  1  0.48901103  0.15493362  0.93517615  1  -1.126736  0  -0.28424  -0.483181  0  2.135423  0
