# generated using pymatgen
data_AlH6C9O7
_symmetry_space_group_name_H-M   'P 1'
_cell_length_a   6.63912760
_cell_length_b   8.75502468
_cell_length_c   15.37870646
_cell_angle_alpha   77.27033583
_cell_angle_beta   78.03861956
_cell_angle_gamma   75.86943441
_symmetry_Int_Tables_number   1
_chemical_formula_structural   AlH6C9O7
_chemical_formula_sum   'Al2 H12 C18 O14'
_cell_volume   834.34274022
_cell_formula_units_Z   2
loop_
 _symmetry_equiv_pos_site_id
 _symmetry_equiv_pos_as_xyz
  1  'x, y, z'
loop_
 _atom_site_type_symbol
 _atom_site_label
 _atom_site_symmetry_multiplicity
 _atom_site_fract_x
 _atom_site_fract_y
 _atom_site_fract_z
 _atom_site_occupancy
 _atom_site_pbe_bader_charge
 _atom_site_pbe_bader_spin_density
 _atom_site_pbe_cm5_charge
 _atom_site_pbe_ddec_charge
 _atom_site_pbe_ddec_spin_density
 _atom_site_pbe_ddec_sum_bond_order
 _atom_site_pbe_magmom
Al  Al0  1  0.49980093  0.50023041  0.49996751  1  2.504512  0  0.398906  1.631431  0  2.599333  0
Al  Al1  1  0.99985969  0.50015498  0.49999273  1  2.504043  0  0.39665  1.638277  0  2.586541  0
H  H2  1  0.23536515  0.38747500  0.60919880  1  0.604485  0  0.355124  0.43035  0  0.853237  0
H  H3  1  0.76467297  0.61207068  0.39065981  1  0.605521  0  0.355362  0.430551  0  0.853461  0
H  H4  1  0.10730433  0.40434186  0.23760678  1  0.081541  0  0.110574  0.122546  0  1.007903  0
H  H5  1  0.89571335  0.59175838  0.76274784  1  0.081555  0  0.110665  0.122663  0  1.0079  0
H  H6  1  0.34198248  0.41112959  0.77816956  1  0.066059  0  0.103154  0.107067  0  1.009758  0
H  H7  1  0.26387264  0.40770287  0.94083056  1  0.125534  0  0.104026  0.119387  0  1.066524  0
H  H8  1  0.65404458  0.59414452  0.22137433  1  0.075244  0  0.102915  0.106044  0  1.009363  0
H  H9  1  0.73215715  0.59763223  0.05876733  1  0.130223  0  0.104536  0.117729  0  1.068769  0
H  H10  1  0.19266218  0.13526494  0.52230665  1  0.637752  0  0.315592  0.357665  0  0.951317  0
H  H11  1  0.80696458  0.86509597  0.47759852  1  0.63932  0  0.315917  0.358264  0  0.950144  0
H  H12  1  0.04407818  0.36040350  0.11622781  1  0.620043  0  0.339494  0.367677  0  0.873333  0
H  H13  1  0.96155189  0.63259402  0.88446154  1  0.612852  0  0.337662  0.365752  0  0.878249  0
C  C14  1  0.67884994  0.49823036  0.66068181  1  1.581176  0  0.273621  0.654053  0  4.066949  0
C  C15  1  0.83229358  0.21381412  0.50204723  1  1.539407  0  0.254508  0.597154  0  4.110738  0
C  C16  1  0.32066767  0.50224083  0.33928567  1  1.578165  0  0.273794  0.653831  0  4.067741  0
C  C17  1  0.16728362  0.78654011  0.49790294  1  1.54272  0  0.254502  0.596553  0  4.110335  0
C  C18  1  0.10096160  0.95765917  0.50486483  1  0.553328  0  0.05987  0.032444  0  4.072833  0
C  C19  1  0.89863991  0.04274412  0.49503329  1  0.618056  0  0.060227  0.032925  0  4.07262  0
C  C20  1  0.37442674  0.49925003  0.24090351  1  -0.050441  0  -0.017128  -0.015684  0  4.02752  0
C  C21  1  0.62506409  0.50141152  0.75904988  1  -0.035859  0  -0.016814  -0.014433  0  4.028957  0
C  C22  1  0.24651150  0.44610221  0.19770171  1  0.038724  0  -0.103284  -0.245179  0  4.002509  0
C  C23  1  0.29350774  0.44254617  0.10522580  1  0.396288  0  0.087775  0.26996  0  4.016278  0
C  C24  1  0.75505393  0.55192397  0.80248481  1  0.015358  0  -0.103503  -0.246159  0  4.000933  0
C  C25  1  0.70864464  0.55498596  0.89503516  1  0.421998  0  0.08838  0.271911  0  4.011323  0
C  C26  1  0.44493173  0.45210383  0.81064147  1  -0.017332  0  -0.100586  -0.128042  0  4.049258  0
C  C27  1  0.40117845  0.45146150  0.90288078  1  -0.059426  0  -0.100851  -0.13991  0  4.005186  0
C  C28  1  0.55272891  0.55104969  0.18911094  1  -0.087212  0  -0.100133  -0.125405  0  4.045781  0
C  C29  1  0.59657852  0.55169449  0.09686565  1  0.009155  0  -0.1008  -0.139036  0  4.004376  0
C  C30  1  0.47232482  0.49807651  0.04961450  1  0.019722  0  -0.008704  -0.007608  0  3.884578  0
C  C31  1  0.52775637  0.50213563  0.95040796  1  0.053884  0  -0.009009  -0.009138  0  3.887229  0
O  O32  1  0.53975365  0.47278511  0.62269717  1  -1.263925  0  -0.233015  -0.598018  0  2.344545  0
O  O33  1  0.97116978  0.28056280  0.51868843  1  -1.26623  0  -0.24206  -0.615699  0  2.398692  0
O  O34  1  0.13811124  0.48114012  0.37908618  1  -1.270374  0  -0.238227  -0.595345  0  2.328215  0
O  O35  1  0.35414919  0.71629591  0.50747310  1  -1.24829  0  -0.227444  -0.548101  0  2.346464  0
O  O36  1  0.45977572  0.52770817  0.37726540  1  -1.26188  0  -0.233122  -0.59805  0  2.345486  0
O  O37  1  0.02835499  0.71977277  0.48129105  1  -1.264987  0  -0.241769  -0.614721  0  2.398093  0
O  O38  1  0.86151596  0.51903471  0.62089325  1  -1.270957  0  -0.238205  -0.595428  0  2.328284  0
O  O39  1  0.64543219  0.28409233  0.49250449  1  -1.246228  0  -0.227314  -0.548129  0  2.346673  0
O  O40  1  0.25207274  0.42451336  0.54440972  1  -1.407902  0  -0.445841  -0.98277  0  2.191241  0
O  O41  1  0.74763428  0.57580793  0.45551800  1  -1.408732  0  -0.446229  -0.983082  0  2.19062  0
O  O42  1  0.25397944  0.01982496  0.52089883  1  -1.109629  0  -0.342397  -0.382949  0  2.352486  0
O  O43  1  0.74564024  0.98052985  0.47902382  1  -1.113203  0  -0.342844  -0.383773  0  2.351693  0
O  O44  1  0.16149899  0.38398279  0.06925276  1  -1.140271  0  -0.342221  -0.434299  0  2.344667  0
O  O45  1  0.84347514  0.61008044  0.93135725  1  -1.133787  0  -0.341754  -0.433277  0  2.346981  0
