# generated using pymatgen
data_NiH7C8S2N3O
_symmetry_space_group_name_H-M   'P 1'
_cell_length_a   7.86209508
_cell_length_b   8.04380331
_cell_length_c   9.40394852
_cell_angle_alpha   71.38642162
_cell_angle_beta   73.85776399
_cell_angle_gamma   71.59679251
_symmetry_Int_Tables_number   1
_chemical_formula_structural   NiH7C8S2N3O
_chemical_formula_sum   'Ni2 H14 C16 S4 N6 O2'
_cell_volume   524.29180231
_cell_formula_units_Z   2
loop_
 _symmetry_equiv_pos_site_id
 _symmetry_equiv_pos_as_xyz
  1  'x, y, z'
loop_
 _atom_site_type_symbol
 _atom_site_label
 _atom_site_symmetry_multiplicity
 _atom_site_fract_x
 _atom_site_fract_y
 _atom_site_fract_z
 _atom_site_occupancy
 _atom_site_hle17_ddec_charge
 _atom_site_hle17_ddec_spin_density
 _atom_site_hle17_ddec_sum_bond_order
 _atom_site_hle17_magmom
 _atom_site_hse06_10hf_ddec_charge
 _atom_site_hse06_10hf_ddec_spin_density
 _atom_site_hse06_10hf_ddec_sum_bond_order
 _atom_site_hse06_10hf_magmom
 _atom_site_hse06_ddec_charge
 _atom_site_hse06_ddec_spin_density
 _atom_site_hse06_ddec_sum_bond_order
 _atom_site_hse06_magmom
 _atom_site_pbe_cm5_charge
 _atom_site_pbe_ddec_charge
 _atom_site_pbe_ddec_spin_density
 _atom_site_pbe_ddec_sum_bond_order
 _atom_site_pbe_magmom
Ni  Ni0  1  0.96730758  0.84370635  0.58431453  1  0.714189  1.582608  2.354943  1.32  0.774188  1.697005  2.744369  1.489  0.884566  1.823863  2.648737  1.631  0.57301  0.695227  1.541608  2.813339  1.332
Ni  Ni1  1  0.21914231  0.11163475  0.61197061  1  0.715627  -1.582743  2.351959  -1.32  0.77552  -1.697132  2.741166  -1.489  0.886112  -1.823966  2.645163  -1.632  0.573231  0.696503  -1.541947  2.810196  -1.332
H  H2  1  0.40369692  0.65179523  0.63571940  1  0.10872  -9e-05  0.975365  0.0  0.11605  -0.000117  1.039533  0.0  0.118721  -8.1e-05  1.037786  0.0  0.123087  0.114015  -0.000151  1.04092  0.0
H  H3  1  0.78538197  0.30666392  0.56194415  1  0.107868  7e-05  0.978188  0.0  0.115418  0.000104  1.042151  0.0  0.118045  7.3e-05  1.04049  0.0  0.12257  0.113418  0.000134  1.043495  0.0
H  H4  1  0.04862940  0.81775160  0.00783126  1  0.120571  0.000322  0.913587  0.0  0.131611  0.000217  0.970616  0.0  0.135563  0.00015  0.966195  0.0  0.134238  0.128472  0.00027  0.974256  0.0
H  H5  1  0.12906586  0.13223967  0.18954155  1  0.115991  -0.000346  0.919967  0.0  0.125999  -0.000227  0.979714  0.0  0.130143  -0.000156  0.974701  0.0  0.131895  0.122672  -0.000281  0.983866  0.0
H  H6  1  0.97294420  0.40055201  0.00401044  1  0.114165  -5.2e-05  0.981122  0.0  0.121666  -0.00016  1.043196  0.0  0.124496  -0.000119  1.043004  0.0  0.104558  0.119607  -0.00019  1.043529  0.0
H  H7  1  0.20808700  0.55262204  0.19376419  1  0.11534  2.9e-05  0.976414  0.0  0.123206  0.000129  1.037906  0.0  0.125946  9.7e-05  1.037781  0.0  0.10486  0.121162  0.000153  1.038269  0.0
H  H8  1  0.50029787  0.30049971  0.22880244  1  0.12943  3.9e-05  0.948589  0.0  0.148594  5.9e-05  1.00809  0.0  0.149259  5.2e-05  1.009767  0.0  0.09513  0.14821  5.6e-05  1.00684  0.0
H  H9  1  0.64489338  0.22307730  0.06612515  1  0.111736  -0.000604  0.965339  0.0  0.127775  -0.00052  1.035109  0.0  0.130092  -0.000388  1.034333  0.0  0.085646  0.126034  -0.000633  1.035716  0.0
H  H10  1  0.43340244  0.16503927  0.15074662  1  0.122655  -0.000407  0.932087  0.0  0.143584  -0.000349  0.993446  0.0  0.145215  -0.000256  0.99269  0.0  0.096341  0.142476  -0.000435  0.993962  0.0
H  H11  1  0.61057701  0.58391402  0.39187398  1  0.109595  0.000776  0.974341  0.0  0.11802  0.000719  1.035886  0.0  0.121239  0.000531  1.034871  0.0  0.101005  0.115643  0.000867  1.036886  0.0
H  H12  1  0.58140424  0.37723583  0.80619687  1  0.110611  -0.000809  0.977415  0.0  0.119727  -0.000752  1.037733  0.0  0.122944  -0.000557  1.036766  0.0  0.101849  0.117271  -0.000905  1.038815  0.0
H  H13  1  0.54517286  0.68594445  0.08488302  1  0.115372  0.000422  0.96516  0.0  0.132818  0.000338  1.034165  0.0  0.133991  0.000259  1.035138  0.0  0.088989  0.131964  0.000425  1.033505  0.0
H  H14  1  0.75819690  0.69913596  0.95809323  1  0.132161  -0.000167  0.959025  0.0  0.148764  -0.000112  1.02075  0.0  0.149959  -8.8e-05  1.021407  0.0  0.093791  0.14798  -0.000135  1.020269  0.0
H  H15  1  0.67971911  0.80688911  0.11216928  1  0.118161  0.000713  0.938919  0.0  0.13933  0.000672  0.999448  0.0  0.141617  0.000497  0.998229  0.0  0.092021  0.137622  0.000805  1.000393  0.0
C  C16  1  0.60393917  0.93305853  0.44861736  1  0.28694  -0.011578  3.925365  -0.023  0.300361  -0.003526  4.226954  -0.014  0.331737  -0.003014  4.241421  -0.012  0.153784  0.277163  -0.003665  4.217651  -0.014
C  C17  1  0.77946774  0.51866086  0.18219444  1  0.201234  0.004429  3.704664  0.005  0.218763  0.001705  3.941535  0.002  0.225295  0.001271  3.962423  0.001  0.016212  0.214725  0.002345  3.926997  0.002
C  C18  1  0.40789382  0.43891944  0.01555518  1  0.20086  -0.003884  3.710502  -0.004  0.218207  -0.001401  3.947325  -0.001  0.224739  -0.001041  3.968071  -0.001  0.015507  0.214165  -0.001962  3.932871  -0.002
C  C19  1  0.94404197  0.44852821  0.74058872  1  0.278671  0.003405  3.946503  0.012  0.286326  0.000744  4.24864  0.009  0.315752  0.000547  4.262214  0.008  0.156679  0.264665  0.000715  4.239422  0.01
C  C20  1  0.24322683  0.50657489  0.45612124  1  0.277998  -0.003538  3.949652  -0.012  0.285647  -0.000777  4.252875  -0.009  0.315181  -0.000556  4.266431  -0.008  0.156806  0.263902  -0.000769  4.243617  -0.01
C  C21  1  0.37056415  0.61884036  0.75988701  1  0.049659  -0.003343  3.584359  -0.004  0.004616  -0.001321  3.844747  -0.002  0.011165  -0.001017  3.85912  -0.001  0.051228  0.000753  -0.00189  3.835108  -0.002
C  C22  1  0.81650395  0.33823812  0.43782442  1  0.047652  0.003676  3.587395  0.004  0.00303  0.001527  3.84696  0.002  0.009301  0.0012  3.861577  0.001  0.050732  -0.000678  0.002098  3.837237  0.002
C  C23  1  0.16654919  0.71424221  0.97249674  1  0.035924  -0.003201  3.609938  -0.004  -0.006698  -0.000964  3.872957  -0.001  0.002327  -0.000781  3.882194  -0.001  0.049637  -0.012564  -0.001245  3.867395  -0.002
C  C24  1  0.01432269  0.23814251  0.22511318  1  0.037445  0.003685  3.611935  0.004  -0.005635  0.001222  3.8746  0.002  0.00377  0.000981  3.883745  0.001  0.050048  -0.011733  0.001594  3.869053  0.002
C  C25  1  0.92536772  0.38714515  0.12631507  1  -0.165313  -0.002656  3.732683  -0.003  -0.179393  -0.000836  3.977353  -0.001  -0.187592  -0.000803  3.998306  -0.001  -0.080927  -0.174321  -0.000891  3.963534  -0.001
C  C26  1  0.25704804  0.56689220  0.07144054  1  -0.166426  0.002323  3.737143  0.003  -0.180831  0.00068  3.983227  0.001  -0.188477  0.000658  4.003309  0.001  -0.079828  -0.176149  0.000727  3.970093  0.001
C  C27  1  0.50302983  0.27449665  0.12058444  1  -0.348298  -0.000303  3.693703  0.0  -0.426512  -0.000554  3.927249  -0.001  -0.429641  -0.000397  3.934721  0.0  -0.241723  -0.424101  -0.000696  3.921857  -0.001
C  C28  1  0.72512424  0.48799928  0.34175371  1  -0.147496  -0.001735  3.709403  -0.002  -0.161228  0.000247  3.952644  0.0  -0.168156  -1.3e-05  3.972314  0.0  -0.078127  -0.157107  0.00044  3.939755  0.0
C  C29  1  0.46349016  0.47038116  0.85620699  1  -0.147422  0.001401  3.706891  0.002  -0.160279  -0.000378  3.946808  0.0  -0.167463  -0.000121  3.966762  0.0  -0.077018  -0.155897  -0.000565  3.933686  0.0
C  C30  1  0.58215799  0.02305860  0.74723856  1  0.290318  0.011668  3.921808  0.023  0.304743  0.003432  4.221498  0.013  0.336157  0.002908  4.236181  0.011  0.154469  0.281545  0.003568  4.211959  0.014
C  C31  1  0.68726913  0.68584675  0.07769585  1  -0.351887  0.000154  3.693004  0.0  -0.428582  0.000455  3.924039  0.0  -0.431603  0.000328  3.931082  0.0  -0.241668  -0.426192  0.000576  3.918918  0.0
S  S32  1  0.24265403  0.72062947  0.41120256  1  -0.248314  0.063994  2.309604  0.075  -0.271574  0.039326  2.660844  0.045  -0.301408  0.029129  2.649606  0.034  -0.10069  -0.248343  0.046666  2.66855  0.052
S  S33  1  0.36287511  0.09320069  0.81168707  1  -0.287294  -0.083321  2.290974  -0.099  -0.325722  -0.048392  2.635831  -0.057  -0.368555  -0.034132  2.630979  -0.04  -0.132232  -0.294019  -0.056997  2.639614  -0.065
S  S34  1  0.94492586  0.23440388  0.78554775  1  -0.248075  -0.063062  2.325655  -0.074  -0.270278  -0.038935  2.67826  -0.045  -0.299415  -0.028874  2.666061  -0.033  -0.096775  -0.247584  -0.046112  2.686598  -0.052
S  S35  1  0.82334351  0.86260437  0.38456761  1  -0.290133  0.081561  2.303341  0.097  -0.328234  0.047511  2.652399  0.056  -0.37078  0.033513  2.647393  0.04  -0.129958  -0.296659  0.056057  2.656267  0.064
N  N36  1  0.44516383  0.98081472  0.49497951  1  -0.461046  0.000479  3.027929  0.0  -0.460126  -0.011375  3.324348  -0.015  -0.496401  -0.012176  3.327859  -0.016  -0.376777  -0.435287  -0.009811  3.322782  -0.013
N  N37  1  0.24343673  0.35206154  0.48779272  1  -0.48029  -0.013698  3.069782  -0.02  -0.474507  -0.015308  3.367891  -0.02  -0.511034  -0.014569  3.372341  -0.019  -0.389035  -0.448964  -0.014923  3.36568  -0.02
N  N38  1  0.94327744  0.60323024  0.70875405  1  -0.480721  0.013612  3.074542  0.02  -0.47429  0.015148  3.371998  0.02  -0.510596  0.014413  3.376411  0.019  -0.387869  -0.448958  0.014772  3.369859  0.019
N  N39  1  0.96235133  0.21909976  0.37821865  1  0.249008  -0.002538  3.655093  -0.004  0.302375  -0.001138  3.926181  -0.002  0.302126  -0.001203  3.950068  -0.002  -0.118712  0.30106  -0.000986  3.909886  -0.002
N  N40  1  0.22199650  0.73558397  0.81916431  1  0.248359  0.002244  3.659855  0.004  0.300974  0.000952  3.932068  0.002  0.300732  0.001014  3.955993  0.002  -0.117913  0.299662  0.000807  3.915769  0.001
N  N41  1  0.74088810  0.97527954  0.70065287  1  -0.462812  -0.000711  3.030024  0.0  -0.46168  0.011517  3.32454  0.015  -0.498199  0.012368  3.328237  0.016  -0.376978  -0.436709  0.009926  3.322945  0.013
O  O42  1  0.12720076  0.87620978  0.72589702  1  -0.490627  -0.009786  2.052772  -0.015  -0.485641  -0.001358  2.351776  -0.002  -0.533183  -0.000785  2.354117  -0.001  -0.225261  -0.450136  -0.002846  2.349996  -0.004
O  O43  1  0.05818344  0.07890485  0.47109403  1  -0.490106  0.010964  2.051968  0.017  -0.486103  0.001925  2.351282  0.003  -0.533693  0.001244  2.35347  0.002  -0.225835  -0.450513  0.003427  2.349554  0.005
