# generated using pymatgen
data_AgH3C5O3
_symmetry_space_group_name_H-M   'P 1'
_cell_length_a   4.40635615
_cell_length_b   6.08623137
_cell_length_c   23.63185978
_cell_angle_alpha   90.00196643
_cell_angle_beta   89.99703456
_cell_angle_gamma   119.15334384
_symmetry_Int_Tables_number   1
_chemical_formula_structural   AgH3C5O3
_chemical_formula_sum   'Ag4 H12 C20 O12'
_cell_volume   553.47612384
_cell_formula_units_Z   4
loop_
 _symmetry_equiv_pos_site_id
 _symmetry_equiv_pos_as_xyz
  1  'x, y, z'
loop_
 _atom_site_type_symbol
 _atom_site_label
 _atom_site_symmetry_multiplicity
 _atom_site_fract_x
 _atom_site_fract_y
 _atom_site_fract_z
 _atom_site_occupancy
 _atom_site_hle17_bader_spin_density
 _atom_site_hle17_ddec_charge
 _atom_site_hle17_ddec_spin_density
 _atom_site_hle17_ddec_sum_bond_order
 _atom_site_hle17_magmom
 _atom_site_hse06_10hf_bader_spin_density
 _atom_site_hse06_10hf_ddec_charge
 _atom_site_hse06_10hf_ddec_spin_density
 _atom_site_hse06_10hf_ddec_sum_bond_order
 _atom_site_hse06_10hf_magmom
 _atom_site_hse06_bader_spin_density
 _atom_site_hse06_ddec_charge
 _atom_site_hse06_ddec_spin_density
 _atom_site_hse06_ddec_sum_bond_order
 _atom_site_hse06_magmom
 _atom_site_pbe_bader_spin_density
 _atom_site_pbe_cm5_charge
 _atom_site_pbe_ddec_charge
 _atom_site_pbe_ddec_spin_density
 _atom_site_pbe_ddec_sum_bond_order
 _atom_site_pbe_magmom
Ag  Ag0  1  0.85711349  0.14225771  0.52451512  1  0  0.577353  0  1.41919  0  0  0.44592  0  1.914847  0  0  0.485615  0  1.843756  0  0  0.407233  0.418195  0  1.964178  0
Ag  Ag1  1  0.64288661  0.35774406  0.02450293  1  0  0.577229  0  1.41938  0  0  0.445778  0  1.915111  0  0  0.48547  0  1.844023  0  0  0.407144  0.418056  0  1.964441  0
Ag  Ag2  1  0.14283932  0.85770546  0.47548863  1  0  0.577298  0  1.419151  0  0  0.445817  0  1.914801  0  0  0.485521  0  1.843706  0  0  0.407171  0.418083  0  1.964133  0
Ag  Ag3  1  0.35721116  0.64233005  0.97548517  1  0  0.577284  0  1.419072  0  0  0.445841  0  1.914695  0  0  0.485542  0  1.843605  0  0  0.407208  0.418108  0  1.964025  0
H  H4  1  0.20631868  0.54708480  0.67968246  1  0  0.12153  0  0.951204  0  0  0.134912  0  1.005964  0  0  0.137405  0  1.004644  0  0  0.111311  0.133062  0  1.00702  0
H  H5  1  0.29359013  0.95287469  0.17967604  1  0  0.121572  0  0.951275  0  0  0.134881  0  1.006122  0  0  0.137393  0  1.004772  0  0  0.111301  0.133037  0  1.007181  0
H  H6  1  0.79364290  0.45290045  0.32032426  1  0  0.12161  0  0.951331  0  0  0.134935  0  1.006157  0  0  0.137444  0  1.004788  0  0  0.111316  0.133088  0  1.007212  0
H  H7  1  0.70636754  0.04708901  0.82030952  1  0  0.121636  0  0.951241  0  0  0.135031  0  1.005973  0  0  0.137514  0  1.004642  0  0  0.111358  0.133181  0  1.007026  0
H  H8  1  0.10988756  0.12911443  0.73859155  1  0  0.112021  0  0.997081  0  0  0.122347  0  1.058316  0  0  0.124898  0  1.058558  0  0  0.099506  0.120523  0  1.058227  0
H  H9  1  0.39008929  0.37086579  0.23859495  1  0  0.112098  0  0.996985  0  0  0.12243  0  1.058231  0  0  0.124939  0  1.058519  0  0  0.099518  0.120632  0  1.058108  0
H  H10  1  0.89015070  0.87090035  0.26141559  1  0  0.112082  0  0.997059  0  0  0.122418  0  1.05829  0  0  0.124953  0  1.058548  0  0  0.099488  0.120594  0  1.058199  0
H  H11  1  0.60994768  0.62907316  0.76140924  1  0  0.111983  0  0.99715  0  0  0.122397  0  1.058285  0  0  0.124919  0  1.058567  0  0  0.099477  0.120576  0  1.058187  0
H  H12  1  0.45192599  0.93608299  0.67389324  1  0  0.100248  0  0.970487  0  0  0.106431  0  1.034635  0  0  0.109127  0  1.032138  0  0  0.119768  0.104464  0  1.036439  0
H  H13  1  0.04809487  0.56393047  0.17390248  1  0  0.100226  0  0.970439  0  0  0.106443  0  1.034553  0  0  0.109136  0  1.032064  0  0  0.11977  0.104476  0  1.036358  0
H  H14  1  0.54801806  0.06388097  0.32610882  1  0  0.100224  0  0.970558  0  0  0.106439  0  1.034654  0  0  0.109133  0  1.03216  0  0  0.119785  0.104453  0  1.036481  0
H  H15  1  0.95199246  0.43610906  0.82611736  1  0  0.100265  0  0.970396  0  0  0.106494  0  1.034508  0  0  0.109188  0  1.032008  0  0  0.119842  0.104527  0  1.036314  0
C  C16  1  0.25204628  0.20220093  0.69944979  1  0  -0.184637  0  3.812962  0  0  -0.200236  0  4.069627  0  0  -0.207784  0  4.090968  0  0  -0.126458  -0.195193  0  4.055042  0
C  C17  1  0.24796009  0.29779983  0.19945087  1  0  -0.184828  0  3.812722  0  0  -0.200435  0  4.069429  0  0  -0.20795  0  4.090811  0  0  -0.126507  -0.195409  0  4.054821  0
C  C18  1  0.74799049  0.79781545  0.30055989  1  0  -0.18481  0  3.813154  0  0  -0.200435  0  4.069811  0  0  -0.207971  0  4.091165  0  0  -0.126506  -0.195393  0  4.055226  0
C  C19  1  0.75206213  0.70219207  0.80055543  1  0  -0.184846  0  3.812879  0  0  -0.200504  0  4.069518  0  0  -0.208033  0  4.090875  0  0  -0.126481  -0.195462  0  4.054939  0
C  C20  1  0.50549136  0.44027236  0.62263617  1  0  0.05997  0  3.692361  0  0  0.053592  0  3.964273  0  0  0.053697  0  3.977497  0  0  0.054533  0.053246  0  3.955586  0
C  C21  1  0.99451686  0.05972050  0.12263304  1  0  0.059977  0  3.692526  0  0  0.053654  0  3.964246  0  0  0.053749  0  3.977481  0  0  0.054553  0.053318  0  3.955548  0
C  C22  1  0.49439131  0.55967432  0.37735870  1  0  0.05944  0  3.692651  0  0  0.053267  0  3.964525  0  0  0.053371  0  3.977759  0  0  0.054368  0.052931  0  3.955818  0
C  C23  1  0.00551114  0.94029668  0.87736394  1  0  0.059947  0  3.692557  0  0  0.053585  0  3.964455  0  0  0.053682  0  3.977689  0  0  0.054547  0.053259  0  3.955738  0
C  C24  1  0.30812208  0.42192205  0.66934169  1  0  -0.138265  0  3.758426  0  0  -0.171599  0  4.022448  0  0  -0.169657  0  4.038551  0  0  -0.107543  -0.172598  0  4.011504  0
C  C25  1  0.19190881  0.07809255  0.16933392  1  0  -0.138253  0  3.75839  0  0  -0.171604  0  4.022481  0  0  -0.169668  0  4.038567  0  0  -0.107502  -0.172621  0  4.011551  0
C  C26  1  0.69187831  0.57806746  0.33066165  1  0  -0.138236  0  3.758387  0  0  -0.171531  0  4.022371  0  0  -0.169579  0  4.038482  0  0  -0.107511  -0.172542  0  4.011432  0
C  C27  1  0.80811621  0.92190493  0.83065884  1  0  -0.138338  0  3.758769  0  0  -0.171707  0  4.022805  0  0  -0.169741  0  4.038946  0  0  -0.107595  -0.172712  0  4.011852  0
C  C28  1  0.41636531  0.09888954  0.66914480  1  0  0.10669  0  3.604254  0  0  0.070978  0  3.862282  0  0  0.080279  0  3.875611  0  0  -0.000202  0.064979  0  3.85313  0
C  C29  1  0.08360932  0.40109952  0.16915377  1  0  0.106819  0  3.604106  0  0  0.071029  0  3.862119  0  0  0.080323  0  3.875448  0  0  -0.000196  0.065028  0  3.852972  0
C  C30  1  0.58361176  0.90109917  0.33085473  1  0  0.106712  0  3.60419  0  0  0.071155  0  3.862181  0  0  0.080458  0  3.875514  0  0  -0.000205  0.065167  0  3.853041  0
C  C31  1  0.91647148  0.59892697  0.83085675  1  0  0.106878  0  3.603888  0  0  0.071113  0  3.861945  0  0  0.080421  0  3.875266  0  0  -0.000246  0.065111  0  3.852799  0
C  C32  1  0.66904536  0.62898540  0.57754716  1  0  0.599011  0  3.989161  0  0  0.547397  0  4.269942  0  0  0.583292  0  4.266389  0  0  0.197259  0.523009  0  4.271459  0
C  C33  1  0.83095113  0.87104706  0.07753598  1  0  0.599005  0  3.98861  0  0  0.547407  0  4.269381  0  0  0.583306  0  4.265831  0  0  0.19729  0.523016  0  4.270893  0
C  C34  1  0.33084476  0.37097618  0.42245406  1  0  0.599553  0  3.988749  0  0  0.547929  0  4.269518  0  0  0.583823  0  4.265963  0  0  0.197617  0.523537  0  4.271031  0
C  C35  1  0.16911472  0.12906404  0.92245001  1  0  0.599204  0  3.98882  0  0  0.547603  0  4.269588  0  0  0.583503  0  4.266039  0  0  0.197441  0.523206  0  4.271101  0
O  O36  1  0.56989547  0.24045107  0.62240538  1  0  -0.178139  0  2.507505  0  0  -0.096858  0  2.740432  0  0  -0.115312  0  2.74877  0  0  -0.119085  -0.084438  0  2.734826  0
O  O37  1  0.93009363  0.25953086  0.12241444  1  0  -0.17823  0  2.507724  0  0  -0.096819  0  2.74054  0  0  -0.11525  0  2.748854  0  0  -0.119092  -0.084401  0  2.734929  0
O  O38  1  0.42999261  0.75949268  0.37758653  1  0  -0.177811  0  2.507773  0  0  -0.096884  0  2.740895  0  0  -0.115348  0  2.749242  0  0  -0.11902  -0.084461  0  2.735274  0
O  O39  1  0.06997429  0.74052942  0.87758720  1  0  -0.178149  0  2.508336  0  0  -0.09686  0  2.741293  0  0  -0.115304  0  2.749622  0  0  -0.119104  -0.084446  0  2.735677  0
O  O40  1  0.63391067  0.82389871  0.58226843  1  0  -0.593699  0  2.135669  0  0  -0.516627  0  2.407141  0  0  -0.550755  0  2.398673  0  0  -0.318659  -0.492963  0  2.412129  0
O  O41  1  0.86606042  0.67607333  0.08226889  1  0  -0.593805  0  2.134814  0  0  -0.516732  0  2.406263  0  0  -0.550876  0  2.3978  0  0  -0.318756  -0.493063  0  2.411252  0
O  O42  1  0.36599308  0.17606259  0.41772898  1  0  -0.593749  0  2.135335  0  0  -0.516657  0  2.406811  0  0  -0.55079  0  2.398341  0  0  -0.318703  -0.49299  0  2.411795  0
O  O43  1  0.13395284  0.32395103  0.91772344  1  0  -0.593628  0  2.135628  0  0  -0.516562  0  2.407114  0  0  -0.550687  0  2.398641  0  0  -0.31872  -0.492905  0  2.412106  0
O  O44  1  0.83302755  0.58085513  0.53941346  1  0  -0.582081  0  2.16735  0  0  -0.496217  0  2.443727  0  0  -0.530771  0  2.432817  0  0  -0.317641  -0.472239  0  2.450456  0
O  O45  1  0.66700963  0.91915695  0.03940526  1  0  -0.581799  0  2.167295  0  0  -0.496029  0  2.443749  0  0  -0.530579  0  2.432844  0  0  -0.317576  -0.472056  0  2.450477  0
O  O46  1  0.16689336  0.41909926  0.46058988  1  0  -0.582293  0  2.167343  0  0  -0.496484  0  2.443775  0  0  -0.531036  0  2.432859  0  0  -0.317813  -0.47251  0  2.450511  0
O  O47  1  0.33311819  0.08092222  0.96058792  1  0  -0.582267  0  2.167261  0  0  -0.496445  0  2.443696  0  0  -0.531013  0  2.432789  0  0  -0.31768  -0.472462  0  2.450425  0
