# generated using pymatgen
data_HgH8(C3N2)3
_symmetry_space_group_name_H-M   'P 1'
_cell_length_a   9.20323845
_cell_length_b   9.20041538
_cell_length_c   14.73920796
_cell_angle_alpha   101.68262851
_cell_angle_beta   108.17428951
_cell_angle_gamma   100.13253949
_symmetry_Int_Tables_number   1
_chemical_formula_structural   HgH8(C3N2)3
_chemical_formula_sum   'Hg4 H32 C36 N24'
_cell_volume   1122.20595248
_cell_formula_units_Z   4
loop_
 _symmetry_equiv_pos_site_id
 _symmetry_equiv_pos_as_xyz
  1  'x, y, z'
loop_
 _atom_site_type_symbol
 _atom_site_label
 _atom_site_symmetry_multiplicity
 _atom_site_fract_x
 _atom_site_fract_y
 _atom_site_fract_z
 _atom_site_occupancy
 _atom_site_hle17_bader_spin_density
 _atom_site_hle17_ddec_charge
 _atom_site_hle17_ddec_spin_density
 _atom_site_hle17_ddec_sum_bond_order
 _atom_site_hle17_magmom
 _atom_site_hse06_10hf_bader_spin_density
 _atom_site_hse06_10hf_ddec_charge
 _atom_site_hse06_10hf_ddec_spin_density
 _atom_site_hse06_10hf_ddec_sum_bond_order
 _atom_site_hse06_10hf_magmom
 _atom_site_hse06_bader_spin_density
 _atom_site_hse06_ddec_charge
 _atom_site_hse06_ddec_spin_density
 _atom_site_hse06_ddec_sum_bond_order
 _atom_site_hse06_magmom
 _atom_site_pbe_bader_spin_density
 _atom_site_pbe_cm5_charge
 _atom_site_pbe_ddec_charge
 _atom_site_pbe_ddec_spin_density
 _atom_site_pbe_ddec_sum_bond_order
 _atom_site_pbe_magmom
Hg  Hg0  1  0.31435489  0.78296139  0.85648589  1  0  0.643998  0  2.354575  0  0  0.487953  0  2.8249  0  0  0.523686  0  2.797119  0  0  0.553216  0.463691  0  2.843516  0
Hg  Hg1  1  0.42645814  0.45814533  0.64343383  1  0  0.642501  0  2.35563  0  0  0.486353  0  2.825692  0  0  0.522067  0  2.797998  0  0  0.552664  0.462106  0  2.844238  0
Hg  Hg2  1  0.68564823  0.21703704  0.14351447  1  0  0.644016  0  2.354588  0  0  0.487963  0  2.824926  0  0  0.5237  0  2.797137  0  0  0.553237  0.463703  0  2.843547  0
Hg  Hg3  1  0.57353072  0.54183817  0.35656389  1  0  0.642555  0  2.355692  0  0  0.486432  0  2.82575  0  0  0.522145  0  2.79806  0  0  0.552643  0.462183  0  2.844297  0
H  H4  1  0.87429242  0.25594811  0.96923436  1  0  0.09061  0  0.924726  0  0  0.099751  0  0.99322  0  0  0.100249  0  0.9929  0  0  0.128378  0.099297  0  0.993588  0
H  H5  1  0.78681421  0.90537610  0.53074432  1  0  0.090462  0  0.924296  0  0  0.099421  0  0.992878  0  0  0.099958  0  0.992558  0  0  0.128174  0.098929  0  0.993244  0
H  H6  1  0.12571725  0.74406640  0.03076730  1  0  0.090691  0  0.924566  0  0  0.09978  0  0.993119  0  0  0.100281  0  0.992792  0  0  0.128378  0.099328  0  0.993485  0
H  H7  1  0.21319416  0.09462921  0.46926201  1  0  0.090419  0  0.924346  0  0  0.099411  0  0.992865  0  0  0.099951  0  0.992544  0  0  0.128176  0.098923  0  0.993225  0
H  H8  1  0.08428124  0.31255606  0.03546778  1  0  0.098094  0  0.942152  0  0  0.106191  0  1.012281  0  0  0.107262  0  1.011583  0  0  0.131254  0.105295  0  1.012987  0
H  H9  1  0.77706250  0.04923728  0.46454220  1  0  0.09894  0  0.941321  0  0  0.107177  0  1.011116  0  0  0.108246  0  1.010481  0  0  0.131587  0.106278  0  1.011785  0
H  H10  1  0.91573066  0.68745387  0.96452762  1  0  0.097994  0  0.942245  0  0  0.106084  0  1.012406  0  0  0.107147  0  1.011703  0  0  0.131252  0.10519  0  1.013104  0
H  H11  1  0.22293671  0.95076803  0.53546235  1  0  0.09896  0  0.941182  0  0  0.107088  0  1.011069  0  0  0.108202  0  1.010377  0  0  0.131562  0.106157  0  1.011764  0
H  H12  1  0.25635700  0.48696093  0.97927690  1  0  0.104955  0  0.949199  0  0  0.112668  0  1.014551  0  0  0.115389  0  1.011314  0  0  0.131986  0.110686  0  1.016831  0
H  H13  1  0.00775122  0.27744169  0.52063549  1  0  0.105403  0  0.950081  0  0  0.113884  0  1.014477  0  0  0.116599  0  1.011261  0  0  0.132249  0.11189  0  1.016771  0
H  H14  1  0.74364522  0.51303408  0.02071268  1  0  0.105011  0  0.949192  0  0  0.112705  0  1.014547  0  0  0.115428  0  1.011308  0  0  0.131998  0.110723  0  1.016828  0
H  H15  1  0.99223535  0.72255905  0.47936261  1  0  0.105382  0  0.950009  0  0  0.113873  0  1.014396  0  0  0.116529  0  1.011244  0  0  0.132259  0.111878  0  1.016698  0
H  H16  1  0.92322929  0.51782809  0.71540952  1  0  0.107295  0  0.972354  0  0  0.115701  0  1.035022  0  0  0.118135  0  1.03376  0  0  0.110916  0.113915  0  1.036088  0
H  H17  1  0.30232018  0.20806544  0.78452354  1  0  0.108625  0  0.971057  0  0  0.117086  0  1.033486  0  0  0.119464  0  1.03229  0  0  0.111639  0.115303  0  1.034544  0
H  H18  1  0.07676751  0.48216806  0.28458254  1  0  0.107458  0  0.972231  0  0  0.115765  0  1.035044  0  0  0.118198  0  1.033788  0  0  0.110901  0.113978  0  1.0361  0
H  H19  1  0.69769386  0.79195254  0.21547195  1  0  0.108599  0  0.971124  0  0  0.117023  0  1.033588  0  0  0.119431  0  1.032355  0  0  0.111612  0.115238  0  1.034643  0
H  H20  1  0.77748784  0.30044105  0.78807159  1  0  0.113929  0  0.98548  0  0  0.122127  0  1.050306  0  0  0.124224  0  1.050392  0  0  0.117374  0.120612  0  1.050326  0
H  H21  1  0.01223745  0.98988227  0.71198049  1  0  0.114518  0  0.986452  0  0  0.123271  0  1.050452  0  0  0.125365  0  1.05054  0  0  0.11826  0.121751  0  1.050482  0
H  H22  1  0.22250994  0.69956313  0.21192914  1  0  0.113896  0  0.98558  0  0  0.122114  0  1.050371  0  0  0.124208  0  1.050465  0  0  0.117376  0.120596  0  1.050394  0
H  H23  1  0.98777168  0.01013452  0.28802678  1  0  0.114512  0  0.986513  0  0  0.123268  0  1.050507  0  0  0.125361  0  1.050598  0  0  0.118234  0.121747  0  1.050535  0
H  H24  1  0.25152262  0.14334325  0.96643456  1  0  0.09778  0  0.956082  0  0  0.104361  0  1.026975  0  0  0.1063  0  1.02458  0  0  0.130172  0.102955  0  1.028596  0
H  H25  1  0.67713409  0.28552658  0.53371988  1  0  0.098418  0  0.955236  0  0  0.104971  0  1.026107  0  0  0.106887  0  1.023777  0  0  0.130381  0.103575  0  1.027695  0
H  H26  1  0.74847342  0.85665866  0.03355537  1  0  0.097727  0  0.956036  0  0  0.104306  0  1.026957  0  0  0.106241  0  1.024567  0  0  0.130197  0.102902  0  1.028574  0
H  H27  1  0.32285728  0.71447070  0.46628076  1  0  0.098349  0  0.955387  0  0  0.10494  0  1.0262  0  0  0.106848  0  1.023864  0  0  0.130393  0.103542  0  1.02779  0
H  H28  1  0.87686592  0.75154583  0.78994721  1  0  0.104996  0  0.97912  0  0  0.111462  0  1.047118  0  0  0.113502  0  1.046452  0  0  0.110968  0.110011  0  1.04765  0
H  H29  1  0.46145810  0.08691918  0.70989958  1  0  0.105186  0  0.977595  0  0  0.111023  0  1.046229  0  0  0.11312  0  1.045531  0  0  0.111141  0.109525  0  1.046803  0
H  H30  1  0.12312224  0.24844799  0.21005914  1  0  0.10506  0  0.979148  0  0  0.111451  0  1.047205  0  0  0.113488  0  1.04654  0  0  0.110959  0.110002  0  1.047735  0
H  H31  1  0.53853022  0.91306663  0.29009629  1  0  0.105161  0  0.977612  0  0  0.111019  0  1.046218  0  0  0.11312  0  1.045513  0  0  0.111136  0.109517  0  1.046792  0
H  H32  1  0.75146597  0.99302193  0.84926165  1  0  0.118591  0  0.951716  0  0  0.131578  0  1.008197  0  0  0.133551  0  1.008016  0  0  0.124226  0.130164  0  1.008391  0
H  H33  1  0.64364148  0.90224829  0.65063364  1  0  0.11779  0  0.952193  0  0  0.130834  0  1.008585  0  0  0.132805  0  1.008403  0  0  0.123859  0.129415  0  1.008783  0
H  H34  1  0.24852804  0.00698107  0.15075244  1  0  0.118586  0  0.951995  0  0  0.131622  0  1.008403  0  0  0.133597  0  1.008221  0  0  0.124226  0.130209  0  1.008594  0
H  H35  1  0.35637145  0.09775701  0.34937563  1  0  0.117731  0  0.952184  0  0  0.130797  0  1.008564  0  0  0.132769  0  1.008382  0  0  0.123834  0.129383  0  1.008763  0
C  C36  1  0.99021416  0.26443412  0.96220636  1  0  0.09522  0  3.610964  0  0  0.018927  0  3.852256  0  0  0.028945  0  3.859886  0  0  0.059381  0.012167  0  3.8473  0
C  C37  1  0.80224826  0.02834690  0.53779249  1  0  0.094587  0  3.6114  0  0  0.019416  0  3.851497  0  0  0.029255  0  3.859502  0  0  0.059234  0.01279  0  3.846298  0
C  C38  1  0.00978935  0.73557006  0.03779210  1  0  0.095197  0  3.610926  0  0  0.018907  0  3.852308  0  0  0.02894  0  3.859926  0  0  0.05936  0.012141  0  3.847354  0
C  C39  1  0.19775606  0.97165611  0.46221344  1  0  0.094673  0  3.611375  0  0  0.019605  0  3.851401  0  0  0.029413  0  3.859377  0  0  0.059232  0.013003  0  3.846221  0
C  C40  1  0.14856201  0.46861886  0.91603340  1  0  0.147511  0  3.66901  0  0  0.090054  0  3.935629  0  0  0.103002  0  3.948903  0  0  0.135128  0.081777  0  3.926207  0
C  C41  1  0.05259243  0.23287613  0.58389496  1  0  0.14531  0  3.670862  0  0  0.086959  0  3.937424  0  0  0.099906  0  3.950708  0  0  0.134074  0.078692  0  3.927998  0
C  C42  1  0.85143564  0.53137616  0.08395461  1  0  0.14756  0  3.668645  0  0  0.090137  0  3.935246  0  0  0.103087  0  3.948517  0  0  0.135191  0.081855  0  3.925828  0
C  C43  1  0.94740536  0.76712806  0.41610103  1  0  0.145191  0  3.670752  0  0  0.08687  0  3.937321  0  0  0.099866  0  3.950632  0  0  0.134002  0.0786  0  3.927897  0
C  C44  1  0.97204768  0.47864594  0.78045313  1  0  -0.00136  0  3.738755  0  0  -0.030387  0  4.004032  0  0  -0.02964  0  4.024967  0  0  -0.006261  -0.030893  0  3.989881  0
C  C45  1  0.19813655  0.19191248  0.71949886  1  0  -0.003858  0  3.739061  0  0  -0.033057  0  4.004672  0  0  -0.032264  0  4.025653  0  0  -0.007842  -0.033545  0  3.990468  0
C  C46  1  0.02794943  0.52135137  0.21953642  1  0  -0.001555  0  3.739123  0  0  -0.030532  0  4.004424  0  0  -0.029786  0  4.025359  0  0  -0.006285  -0.031035  0  3.990286  0
C  C47  1  0.80187138  0.80809975  0.28049877  1  0  -0.003841  0  3.739209  0  0  -0.032949  0  4.004756  0  0  -0.032192  0  4.025754  0  0  -0.007782  -0.033432  0  3.990542  0
C  C48  1  0.89782683  0.37078416  0.81480090  1  0  -0.058126  0  3.660745  0  0  -0.101657  0  3.924884  0  0  -0.099793  0  3.944442  0  0  -0.004781  -0.102815  0  3.911701  0
C  C49  1  0.05589926  0.08343550  0.68520735  1  0  -0.058357  0  3.662015  0  0  -0.102382  0  3.92618  0  0  -0.100507  0  3.945708  0  0  -0.00564  -0.103554  0  3.91303  0
C  C50  1  0.10216600  0.62921429  0.18519407  1  0  -0.058195  0  3.661188  0  0  -0.101711  0  3.925265  0  0  -0.09985  0  3.944826  0  0  -0.004815  -0.102873  0  3.912086  0
C  C51  1  0.94411323  0.91657670  0.31479863  1  0  -0.058487  0  3.662291  0  0  -0.102523  0  3.926462  0  0  -0.100654  0  3.946  0  0  -0.005635  -0.103694  0  3.913308  0
C  C52  1  0.13462694  0.06629938  0.92532049  1  0  0.159896  0  3.666779  0  0  0.100115  0  3.937184  0  0  0.113445  0  3.951001  0  0  0.137858  0.091558  0  3.927427  0
C  C53  1  0.64107671  0.20962898  0.57475379  1  0  0.157478  0  3.665084  0  0  0.09815  0  3.935848  0  0  0.111472  0  3.949653  0  0  0.137177  0.089597  0  3.926119  0
C  C54  1  0.86536908  0.93370250  0.07467961  1  0  0.160051  0  3.666814  0  0  0.100271  0  3.937209  0  0  0.113602  0  3.951024  0  0  0.137891  0.091714  0  3.927446  0
C  C55  1  0.35891747  0.79036600  0.42525050  1  0  0.157521  0  3.665137  0  0  0.098175  0  3.935908  0  0  0.111524  0  3.949662  0  0  0.137127  0.089626  0  3.926183  0
C  C56  1  0.93692899  0.86810995  0.83542846  1  0  -0.013351  0  3.758502  0  0  -0.045356  0  4.028041  0  0  -0.043657  0  4.047196  0  0  -0.012022  -0.046478  0  4.015039  0
C  C57  1  0.53258806  0.10158186  0.66447630  1  0  -0.014859  0  3.755717  0  0  -0.046448  0  4.025275  0  0  -0.044813  0  4.044396  0  0  -0.012583  -0.047494  0  4.012247  0
C  C58  1  0.06306479  0.13189649  0.16458535  1  0  -0.013315  0  3.758022  0  0  -0.04525  0  4.027586  0  0  -0.043545  0  4.046736  0  0  -0.012064  -0.046374  0  4.01459  0
C  C59  1  0.46740582  0.89841197  0.33552643  1  0  -0.014922  0  3.755907  0  0  -0.046535  0  4.025497  0  0  -0.044901  0  4.044612  0  0  -0.012613  -0.047576  0  4.012471  0
C  C60  1  0.87234909  0.98590279  0.86268522  1  0  -0.068095  0  3.684577  0  0  -0.10959  0  3.945915  0  0  -0.107816  0  3.964948  0  0  0.000151  -0.110699  0  3.933078  0
C  C61  1  0.62312425  0.00975641  0.63722601  1  0  -0.06637  0  3.68251  0  0  -0.107049  0  3.943462  0  0  -0.105253  0  3.962453  0  0  0.000829  -0.108173  0  3.930662  0
C  C62  1  0.12765744  0.01409562  0.13732395  1  0  -0.068243  0  3.684301  0  0  -0.109791  0  3.94564  0  0  -0.10802  0  3.964672  0  0  0.000126  -0.110903  0  3.932804  0
C  C63  1  0.37687969  0.99024086  0.36277980  1  0  -0.06619  0  3.682622  0  0  -0.106899  0  3.94359  0  0  -0.105103  0  3.962584  0  0  0.000833  -0.108032  0  3.930799  0
C  C64  1  0.42281975  0.81915024  0.00828207  1  0  -0.044463  0  3.496234  0  0  -0.016361  0  3.834893  0  0  -0.018717  0  3.847709  0  0  0.005078  -0.01488  0  3.826191  0
C  C65  1  0.31091104  0.41479584  0.49162277  1  0  -0.041751  0  3.496024  0  0  -0.013567  0  3.834633  0  0  -0.015889  0  3.847447  0  0  0.006445  -0.012103  0  3.825931  0
C  C66  1  0.57717360  0.18082868  0.99171323  1  0  -0.044368  0  3.496448  0  0  -0.016267  0  3.835123  0  0  -0.018623  0  3.847941  0  0  0.00513  -0.014785  0  3.826417  0
C  C67  1  0.68906224  0.58518076  0.50838052  1  0  -0.041771  0  3.49594  0  0  -0.013577  0  3.834539  0  0  -0.015902  0  3.847352  0  0  0.006405  -0.012117  0  3.825841  0
C  C68  1  0.27004367  0.77103626  0.70882092  1  0  -0.034415  0  3.497447  0  0  -0.001211  0  3.832652  0  0  -0.003354  0  3.844921  0  0  0.010121  9.2e-05  0  3.824355  0
C  C69  1  0.56199552  0.56118645  0.79116368  1  0  -0.034417  0  3.497266  0  0  -0.001137  0  3.832361  0  0  -0.003301  0  3.844655  0  0  0.010686  0.00018  0  3.82406  0
C  C70  1  0.72997248  0.22898973  0.29118414  1  0  -0.034316  0  3.497319  0  0  -0.001111  0  3.832526  0  0  -0.00325  0  3.844791  0  0  0.010144  0.000193  0  3.824232  0
C  C71  1  0.43804239  0.43882233  0.20883055  1  0  -0.034642  0  3.497418  0  0  -0.001386  0  3.832578  0  0  -0.003548  0  3.844866  0  0  0.010625  -7e-05  0  3.824282  0
N  N72  1  0.01091117  0.36616092  0.90108705  1  0  -0.092708  0  3.578903  0  0  -0.003219  0  3.805644  0  0  -0.018728  0  3.831294  0  0  -0.249247  0.007095  0  3.788118  0
N  N73  1  0.96502502  0.11025713  0.59890894  1  0  -0.094193  0  3.58215  0  0  -0.004771  0  3.809106  0  0  -0.02023  0  3.834756  0  0  -0.249022  0.005505  0  3.791565  0
N  N74  1  0.98908944  0.63384098  0.09890649  1  0  -0.092532  0  3.578848  0  0  -0.003085  0  3.805609  0  0  -0.018595  0  3.831254  0  0  -0.249204  0.007233  0  3.788077  0
N  N75  1  0.03497825  0.88975049  0.40109330  1  0  -0.094148  0  3.582122  0  0  -0.004749  0  3.809056  0  0  -0.020207  0  3.834704  0  0  -0.249025  0.005529  0  3.791507  0
N  N76  1  0.12761972  0.53884200  0.84442839  1  0  -0.355021  0  3.209154  0  0  -0.287528  0  3.48751  0  0  -0.306613  0  3.506302  0  0  -0.34465  -0.274383  0  3.474162  0
N  N77  1  0.19440610  0.28347005  0.65547328  1  0  -0.351173  0  3.209306  0  0  -0.283426  0  3.487515  0  0  -0.302499  0  3.506317  0  0  -0.342948  -0.270302  0  3.474186  0
N  N78  1  0.87237899  0.46114842  0.15555992  1  0  -0.355077  0  3.209  0  0  -0.287566  0  3.487301  0  0  -0.306647  0  3.506087  0  0  -0.34469  -0.274423  0  3.473952  0
N  N79  1  0.80559367  0.71653299  0.34452023  1  0  -0.350986  0  3.209058  0  0  -0.283328  0  3.487315  0  0  -0.302401  0  3.506109  0  0  -0.342893  -0.2702  0  3.473977  0
N  N80  1  0.99910790  0.11077215  0.91977655  1  0  -0.08724  0  3.581702  0  0  0.00384  0  3.803403  0  0  -0.011866  0  3.829694  0  0  -0.246102  0.014241  0  3.785531  0
N  N81  1  0.69102448  0.07958550  0.58023874  1  0  -0.086399  0  3.579047  0  0  0.002805  0  3.802592  0  0  -0.012856  0  3.828891  0  0  -0.246874  0.013166  0  3.784724  0
N  N82  1  0.00088615  0.88923088  0.08022127  1  0  -0.087227  0  3.58136  0  0  0.003883  0  3.803013  0  0  -0.011823  0  3.829303  0  0  -0.24607  0.014292  0  3.785134  0
N  N83  1  0.30897611  0.92041636  0.41976700  1  0  -0.086537  0  3.579236  0  0  0.00266  0  3.802713  0  0  -0.013001  0  3.829028  0  0  -0.246791  0.013025  0  3.784839  0
N  N84  1  0.10054347  0.91988847  0.87521914  1  0  -0.364364  0  3.176929  0  0  -0.297859  0  3.455619  0  0  -0.316358  0  3.472695  0  0  -0.345116  -0.285123  0  3.443534  0
N  N85  1  0.54470117  0.22555507  0.62478360  1  0  -0.362545  0  3.174063  0  0  -0.295908  0  3.452215  0  0  -0.314384  0  3.469247  0  0  -0.344293  -0.283156  0  3.440092  0
N  N86  1  0.89945155  0.08010535  0.12478652  1  0  -0.364426  0  3.177002  0  0  -0.29793  0  3.455689  0  0  -0.316427  0  3.472757  0  0  -0.345121  -0.285193  0  3.443608  0
N  N87  1  0.45528952  0.77443532  0.37521603  1  0  -0.36246  0  3.17404  0  0  -0.295823  0  3.452194  0  0  -0.314301  0  3.469242  0  0  -0.344266  -0.283048  0  3.440005  0
N  N88  1  0.47250370  0.83767321  0.09433710  1  0  -0.381528  0  2.769232  0  0  -0.35323  0  3.006516  0  0  -0.362671  0  3.023255  0  0  -0.339873  -0.346843  0  2.995292  0
N  N89  1  0.24339581  0.37835125  0.40557246  1  0  -0.383628  0  2.770197  0  0  -0.35549  0  3.007781  0  0  -0.364948  0  3.02449  0  0  -0.340901  -0.349094  0  2.996592  0
N  N90  1  0.52747426  0.16232523  0.90566107  1  0  -0.381653  0  2.769517  0  0  -0.35335  0  3.006812  0  0  -0.36279  0  3.02355  0  0  -0.339939  -0.346962  0  2.995585  0
N  N91  1  0.75662310  0.62165063  0.59442533  1  0  -0.383562  0  2.770177  0  0  -0.355434  0  3.007753  0  0  -0.364891  0  3.024461  0  0  -0.340825  -0.349036  0  2.996559  0
N  N92  1  0.23923768  0.76195255  0.62433749  1  0  -0.382091  0  2.80875  0  0  -0.358438  0  3.049603  0  0  -0.368562  0  3.067576  0  0  -0.33806  -0.351581  0  3.037538  0
N  N93  1  0.63725110  0.61450242  0.87569830  1  0  -0.381797  0  2.806976  0  0  -0.357995  0  3.047504  0  0  -0.368116  0  3.06549  0  0  -0.33839  -0.351143  0  3.035439  0
N  N94  1  0.76077093  0.23804932  0.37566506  1  0  -0.382196  0  2.808583  0  0  -0.35855  0  3.049444  0  0  -0.368678  0  3.067424  0  0  -0.338088  -0.351697  0  3.037386  0
N  N95  1  0.36276041  0.38548453  0.12429749  1  0  -0.381631  0  2.806847  0  0  -0.357814  0  3.04737  0  0  -0.367941  0  3.065369  0  0  -0.338335  -0.35096  0  3.035302  0
