# generated using pymatgen
data_GdH26C34N8O21
_symmetry_space_group_name_H-M   'P 1'
_cell_length_a   12.82964333
_cell_length_b   19.38595318
_cell_length_c   19.38446578
_cell_angle_alpha   102.85923073
_cell_angle_beta   95.93103134
_cell_angle_gamma   95.95549580
_symmetry_Int_Tables_number   1
_chemical_formula_structural   GdH26C34N8O21
_chemical_formula_sum   'Gd4 H104 C136 N32 O84'
_cell_volume   4635.01566330
_cell_formula_units_Z   4
loop_
 _symmetry_equiv_pos_site_id
 _symmetry_equiv_pos_as_xyz
  1  'x, y, z'
loop_
 _atom_site_type_symbol
 _atom_site_label
 _atom_site_symmetry_multiplicity
 _atom_site_fract_x
 _atom_site_fract_y
 _atom_site_fract_z
 _atom_site_occupancy
 _atom_site_pbe_bader_charge
 _atom_site_pbe_bader_spin_density
 _atom_site_pbe_cm5_charge
 _atom_site_pbe_ddec_charge
 _atom_site_pbe_ddec_spin_density
 _atom_site_pbe_ddec_sum_bond_order
 _atom_site_pbe_magmom
Gd  Gd0  1  0.34157806  0.45936311  0.97988832  1  2.196008  0  1.47373  2.040734  0  2.213629  0
Gd  Gd1  1  0.15840004  0.02017016  0.54066702  1  2.196024  0  1.474444  2.040646  0  2.215263  0
Gd  Gd2  1  0.65842773  0.54063964  0.02011961  1  2.196144  0  1.473649  2.040605  0  2.213821  0
Gd  Gd3  1  0.84159375  0.97982220  0.45933024  1  2.196046  0  1.474446  2.040549  0  2.215475  0
H  H4  1  0.28517300  0.58581721  0.81945925  1  0.163778  0  0.12429  0.130747  0  1.019547  0
H  H5  1  0.21456329  0.18056482  0.41421751  1  0.16683  0  0.124467  0.130928  0  1.019756  0
H  H6  1  0.71483232  0.41419144  0.18055716  1  0.163563  0  0.124308  0.130766  0  1.019515  0
H  H7  1  0.78543712  0.81942549  0.58577504  1  0.166319  0  0.124437  0.130839  0  1.019786  0
H  H8  1  0.59648273  0.69919907  0.89163519  1  0.149947  0  0.124144  0.131063  0  1.013972  0
H  H9  1  0.90319542  0.10835985  0.30087150  1  0.146703  0  0.124163  0.131094  0  1.013592  0
H  H10  1  0.40351578  0.30080349  0.10836455  1  0.149933  0  0.124107  0.13101  0  1.014075  0
H  H11  1  0.09679712  0.89163790  0.69913717  1  0.146376  0  0.124167  0.131023  0  1.01364  0
H  H12  1  0.34125432  0.81100896  0.55991752  1  0.180077  0  0.121433  0.13663  0  1.011657  0
H  H13  1  0.15871589  0.44004450  0.18920067  1  0.181039  0  0.121542  0.136606  0  1.011409  0
H  H14  1  0.65875722  0.18899119  0.44008554  1  0.179837  0  0.121454  0.136638  0  1.011749  0
H  H15  1  0.84125816  0.55995179  0.81079733  1  0.180966  0  0.121485  0.136555  0  1.011444  0
H  H16  1  0.31911775  0.95923354  0.75880997  1  0.227967  0  0.126345  0.144062  0  1.030561  0
H  H17  1  0.18094973  0.24126584  0.04079297  1  0.227831  0  0.126307  0.144216  0  1.03023  0
H  H18  1  0.68088698  0.04077012  0.24118159  1  0.22787  0  0.126325  0.144118  0  1.030568  0
H  H19  1  0.81904390  0.75873709  0.95919728  1  0.228074  0  0.126385  0.144303  0  1.030266  0
H  H20  1  0.30492976  0.55813717  0.14043136  1  0.193024  0  0.133245  0.156641  0  1.030648  0
H  H21  1  0.19532880  0.85971125  0.44179431  1  0.194123  0  0.133225  0.156901  0  1.031054  0
H  H22  1  0.69508717  0.44186531  0.85958542  1  0.192861  0  0.133396  0.156906  0  1.030335  0
H  H23  1  0.80467642  0.14028878  0.55820733  1  0.194128  0  0.133215  0.156903  0  1.030982  0
H  H24  1  0.52591074  0.74879339  0.16543647  1  0.165624  0  0.126482  0.134916  0  1.003514  0
H  H25  1  0.97427001  0.83475161  0.25117167  1  0.166533  0  0.126362  0.134333  0  1.004323  0
H  H26  1  0.47407830  0.25121581  0.83455178  1  0.165584  0  0.126501  0.134985  0  1.003526  0
H  H27  1  0.02572220  0.16525083  0.74882717  1  0.166461  0  0.126383  0.134311  0  1.004501  0
H  H28  1  0.26767475  0.62843486  0.95125673  1  0.086784  0  0.122981  0.042511  0  1.015615  0
H  H29  1  0.23243267  0.04877029  0.37156498  1  0.08661  0  0.122859  0.042656  0  1.015071  0
H  H30  1  0.73232060  0.37155550  0.04875205  1  0.086496  0  0.122955  0.042577  0  1.015548  0
H  H31  1  0.76755587  0.95121020  0.62841908  1  0.086853  0  0.122847  0.042642  0  1.015231  0
H  H32  1  0.17562881  0.70961521  0.92898308  1  0.065344  0  0.107674  0.12305  0  1.012943  0
H  H33  1  0.32455973  0.07109376  0.29045200  1  0.066872  0  0.10775  0.123126  0  1.012417  0
H  H34  1  0.82439507  0.29038255  0.07102688  1  0.065441  0  0.107658  0.123105  0  1.013076  0
H  H35  1  0.67544343  0.92889875  0.70954377  1  0.066844  0  0.107756  0.123079  0  1.012324  0
H  H36  1  0.07456690  0.73272461  0.98348913  1  0.071662  0  0.107055  0.128302  0  0.991597  0
H  H37  1  0.42550988  0.01652886  0.26727346  1  0.073791  0  0.107222  0.128633  0  0.991607  0
H  H38  1  0.92543811  0.26727383  0.01651371  1  0.071597  0  0.107062  0.128321  0  0.991608  0
H  H39  1  0.57450521  0.98347932  0.73272948  1  0.073816  0  0.107177  0.128437  0  0.991689  0
H  H40  1  0.04249924  0.67141943  0.89815698  1  0.069183  0  0.097251  0.11719  0  1.022923  0
H  H41  1  0.45769822  0.10184795  0.32858590  1  0.068399  0  0.097207  0.117217  0  1.022763  0
H  H42  1  0.95750740  0.32857578  0.10183647  1  0.053089  0  0.097254  0.117212  0  1.023018  0
H  H43  1  0.54228838  0.89814753  0.67141781  1  0.068319  0  0.097223  0.117061  0  1.022657  0
H  H44  1  0.98920435  0.64442735  0.03660304  1  0.101619  0  0.106717  0.126182  0  1.0177  0
H  H45  1  0.51088463  0.96350450  0.35565105  1  0.101255  0  0.106413  0.126047  0  1.018  0
H  H46  1  0.01078482  0.35556496  0.96339755  1  0.101203  0  0.106674  0.126031  0  1.017706  0
H  H47  1  0.48911785  0.03649915  0.64434451  1  0.101257  0  0.1064  0.126032  0  1.017873  0
H  H48  1  0.06161479  0.57278203  0.04985072  1  0.10279  0  0.108446  0.128062  0  1.023976  0
H  H49  1  0.43834876  0.95023975  0.42728641  1  0.101956  0  0.108379  0.127946  0  1.024181  0
H  H50  1  0.93836939  0.42720910  0.95014520  1  0.102893  0  0.108413  0.127926  0  1.024005  0
H  H51  1  0.56166366  0.04975717  0.57270877  1  0.102108  0  0.108409  0.127936  0  1.024043  0
H  H52  1  0.97417183  0.56311169  0.96953901  1  0.063287  0  0.111301  0.133681  0  0.973317  0
H  H53  1  0.52584431  0.03054597  0.43698271  1  0.061561  0  0.111203  0.133407  0  0.973874  0
H  H54  1  0.02582165  0.43688436  0.03045490  1  0.063518  0  0.111214  0.133485  0  0.973109  0
H  H55  1  0.47415727  0.96945232  0.56300905  1  0.061584  0  0.111138  0.133405  0  0.973822  0
H  H56  1  0.19041640  0.32565187  0.83501576  1  0.094871  0  0.133558  0.062706  0  0.969924  0
H  H57  1  0.30950503  0.16482903  0.67427885  1  0.094174  0  0.133865  0.062864  0  0.96997  0
H  H58  1  0.80958292  0.67435501  0.16499064  1  0.094703  0  0.133626  0.062712  0  0.969904  0
H  H59  1  0.69049128  0.83516975  0.32571840  1  0.094127  0  0.133881  0.062879  0  0.969864  0
H  H60  1  0.13198086  0.27303391  0.72491537  1  0.06644  0  0.108573  0.12124  0  1.011604  0
H  H61  1  0.36774721  0.27493752  0.72696646  1  0.065898  0  0.108692  0.121169  0  1.011629  0
H  H62  1  0.86802194  0.72696934  0.27509508  1  0.066252  0  0.108533  0.121168  0  1.011555  0
H  H63  1  0.63224599  0.72506122  0.27303162  1  0.065994  0  0.108636  0.120988  0  1.011777  0
H  H64  1  0.15585129  0.32535563  0.66181572  1  0.033526  0  0.104749  0.116993  0  0.984364  0
H  H65  1  0.34394413  0.33809157  0.67470111  1  0.035457  0  0.10487  0.117149  0  0.984536  0
H  H66  1  0.84415294  0.67463648  0.33819343  1  0.033219  0  0.104737  0.11694  0  0.984471  0
H  H67  1  0.65605690  0.66191260  0.32529602  1  0.035521  0  0.104887  0.117196  0  0.984595  0
H  H68  1  0.02667088  0.31202258  0.68663765  1  0.098836  0  0.103294  0.126445  0  1.005092  0
H  H69  1  0.47312123  0.31329495  0.68802925  1  0.099935  0  0.103124  0.125921  0  1.005029  0
H  H70  1  0.97333918  0.68797227  0.31336934  1  0.098876  0  0.103317  0.126381  0  1.0049  0
H  H71  1  0.52688141  0.68669916  0.31196735  1  0.099932  0  0.103118  0.125948  0  1.005118  0
H  H72  1  0.16949620  0.46368542  0.70917040  1  0.079947  0  0.105844  0.118968  0  0.97409  0
H  H73  1  0.33042408  0.29088279  0.53636884  1  0.079023  0  0.105872  0.119165  0  0.974181  0
H  H74  1  0.83050152  0.53630752  0.29082411  1  0.079901  0  0.105785  0.118874  0  0.974079  0
H  H75  1  0.66957416  0.70911817  0.46363001  1  0.079318  0  0.10589  0.119185  0  0.974223  0
H  H76  1  0.13522699  0.49308945  0.79726594  1  0.095584  0  0.113805  0.137854  0  0.998899  0
H  H77  1  0.36463611  0.20279918  0.50690401  1  0.097013  0  0.113875  0.138101  0  0.998998  0
H  H78  1  0.86477132  0.50691356  0.20272357  1  0.095509  0  0.11376  0.137814  0  0.998887  0
H  H79  1  0.63535942  0.79719959  0.49309319  1  0.097076  0  0.113881  0.138086  0  0.998919  0
H  H80  1  0.03519919  0.44840309  0.72558034  1  0.09605  0  0.10625  0.12788  0  1.01228  0
H  H81  1  0.46467308  0.27447455  0.55157812  1  0.101787  0  0.106456  0.128208  0  1.012191  0
H  H82  1  0.96480028  0.55159095  0.27441503  1  0.096109  0  0.106204  0.127809  0  1.012382  0
H  H83  1  0.53532396  0.72552372  0.44842009  1  0.101827  0  0.106478  0.128265  0  1.012206  0
H  H84  1  0.65436741  0.72978113  0.02902656  1  0.043421  0  0.09932  0.03997  0  1.027284  0
H  H85  1  0.84525771  0.97070659  0.27027856  1  0.040986  0  0.099425  0.040009  0  1.028107  0
H  H86  1  0.34563472  0.27019787  0.97100801  1  0.044196  0  0.099373  0.040026  0  1.027274  0
H  H87  1  0.15476088  0.02930277  0.72973206  1  0.041103  0  0.099329  0.039842  0  1.028273  0
H  H88  1  0.47352321  0.71156414  0.01946670  1  0.079054  0  0.097669  0.095019  0  1.038721  0
H  H89  1  0.02646730  0.98045268  0.28849075  1  0.077568  0  0.097759  0.095211  0  1.039426  0
H  H90  1  0.52642513  0.28841838  0.98052478  1  0.078698  0  0.097565  0.09472  0  1.038702  0
H  H91  1  0.97354075  0.01954957  0.71151669  1  0.077823  0  0.097802  0.095253  0  1.039415  0
H  H92  1  0.29597599  0.75503759  0.02591257  1  0.051989  0  0.093044  0.089497  0  1.044469  0
H  H93  1  0.20409039  0.97404924  0.24492977  1  0.051913  0  0.093136  0.089566  0  1.044094  0
H  H94  1  0.70399508  0.24496880  0.97409364  1  0.051255  0  0.092984  0.089451  0  1.044438  0
H  H95  1  0.79593446  0.02594632  0.75506945  1  0.052266  0  0.093041  0.0895  0  1.043988  0
H  H96  1  0.28385226  0.88400119  0.04553460  1  0.040803  0  0.101882  0.095654  0  1.010808  0
H  H97  1  0.21608557  0.95445698  0.11599623  1  0.041029  0  0.101795  0.095489  0  1.011162  0
H  H98  1  0.71615902  0.11601074  0.95448132  1  0.040667  0  0.101927  0.095779  0  1.010776  0
H  H99  1  0.78391292  0.04554128  0.88399742  1  0.041053  0  0.1018  0.095483  0  1.011203  0
H  H100  1  0.44714907  0.97177532  0.06647834  1  0.112934  0  0.10366  0.107145  0  1.006035  0
H  H101  1  0.05258836  0.93343996  0.02826701  1  0.113118  0  0.103393  0.106763  0  1.006438  0
H  H102  1  0.55287306  0.02822693  0.93349792  1  0.11279  0  0.103664  0.107103  0  1.006253  0
H  H103  1  0.94739583  0.06656558  0.97173719  1  0.112944  0  0.103387  0.106822  0  1.006346  0
H  H104  1  0.62411243  0.92844461  0.06493200  1  0.125217  0  0.111511  0.120231  0  1.010479  0
H  H105  1  0.87567025  0.93498700  0.07177103  1  0.127849  0  0.111376  0.120245  0  1.011005  0
H  H106  1  0.37587550  0.07153619  0.93502578  1  0.124657  0  0.11164  0.120452  0  1.010071  0
H  H107  1  0.12431471  0.06502990  0.92825787  1  0.127614  0  0.1114  0.120227  0  1.010942  0
C  C108  1  0.46380709  0.58662470  0.90865562  1  1.622761  0  0.231811  0.633401  0  4.170056  0
C  C109  1  0.03613165  0.09119118  0.41331929  1  1.62213  0  0.232382  0.635077  0  4.17131  0
C  C110  1  0.53618838  0.41338212  0.09135313  1  1.6224  0  0.231767  0.633441  0  4.169982  0
C  C111  1  0.96386777  0.90880714  0.58667958  1  1.622038  0  0.232331  0.634912  0  4.171139  0
C  C112  1  0.44445317  0.63537323  0.85928818  1  0.013925  0  -0.003521  -0.009673  0  3.926851  0
C  C113  1  0.05523611  0.14077094  0.36477118  1  0.048718  0  -0.004055  -0.010682  0  3.927923  0
C  C114  1  0.55554574  0.36463148  0.14071462  1  0.013793  0  -0.00344  -0.009522  0  3.926788  0
C  C115  1  0.94476264  0.85922791  0.63522931  1  0.048374  0  -0.00412  -0.010756  0  3.927943  0
C  C116  1  0.34648201  0.62849770  0.81813975  1  -0.011502  0  -0.056205  -0.103719  0  3.905478  0
C  C117  1  0.15318447  0.18197221  0.37161961  1  -0.004578  0  -0.056657  -0.104247  0  3.905687  0
C  C118  1  0.65351394  0.37150752  0.18186661  1  -0.011184  0  -0.056257  -0.103877  0  3.905516  0
C  C119  1  0.84681701  0.81802504  0.62837451  1  -0.003621  0  -0.056636  -0.10415  0  3.905819  0
C  C120  1  0.32588570  0.67668012  0.77670560  1  0.238458  0  0.086343  0.034457  0  3.872961  0
C  C121  1  0.17382910  0.22333187  0.32338521  1  0.207247  0  0.086937  0.034855  0  3.875014  0
C  C122  1  0.67411105  0.32332512  0.22330133  1  0.238154  0  0.086374  0.034579  0  3.873011  0
C  C123  1  0.82616623  0.77666203  0.67660215  1  0.206977  0  0.086984  0.034849  0  3.874939  0
C  C124  1  0.40269841  0.73248241  0.77158172  1  0.143415  0  0.034162  0.0398  0  3.928997  0
C  C125  1  0.09704655  0.22840734  0.26758625  1  0.143027  0  0.034561  0.040214  0  3.931406  0
C  C126  1  0.59729839  0.26752386  0.22842131  1  0.143018  0  0.034122  0.0397  0  3.929141  0
C  C127  1  0.90295430  0.77158666  0.73240196  1  0.142865  0  0.03458  0.040252  0  3.931206  0
C  C128  1  0.49970494  0.73787311  0.81488152  1  0.200708  0  0.085289  0.031709  0  3.880429  0
C  C129  1  0.00001613  0.18517877  0.26230872  1  0.200532  0  0.084947  0.030922  0  3.882513  0
C  C130  1  0.50029357  0.26213374  0.18512380  1  0.201006  0  0.085189  0.03149  0  3.880824  0
C  C131  1  0.99998301  0.81481817  0.73768962  1  0.227842  0  0.084937  0.030927  0  3.882619  0
C  C132  1  0.52086645  0.69134016  0.85815149  1  0.07191  0  -0.04763  -0.082735  0  3.887072  0
C  C133  1  0.97879344  0.14192816  0.30885255  1  0.059701  0  -0.047066  -0.081722  0  3.886893  0
C  C134  1  0.47913485  0.30866031  0.14184744  1  0.072168  0  -0.047547  -0.082614  0  3.887174  0
C  C135  1  0.02120369  0.85807013  0.69114877  1  0.060137  0  -0.047086  -0.081705  0  3.886696  0
C  C136  1  0.38013048  0.78688753  0.73017371  1  0.070806  0  0.022357  0.012351  0  3.962324  0
C  C137  1  0.11965403  0.26975834  0.21313355  1  0.074884  0  0.022543  0.012845  0  3.9616  0
C  C138  1  0.61986009  0.21311385  0.26982841  1  0.070898  0  0.022461  0.012476  0  3.962003  0
C  C139  1  0.88034517  0.73023940  0.78686002  1  0.075372  0  0.022441  0.012772  0  3.961342  0
C  C140  1  0.37848549  0.77514608  0.65558970  1  0.262404  0  0.083522  0.035256  0  3.894357  0
C  C141  1  0.12136284  0.34434637  0.22491710  1  0.263085  0  0.083553  0.03489  0  3.894751  0
C  C142  1  0.62150794  0.22485323  0.34441420  1  0.262746  0  0.083484  0.035201  0  3.894191  0
C  C143  1  0.87864591  0.65565157  0.77508171  1  0.262491  0  0.083562  0.034828  0  3.894602  0
C  C144  1  0.34608600  0.82389493  0.61787826  1  -0.04614  0  -0.055034  -0.101841  0  3.883504  0
C  C145  1  0.15383766  0.38209122  0.17620089  1  -0.046963  0  -0.055159  -0.101641  0  3.884102  0
C  C146  1  0.65391339  0.17610237  0.38212554  1  -0.046061  0  -0.055087  -0.101885  0  3.88351  0
C  C147  1  0.84615944  0.61790757  0.82379641  1  -0.046618  0  -0.05513  -0.101614  0  3.883969  0
C  C148  1  0.32026950  0.88933642  0.65427810  1  0.145675  0  -0.001912  0.00249  0  3.925945  0
C  C149  1  0.17964874  0.34574875  0.11073648  1  0.146086  0  -0.001527  0.003557  0  3.926379  0
C  C150  1  0.67972563  0.11065969  0.34571901  1  0.145792  0  -0.001903  0.002468  0  3.926076  0
C  C151  1  0.82035115  0.65425276  0.88926208  1  0.14613  0  -0.001674  0.003478  0  3.926465  0
C  C152  1  0.33300528  0.90680519  0.72872737  1  -0.095873  0  -0.051433  -0.101123  0  3.866506  0
C  C153  1  0.16691934  0.27129065  0.09321072  1  -0.099142  0  -0.051506  -0.101947  0  3.866137  0
C  C154  1  0.66698792  0.09319355  0.27127072  1  -0.095731  0  -0.051447  -0.10119  0  3.86663  0
C  C155  1  0.83308193  0.72871031  0.90678368  1  -0.099466  0  -0.051591  -0.102107  0  3.866295  0
C  C156  1  0.35992409  0.85511784  0.76463878  1  0.206451  0  0.081422  0.023514  0  3.902572  0
C  C157  1  0.13994003  0.23533854  0.14487718  1  0.207694  0  0.081453  0.02376  0  3.900911  0
C  C158  1  0.64007316  0.14488202  0.23535823  1  0.206405  0  0.081415  0.023508  0  3.902419  0
C  C159  1  0.86006112  0.76466189  0.85511606  1  0.207643  0  0.081591  0.02391  0  3.90069  0
C  C160  1  0.27617841  0.93878325  0.61282890  1  1.579953  0  0.188892  0.557575  0  4.264787  0
C  C161  1  0.22371624  0.38720095  0.06126392  1  1.577958  0  0.188664  0.556738  0  4.264944  0
C  C162  1  0.72382788  0.06121840  0.38717418  1  1.580055  0  0.188894  0.557502  0  4.26457  0
C  C163  1  0.77628502  0.61279900  0.93873645  1  1.57814  0  0.188737  0.556714  0  4.264919  0
C  C164  1  0.49797467  0.60740226  0.10461896  1  1.593882  0  0.220596  0.619053  0  4.186231  0
C  C165  1  0.00222587  0.89546465  0.39262855  1  1.592061  0  0.220684  0.619976  0  4.185643  0
C  C166  1  0.50202757  0.39260838  0.89538739  1  1.592857  0  0.220507  0.619042  0  4.186453  0
C  C167  1  0.99776489  0.10453249  0.60737524  1  1.591758  0  0.220627  0.619917  0  4.185348  0
C  C168  1  0.42503274  0.64853777  0.14835054  1  0.009652  0  0.00443  0.001458  0  3.905065  0
C  C169  1  0.07525990  0.85194872  0.35137573  1  -0.035402  0  0.003927  -2.1e-05  0  3.907791  0
C  C170  1  0.57496659  0.35146860  0.85165884  1  0.009654  0  0.004518  0.001508  0  3.905451  0
C  C171  1  0.92473595  0.14805065  0.64863038  1  -0.03552  0  0.003834  -0.000153  0  3.907773  0
C  C172  1  0.32898907  0.61537193  0.16079066  1  0.068465  0  -0.042021  -0.088686  0  3.838004  0
C  C173  1  0.17122484  0.83946708  0.38454238  1  0.116  0  -0.042047  -0.089077  0  3.840477  0
C  C174  1  0.67101787  0.38463196  0.83922482  1  0.068737  0  -0.042076  -0.088791  0  3.837905  0
C  C175  1  0.82877563  0.16053285  0.61545742  1  0.115847  0  -0.042017  -0.088995  0  3.840266  0
C  C176  1  0.26390788  0.65614769  0.20129861  1  0.250191  0  0.086298  0.032569  0  3.888277  0
C  C177  1  0.23611574  0.79881854  0.34374199  1  0.249756  0  0.086223  0.032972  0  3.888766  0
C  C178  1  0.73609151  0.34385492  0.79870480  1  0.249846  0  0.086154  0.032377  0  3.88842  0
C  C179  1  0.76388143  0.20118027  0.65625789  1  0.249678  0  0.086257  0.03301  0  3.888857  0
C  C180  1  0.28613425  0.73064810  0.22704554  1  0.076344  0  0.023648  0.014414  0  3.988683  0
C  C181  1  0.21381825  0.77295710  0.26926887  1  0.059597  0  0.023652  0.013518  0  3.989394  0
C  C182  1  0.71386971  0.26935453  0.77295246  1  0.076462  0  0.023648  0.014381  0  3.988542  0
C  C183  1  0.78618521  0.22704234  0.73072841  1  0.059544  0  0.023702  0.013507  0  3.989577  0
C  C184  1  0.38190195  0.76171939  0.21121771  1  0.239429  0  0.084465  0.025256  0  3.908894  0
C  C185  1  0.11815149  0.78883173  0.23815825  1  0.215724  0  0.084488  0.025167  0  3.907794  0
C  C186  1  0.61809550  0.23828786  0.78877422  1  0.240274  0  0.084506  0.025277  0  3.909044  0
C  C187  1  0.88185080  0.21116932  0.76184499  1  0.21539  0  0.084522  0.02518  0  3.907719  0
C  C188  1  0.45186569  0.72190336  0.17480991  1  0.019813  0  -0.051774  -0.110116  0  3.938267  0
C  C189  1  0.04835889  0.82541007  0.27800379  1  0.017759  0  -0.051704  -0.10904  0  3.938  0
C  C190  1  0.54812943  0.27810386  0.82518291  1  0.019468  0  -0.051876  -0.110355  0  3.938817  0
C  C191  1  0.95163392  0.17459030  0.72200030  1  0.017958  0  -0.051708  -0.109007  0  3.938307  0
C  C192  1  0.20800071  0.60178405  0.97715482  1  1.377478  0  0.183841  0.325965  0  4.087134  0
C  C193  1  0.29206006  0.02284273  0.39823687  1  1.378462  0  0.183665  0.325319  0  4.087555  0
C  C194  1  0.79199788  0.39820740  0.02285180  1  1.378192  0  0.183749  0.325828  0  4.087348  0
C  C195  1  0.70794061  0.97714489  0.60175098  1  1.378227  0  0.183592  0.325162  0  4.087879  0
C  C196  1  0.10170465  0.68937508  0.94560347  1  0.281876  0  -0.13558  -0.28707  0  3.915182  0
C  C197  1  0.39844183  0.05442716  0.31063629  1  0.278528  0  -0.135627  -0.287318  0  3.914757  0
C  C198  1  0.89829756  0.31062013  0.05440005  1  0.298001  0  -0.135626  -0.287203  0  3.91556  0
C  C199  1  0.60156099  0.94557383  0.68935768  1  0.278739  0  -0.135591  -0.286941  0  3.914545  0
C  C200  1  0.03061629  0.60096875  0.01076628  1  0.227104  0  -0.132281  -0.272782  0  3.851573  0
C  C201  1  0.46945665  0.98930063  0.39908986  1  0.23163  0  -0.131676  -0.271879  0  3.851677  0
C  C202  1  0.96937729  0.39902305  0.98922620  1  0.227309  0  -0.132102  -0.272101  0  3.850979  0
C  C203  1  0.53054842  0.01069456  0.60090350  1  0.231258  0  -0.131603  -0.271849  0  3.85123  0
C  C204  1  0.17964831  0.37996312  0.82929243  1  1.400014  0  0.190713  0.330213  0  4.088913  0
C  C205  1  0.32030285  0.17061876  0.61997793  1  1.398871  0  0.190305  0.329702  0  4.088644  0
C  C206  1  0.82035477  0.62004806  0.17071305  1  1.399457  0  0.190568  0.330302  0  4.088777  0
C  C207  1  0.67969304  0.82937735  0.38001819  1  1.398694  0  0.190338  0.329918  0  4.088728  0
C  C208  1  0.11138627  0.31989474  0.70633428  1  0.270653  0  -0.129459  -0.281019  0  3.928628  0
C  C209  1  0.38838880  0.29359717  0.68014539  1  0.26852  0  -0.129516  -0.280351  0  3.927252  0
C  C210  1  0.88860766  0.68010196  0.29367373  1  0.271007  0  -0.12941  -0.280778  0  3.928271  0
C  C211  1  0.61160677  0.70639681  0.31985077  1  0.268144  0  -0.129445  -0.280145  0  3.927259  0
C  C212  1  0.11805173  0.45121434  0.74800794  1  0.221938  0  -0.133951  -0.274031  0  3.88764  0
C  C213  1  0.38182803  0.25202932  0.54880028  1  0.216192  0  -0.133989  -0.274683  0  3.887628  0
C  C214  1  0.88194466  0.54878548  0.25198592  1  0.221991  0  -0.133757  -0.273794  0  3.887612  0
C  C215  1  0.61816805  0.74796736  0.45120011  1  0.215682  0  -0.134097  -0.27475  0  3.887572  0
C  C216  1  0.65993029  0.78890405  0.03717668  1  0.942162  0  0.090139  0.253697  0  3.96398  0
C  C217  1  0.84000482  0.96285130  0.21120575  1  0.943336  0  0.090279  0.254151  0  3.96102  0
C  C218  1  0.34006331  0.21107183  0.96281803  1  0.940794  0  0.090213  0.25405  0  3.963529  0
C  C219  1  0.16001479  0.03716397  0.78881033  1  0.943058  0  0.090241  0.254386  0  3.962104  0
C  C220  1  0.55829976  0.81754467  0.04122479  1  -0.022624  0  -0.02808  0.004883  0  4.020003  0
C  C221  1  0.94166813  0.95878596  0.18258950  1  -0.024565  0  -0.027998  0.004958  0  4.019647  0
C  C222  1  0.44168246  0.18243671  0.95875136  1  -0.021997  0  -0.028371  0.004335  0  4.020317  0
C  C223  1  0.05834792  0.04122759  0.81741982  1  -0.025606  0  -0.027928  0.004848  0  4.019641  0
C  C224  1  0.46604806  0.76846644  0.03027836  1  -0.103051  0  -0.092991  -0.124698  0  4.003162  0
C  C225  1  0.03394392  0.96968723  0.23159764  1  -0.103014  0  -0.093367  -0.125128  0  4.00369  0
C  C226  1  0.53392561  0.23151911  0.96970646  1  -0.102622  0  -0.092771  -0.124045  0  4.002376  0
C  C227  1  0.96607535  0.03031149  0.76841020  1  -0.103072  0  -0.093312  -0.125017  0  4.003861  0
C  C228  1  0.36772633  0.79251189  0.03306609  1  -0.045783  0  -0.104834  -0.0986  0  4.03232  0
C  C229  1  0.13226694  0.96689812  0.20751454  1  -0.043533  0  -0.104452  -0.098192  0  4.031787  0
C  C230  1  0.63225705  0.20748351  0.96693484  1  -0.045275  0  -0.104837  -0.098568  0  4.03242  0
C  C231  1  0.86774782  0.03309200  0.79248962  1  -0.043986  0  -0.104542  -0.098312  0  4.032115  0
C  C232  1  0.36126360  0.86560986  0.04547752  1  -0.028914  0  -0.080985  -0.052537  0  3.98037  0
C  C233  1  0.13865237  0.95448239  0.13440001  1  -0.032432  0  -0.081173  -0.052763  0  3.979711  0
C  C234  1  0.63873858  0.13439015  0.95452755  1  -0.029256  0  -0.080977  -0.052708  0  3.980839  0
C  C235  1  0.86134794  0.04551648  0.86560007  1  -0.032556  0  -0.08108  -0.052596  0  3.980313  0
C  C236  1  0.45283621  0.91480668  0.05662832  1  -0.075885  0  -0.089821  -0.087494  0  3.987448  0
C  C237  1  0.04699657  0.94333426  0.08525255  1  -0.070596  0  -0.088882  -0.08661  0  3.98749  0
C  C238  1  0.54717034  0.08519279  0.94336708  1  -0.075398  0  -0.089911  -0.087569  0  3.987483  0
C  C239  1  0.95299625  0.05667672  0.91475075  1  -0.070326  0  -0.088987  -0.086756  0  3.987856  0
C  C240  1  0.55154714  0.89114603  0.05491023  1  0.011366  0  -0.06637  -0.064828  0  3.889439  0
C  C241  1  0.94833050  0.94504898  0.10897228  1  0.009461  0  -0.067071  -0.065378  0  3.89121  0
C  C242  1  0.44844167  0.10883910  0.94505680  1  0.011681  0  -0.066324  -0.064811  0  3.888638  0
C  C243  1  0.05167143  0.05496382  0.89104019  1  0.009754  0  -0.067046  -0.06534  0  3.89124  0
N  N244  1  0.21710432  0.66847440  0.74022813  1  0.38861  0  0.060633  0.523008  0  4.185028  0
N  N245  1  0.28266552  0.25968828  0.33150101  1  0.388277  0  0.060552  0.523061  0  4.18448  0
N  N246  1  0.78289600  0.33152346  0.25977843  1  0.388793  0  0.060532  0.522847  0  4.185089  0
N  N247  1  0.71733370  0.74030466  0.66849101  1  0.387577  0  0.06054  0.523135  0  4.184216  0
N  N248  1  0.58209778  0.79832893  0.82075300  1  0.381042  0  0.05639  0.511035  0  4.195864  0
N  N249  1  0.91763093  0.17933654  0.20190770  1  0.386266  0  0.056883  0.512373  0  4.194643  0
N  N250  1  0.41790153  0.20167365  0.17924730  1  0.380667  0  0.056531  0.511254  0  4.195396  0
N  N251  1  0.08236016  0.82066325  0.79809359  1  0.358922  0  0.056994  0.512351  0  4.194603  0
N  N252  1  0.40709306  0.70790825  0.61387824  1  0.375001  0  0.059276  0.517929  0  4.202379  0
N  N253  1  0.09293095  0.38603602  0.29223250  1  0.375077  0  0.059499  0.518027  0  4.201377  0
N  N254  1  0.59290558  0.29209434  0.38612616  1  0.375521  0  0.059501  0.518159  0  4.202287  0
N  N255  1  0.90707285  0.61395973  0.70776916  1  0.375775  0  0.059884  0.518592  0  4.200904  0
N  N256  1  0.36742190  0.87478030  0.84330384  1  0.411689  0  0.055792  0.507763  0  4.216785  0
N  N257  1  0.13254870  0.15666967  0.12520292  1  0.411854  0  0.055512  0.507469  0  4.215436  0
N  N258  1  0.63260168  0.12523278  0.15669652  1  0.410461  0  0.056105  0.50833  0  4.2165  0
N  N259  1  0.86744606  0.84333061  0.87478579  1  0.411705  0  0.055583  0.507441  0  4.215768  0
N  N260  1  0.16759903  0.61784463  0.21761105  1  0.390523  0  0.061045  0.514613  0  4.180631  0
N  N261  1  0.33229751  0.78246496  0.38203752  1  0.389366  0  0.061357  0.514928  0  4.179611  0
N  N262  1  0.83240644  0.38215650  0.78239394  1  0.390013  0  0.061079  0.514813  0  4.180584  0
N  N263  1  0.66770650  0.21754351  0.61795918  1  0.389395  0  0.061227  0.514766  0  4.179871  0
N  N264  1  0.41276985  0.83941934  0.23310457  1  0.363341  0  0.060668  0.514054  0  4.188056  0
N  N265  1  0.08721494  0.76684030  0.16044633  1  0.384571  0  0.061765  0.51494  0  4.187626  0
N  N266  1  0.58722426  0.16059057  0.76689444  1  0.363206  0  0.060607  0.513772  0  4.188243  0
N  N267  1  0.91279284  0.23317677  0.83955554  1  0.385175  0  0.061846  0.514936  0  4.186722  0
N  N268  1  0.11815523  0.63057253  0.97924435  1  -1.195042  0  -0.274879  0.03723  0  3.717624  0
N  N269  1  0.38194085  0.02080453  0.36944730  1  -1.197089  0  -0.27503  0.036853  0  3.717951  0
N  N270  1  0.88184522  0.36942158  0.02075831  1  -1.195953  0  -0.274764  0.037091  0  3.717971  0
N  N271  1  0.61806436  0.97918640  0.63054566  1  -1.196744  0  -0.275023  0.036943  0  3.71795  0
N  N272  1  0.13719969  0.38339190  0.76429073  1  -1.20519  0  -0.277562  0.025663  0  3.728034  0
N  N273  1  0.36266232  0.23566988  0.61660201  1  -1.20619  0  -0.277195  0.026048  0  3.725884  0
N  N274  1  0.86279784  0.61660906  0.23571066  1  -1.2049  0  -0.277596  0.025536  0  3.728014  0
N  N275  1  0.63732967  0.76432618  0.38339543  1  -1.205772  0  -0.277228  0.025823  0  3.725742  0
O  O276  1  0.38898339  0.53762305  0.90654777  1  -1.192557  0  -0.382781  -0.651603  0  2.316605  0
O  O277  1  0.11106613  0.09326573  0.46220900  1  -1.192731  0  -0.38296  -0.651894  0  2.317664  0
O  O278  1  0.61101561  0.46238599  0.09346372  1  -1.192038  0  -0.382818  -0.651721  0  2.316292  0
O  O279  1  0.88892718  0.90673406  0.53778726  1  -1.192683  0  -0.38293  -0.651784  0  2.317327  0
O  O280  1  0.55097846  0.60053711  0.94922385  1  -1.192714  0  -0.369552  -0.642187  0  2.341157  0
O  O281  1  0.94910818  0.05045399  0.39933633  1  -1.193638  0  -0.370364  -0.643436  0  2.343306  0
O  O282  1  0.44902418  0.39947089  0.05078350  1  -1.192631  0  -0.369546  -0.642178  0  2.341386  0
O  O283  1  0.05088950  0.94953945  0.60065364  1  -1.193471  0  -0.370385  -0.643343  0  2.343364  0
O  O284  1  0.23917737  0.91273699  0.54744968  1  -1.172903  0  -0.371712  -0.61545  0  2.26119  0
O  O285  1  0.26067085  0.45261120  0.08726407  1  -1.171799  0  -0.372215  -0.615683  0  2.261048  0
O  O286  1  0.76084130  0.08726482  0.45254693  1  -1.173077  0  -0.371753  -0.615446  0  2.261238  0
O  O287  1  0.73933918  0.54738944  0.91273798  1  -1.171909  0  -0.372233  -0.615639  0  2.261039  0
O  O288  1  0.27307111  0.00360828  0.64373561  1  -1.171743  0  -0.365751  -0.606712  0  2.198869  0
O  O289  1  0.22689645  0.35627083  0.99645577  1  -1.170456  0  -0.36534  -0.605963  0  2.198597  0
O  O290  1  0.72692641  0.99638787  0.35626269  1  -1.171774  0  -0.365701  -0.606618  0  2.198581  0
O  O291  1  0.77310148  0.64373811  0.00354532  1  -1.170486  0  -0.365303  -0.605904  0  2.198472  0
O  O292  1  0.15153775  0.62245356  0.75236682  1  -0.458897  0  -0.119656  -0.320038  0  1.947941  0
O  O293  1  0.34821142  0.24752440  0.37749716  1  -0.457917  0  -0.119444  -0.319796  0  1.947773  0
O  O294  1  0.84846415  0.37754484  0.24763685  1  -0.458833  0  -0.119627  -0.320001  0  1.947725  0
O  O295  1  0.65178748  0.75245732  0.62248673  1  -0.457495  0  -0.119357  -0.319742  0  1.947545  0
O  O296  1  0.19609468  0.70841954  0.70025932  1  -0.444216  0  -0.120763  -0.321092  0  1.968398  0
O  O297  1  0.30370165  0.29958083  0.29148037  1  -0.444248  0  -0.121169  -0.321519  0  1.967886  0
O  O298  1  0.80391036  0.29157462  0.29973897  1  -0.444478  0  -0.120695  -0.320981  0  1.968635  0
O  O299  1  0.69629488  0.70042383  0.70852126  1  -0.444086  0  -0.121253  -0.321614  0  1.967791  0
O  O300  1  0.64224502  0.81779079  0.87765137  1  -0.433337  0  -0.107234  -0.304842  0  1.980418  0
O  O301  1  0.85740460  0.12245435  0.18249308  1  -0.433174  0  -0.107359  -0.30564  0  1.980335  0
O  O302  1  0.35776557  0.18219919  0.12234376  1  -0.433016  0  -0.107229  -0.304881  0  1.980231  0
O  O303  1  0.14257557  0.87755058  0.81751024  1  -0.43301  0  -0.107437  -0.305601  0  1.98012  0
O  O304  1  0.58599962  0.82653320  0.76935217  1  -0.459657  0  -0.116509  -0.32518  0  2.019182  0
O  O305  1  0.91387156  0.23070531  0.17365381  1  -0.462912  0  -0.116797  -0.325371  0  2.019231  0
O  O306  1  0.41399519  0.17347517  0.23065222  1  -0.459532  0  -0.11662  -0.325239  0  2.018836  0
O  O307  1  0.08612985  0.76929571  0.82634627  1  -0.462908  0  -0.116816  -0.325411  0  2.019266  0
O  O308  1  0.42834517  0.66164484  0.64631623  1  -0.44499  0  -0.12394  -0.325289  0  1.95125  0
O  O309  1  0.07160046  0.35357964  0.33847954  1  -0.449066  0  -0.124051  -0.325312  0  1.950393  0
O  O310  1  0.57163751  0.33835537  0.35369034  1  -0.445522  0  -0.124103  -0.325422  0  1.951366  0
O  O311  1  0.92841749  0.64641637  0.66152299  1  -0.448872  0  -0.12427  -0.325572  0  1.950125  0
O  O312  1  0.40819059  0.70155914  0.54902293  1  -0.426695  0  -0.124662  -0.319917  0  1.91348  0
O  O313  1  0.09203953  0.45090737  0.29865550  1  -0.424589  0  -0.124796  -0.319959  0  1.913019  0
O  O314  1  0.59180410  0.29843277  0.45098202  1  -0.427015  0  -0.124734  -0.320022  0  1.913478  0
O  O315  1  0.90795004  0.54908811  0.70134219  1  -0.425323  0  -0.124912  -0.320174  0  1.912997  0
O  O316  1  0.34104716  0.82717670  0.87389677  1  -0.449601  0  -0.112769  -0.320875  0  2.007439  0
O  O317  1  0.15867616  0.12612949  0.17289165  1  -0.449939  0  -0.112506  -0.320443  0  2.006722  0
O  O318  1  0.65898908  0.17284572  0.12611564  1  -0.450099  0  -0.112852  -0.321076  0  2.008013  0
O  O319  1  0.84130430  0.87386468  0.82709388  1  -0.449896  0  -0.112763  -0.320686  0  2.006997  0
O  O320  1  0.39987456  0.93764069  0.87306629  1  -0.425245  0  -0.094853  -0.284707  0  1.959992  0
O  O321  1  0.10058198  0.12683728  0.06229492  1  -0.424983  0  -0.094918  -0.285043  0  1.959747  0
O  O322  1  0.60016296  0.06237307  0.12692419  1  -0.423519  0  -0.095104  -0.285095  0  1.959571  0
O  O323  1  0.89942135  0.87316844  0.93769133  1  -0.424947  0  -0.094698  -0.284724  0  1.95971  0
O  O324  1  0.45895420  0.54936688  0.06005969  1  -1.20975  0  -0.400893  -0.708721  0  2.450056  0
O  O325  1  0.04108324  0.93987880  0.45079319  1  -1.20811  0  -0.400976  -0.708385  0  2.449073  0
O  O326  1  0.54105382  0.45064016  0.93994930  1  -1.209613  0  -0.400852  -0.7086  0  2.450043  0
O  O327  1  0.95891512  0.06011687  0.54921021  1  -1.208061  0  -0.400945  -0.70834  0  2.448763  0
O  O328  1  0.59494249  0.63201059  0.11186731  1  -1.166128  0  -0.353398  -0.610274  0  2.179532  0
O  O329  1  0.90523643  0.88803933  0.36807605  1  -1.164451  0  -0.353443  -0.610679  0  2.179521  0
O  O330  1  0.40506369  0.36799532  0.88813721  1  -1.165475  0  -0.353365  -0.610341  0  2.179568  0
O  O331  1  0.09475409  0.11195040  0.63193128  1  -1.164126  0  -0.353359  -0.610628  0  2.179285  0
O  O332  1  0.13500087  0.64264060  0.27504809  1  -0.458853  0  -0.111258  -0.319541  0  1.96601  0
O  O333  1  0.36496230  0.72506193  0.35720400  1  -0.458193  0  -0.111269  -0.319581  0  1.966013  0
O  O334  1  0.86500006  0.35736732  0.72495347  1  -0.458699  0  -0.111214  -0.319545  0  1.965836  0
O  O335  1  0.63505024  0.27495145  0.64279115  1  -0.458398  0  -0.111294  -0.319555  0  1.966016  0
O  O336  1  0.12537391  0.56322147  0.17333885  1  -0.44372  0  -0.097853  -0.292443  0  1.940599  0
O  O337  1  0.37436972  0.82670426  0.43671627  1  -0.4439  0  -0.098216  -0.292764  0  1.940511  0
O  O338  1  0.87464923  0.43677149  0.82667054  1  -0.443331  0  -0.097908  -0.292546  0  1.94075  0
O  O339  1  0.62564035  0.17331385  0.56327718  1  -0.443719  0  -0.098068  -0.292626  0  1.940676  0
O  O340  1  0.34127151  0.87779529  0.24255264  1  -0.44926  0  -0.107337  -0.316314  0  1.98491  0
O  O341  1  0.15871938  0.75736478  0.12204920  1  -0.447494  0  -0.108022  -0.316812  0  1.985001  0
O  O342  1  0.65873025  0.12220911  0.75747194  1  -0.4493  0  -0.107413  -0.31629  0  1.984623  0
O  O343  1  0.84130039  0.24269022  0.87795436  1  -0.44731  0  -0.108063  -0.316621  0  1.984622  0
O  O344  1  0.50820548  0.86184662  0.24059222  1  -0.447422  0  -0.102081  -0.299619  0  1.920978  0
O  O345  1  0.99178821  0.75933707  0.13804308  1  -0.447988  0  -0.101973  -0.299574  0  1.921804  0
O  O346  1  0.49179316  0.13816433  0.75939386  1  -0.447367  0  -0.102006  -0.299397  0  1.921104  0
O  O347  1  0.00822289  0.24065560  0.86195628  1  -0.448353  0  -0.102028  -0.299669  0  1.921421  0
O  O348  1  0.22599676  0.54923075  0.00223582  1  -1.173304  0  -0.364325  -0.545193  0  2.398394  0
O  O349  1  0.27401171  0.99771512  0.45077006  1  -1.173418  0  -0.364094  -0.544819  0  2.399383  0
O  O350  1  0.77399281  0.45076270  0.99777381  1  -1.173028  0  -0.364295  -0.545171  0  2.398523  0
O  O351  1  0.72598152  0.00227453  0.54922141  1  -1.17368  0  -0.364062  -0.544673  0  2.399355  0
O  O352  1  0.20516994  0.43342492  0.88042169  1  -1.171377  0  -0.367929  -0.542327  0  2.377534  0
O  O353  1  0.29485709  0.11949924  0.56649101  1  -1.169482  0  -0.36844  -0.542349  0  2.377904  0
O  O354  1  0.79484076  0.56659062  0.11958105  1  -1.170896  0  -0.367872  -0.542344  0  2.377328  0
O  O355  1  0.70514138  0.88049319  0.43350498  1  -1.169349  0  -0.368416  -0.542438  0  2.378192  0
O  O356  1  0.74631328  0.82448818  0.04093474  1  -1.083095  0  -0.254606  -0.349583  0  2.205182  0
O  O357  1  0.75376757  0.95939110  0.17554830  1  -1.083037  0  -0.254678  -0.350043  0  2.203342  0
O  O358  1  0.25367966  0.17548191  0.95906796  1  -1.082679  0  -0.254655  -0.349871  0  2.204529  0
O  O359  1  0.24623149  0.04062326  0.82446538  1  -1.082007  0  -0.254564  -0.350017  0  2.204469  0
