# generated using pymatgen
data_Zn3H46C70(NO3)6
_symmetry_space_group_name_H-M   'P 1'
_cell_length_a   11.09081426
_cell_length_b   14.80703693
_cell_length_c   19.53904841
_cell_angle_alpha   89.99996980
_cell_angle_beta   101.61563704
_cell_angle_gamma   90.00001109
_symmetry_Int_Tables_number   1
_chemical_formula_structural   Zn3H46C70(NO3)6
_chemical_formula_sum   'Zn6 H92 C140 N12 O36'
_cell_volume   3143.02949877
_cell_formula_units_Z   2
loop_
 _symmetry_equiv_pos_site_id
 _symmetry_equiv_pos_as_xyz
  1  'x, y, z'
loop_
 _atom_site_type_symbol
 _atom_site_label
 _atom_site_symmetry_multiplicity
 _atom_site_fract_x
 _atom_site_fract_y
 _atom_site_fract_z
 _atom_site_occupancy
 _atom_site_pbe_bader_charge
 _atom_site_pbe_bader_spin_density
 _atom_site_pbe_cm5_charge
 _atom_site_pbe_ddec_charge
 _atom_site_pbe_ddec_spin_density
 _atom_site_pbe_ddec_sum_bond_order
 _atom_site_pbe_magmom
Zn  Zn0  1  0.99999908  0.00000058  0.50000026  1  1.454265  0  0.710934  1.075478  0  2.262869  0
Zn  Zn1  1  0.50000080  0.50000082  0.00000078  1  1.454388  0  0.710927  1.075475  0  2.262853  0
Zn  Zn2  1  0.70900387  0.04266882  0.38213249  1  1.281885  0  0.693415  0.841834  0  2.383079  0
Zn  Zn3  1  0.79099602  0.54266835  0.11786802  1  1.281751  0  0.693429  0.841845  0  2.383064  0
Zn  Zn4  1  0.29099647  0.95733044  0.61786754  1  1.281891  0  0.693434  0.841875  0  2.383037  0
Zn  Zn5  1  0.20900340  0.45733361  0.88213191  1  1.281834  0  0.693416  0.841868  0  2.383042  0
H  H6  1  0.50126899  0.87256674  0.49440871  1  0.058709  0  0.103981  0.111107  0  0.997648  0
H  H7  1  0.99873002  0.37256820  0.00559157  1  0.058695  0  0.104003  0.111135  0  0.997614  0
H  H8  1  0.49873135  0.12743251  0.50559183  1  0.058697  0  0.103985  0.111133  0  0.997653  0
H  H9  1  0.00127032  0.62743376  0.99440898  1  0.058752  0  0.103976  0.111105  0  0.997642  0
H  H10  1  0.42985636  0.77050172  0.57928424  1  0.099987  0  0.098253  0.104178  0  1.034137  0
H  H11  1  0.07014439  0.27050147  0.92071795  1  0.099979  0  0.098257  0.104218  0  1.034101  0
H  H12  1  0.57014397  0.22949821  0.42071631  1  0.099973  0  0.09825  0.104175  0  1.034125  0
H  H13  1  0.92985687  0.72950116  0.07928271  1  0.099974  0  0.098257  0.104201  0  1.034103  0
H  H14  1  0.80295163  0.74692846  0.69457569  1  0.08172  0  0.104  0.10633  0  1.022773  0
H  H15  1  0.69704977  0.24692763  0.80542507  1  0.081743  0  0.103997  0.106353  0  1.022721  0
H  H16  1  0.19704871  0.25307215  0.30542434  1  0.081728  0  0.103989  0.106347  0  1.022724  0
H  H17  1  0.30295149  0.75307230  0.19457558  1  0.081724  0  0.104008  0.106349  0  1.022826  0
H  H18  1  0.87423838  0.84558294  0.60715986  1  0.115754  0  0.107772  0.120262  0  1.001272  0
H  H19  1  0.62576211  0.34558339  0.89283974  1  0.115762  0  0.10778  0.120291  0  1.001243  0
H  H20  1  0.12576104  0.15441632  0.39284007  1  0.115748  0  0.107782  0.120296  0  1.001273  0
H  H21  1  0.37423914  0.65441654  0.10716091  1  0.11575  0  0.107767  0.120272  0  1.001268  0
H  H22  1  0.69826986  0.73843786  0.78262913  1  0.098684  0  0.098356  0.108532  0  1.047574  0
H  H23  1  0.80173154  0.23843982  0.71737163  1  0.098686  0  0.09837  0.108555  0  1.047513  0
H  H24  1  0.30173049  0.26156139  0.21737039  1  0.098689  0  0.098346  0.108542  0  1.047541  0
H  H25  1  0.19827064  0.76156282  0.28262912  1  0.098683  0  0.098367  0.108514  0  1.047586  0
H  H26  1  0.62007069  0.63657410  0.86631382  1  0.132667  0  0.106272  0.121349  0  0.999268  0
H  H27  1  0.87992978  0.13657680  0.63368637  1  0.132985  0  0.10628  0.121321  0  0.999237  0
H  H28  1  0.37993241  0.36342516  0.13368756  1  0.133014  0  0.106262  0.121327  0  0.999356  0
H  H29  1  0.12007056  0.86342449  0.36631366  1  0.132655  0  0.106273  0.121341  0  0.999283  0
H  H30  1  0.35417803  0.52491034  0.69682582  1  0.077071  0  0.106025  0.114285  0  1.000677  0
H  H31  1  0.14582179  0.02491018  0.80317379  1  0.077071  0  0.106011  0.114281  0  1.000619  0
H  H32  1  0.64581954  0.47508959  0.30317543  1  0.077056  0  0.106012  0.114281  0  1.000716  0
H  H33  1  0.85417671  0.97508975  0.19682654  1  0.077066  0  0.106011  0.114256  0  1.000628  0
H  H34  1  0.43664054  0.62185145  0.61247141  1  0.072495  0  0.097199  0.095121  0  1.032867  0
H  H35  1  0.06336021  0.12184987  0.88752879  1  0.072482  0  0.097207  0.095141  0  1.032866  0
H  H36  1  0.56335704  0.37814916  0.38752882  1  0.072487  0  0.097197  0.095101  0  1.032881  0
H  H37  1  0.93664013  0.87815007  0.11247176  1  0.072517  0  0.097213  0.095125  0  1.03287  0
H  H38  1  0.04466110  0.23587617  0.54942935  1  0.096999  0  0.102662  0.107248  0  1.03185  0
H  H39  1  0.45533875  0.73587617  0.95056916  1  0.09736  0  0.102654  0.107241  0  1.031801  0
H  H40  1  0.95534016  0.76412241  0.45057130  1  0.097043  0  0.10266  0.107264  0  1.031845  0
H  H41  1  0.54466160  0.26412444  0.04942883  1  0.09699  0  0.102665  0.107233  0  1.031871  0
H  H42  1  0.12013400  0.39109021  0.57312119  1  0.094983  0  0.097096  0.094005  0  1.072933  0
H  H43  1  0.37986495  0.89109021  0.92687664  1  0.094943  0  0.097058  0.09394  0  1.072978  0
H  H44  1  0.87986819  0.60890905  0.42687701  1  0.095004  0  0.097089  0.093996  0  1.072935  0
H  H45  1  0.62013356  0.10891040  0.07312113  1  0.094986  0  0.097071  0.093981  0  1.072964  0
H  H46  1  0.82623705  0.48705820  0.40814804  1  0.079305  0  0.101153  0.10498  0  1.022901  0
H  H47  1  0.67376014  0.98705841  0.09185044  1  0.07916  0  0.101146  0.104988  0  1.022864  0
H  H48  1  0.17376329  0.51293970  0.59185199  1  0.079103  0  0.101131  0.10499  0  1.022882  0
H  H49  1  0.32623469  0.01294355  0.90814742  1  0.079326  0  0.10114  0.104958  0  1.02288  0
H  H50  1  0.75689769  0.32979379  0.38511280  1  0.099526  0  0.099531  0.0995  0  1.045218  0
H  H51  1  0.74310040  0.82979466  0.11488535  1  0.099565  0  0.099543  0.099559  0  1.045189  0
H  H52  1  0.24310081  0.67020479  0.61488753  1  0.099534  0  0.099548  0.099506  0  1.045247  0
H  H53  1  0.25689626  0.17020865  0.88511375  1  0.099545  0  0.099546  0.099517  0  1.045198  0
H  H54  1  0.44484060  0.98846708  0.37326517  1  0.124989  0  0.126425  0.10201  0  0.984346  0
H  H55  1  0.05515871  0.48846636  0.12673404  1  0.124958  0  0.126419  0.101969  0  0.984383  0
H  H56  1  0.55515974  0.01153420  0.62673435  1  0.124972  0  0.12643  0.102011  0  0.984355  0
H  H57  1  0.94483887  0.51153357  0.87326618  1  0.124954  0  0.126414  0.101973  0  0.984387  0
H  H58  1  0.25342396  0.97805786  0.27873747  1  0.12172  0  0.117007  0.136393  0  1.003937  0
H  H59  1  0.24657719  0.47805642  0.22126144  1  0.121694  0  0.116991  0.136385  0  1.003925  0
H  H60  1  0.74657730  0.02194342  0.72126215  1  0.121701  0  0.117003  0.136397  0  1.003897  0
H  H61  1  0.75342223  0.52194283  0.77873848  1  0.121679  0  0.116989  0.136385  0  1.003926  0
H  H62  1  0.45758300  0.10789733  0.13994515  1  0.118408  0  0.114656  0.130416  0  1.019953  0
H  H63  1  0.04241994  0.60789598  0.36005514  1  0.118441  0  0.11465  0.130411  0  1.019987  0
H  H64  1  0.54241826  0.89210260  0.86005447  1  0.118348  0  0.114637  0.130386  0  1.020022  0
H  H65  1  0.95758131  0.39210260  0.63994602  1  0.118366  0  0.114655  0.1304  0  1.020012  0
H  H66  1  0.64079618  0.11055010  0.23813086  1  0.156469  0  0.121812  0.100738  0  1.025379  0
H  H67  1  0.85920556  0.61055022  0.26186933  1  0.156502  0  0.121825  0.100785  0  1.025365  0
H  H68  1  0.35920600  0.88944915  0.76186939  1  0.1565  0  0.121815  0.100746  0  1.025399  0
H  H69  1  0.14079478  0.38945039  0.73813121  1  0.156512  0  0.121831  0.100797  0  1.025357  0
H  H70  1  0.94021009  0.19100651  0.10201351  1  0.128098  0  0.116613  0.12071  0  0.999615  0
H  H71  1  0.55978889  0.69100716  0.39798684  1  0.128073  0  0.116602  0.120694  0  0.999638  0
H  H72  1  0.05979025  0.80899342  0.89798703  1  0.128072  0  0.116598  0.120698  0  0.999644  0
H  H73  1  0.44020960  0.30899277  0.60201400  1  0.128084  0  0.116606  0.120687  0  0.999616  0
H  H74  1  0.23290225  0.83024580  0.00173819  1  0.143643  0  0.117299  0.122865  0  0.99938  0
H  H75  1  0.26709795  0.33024688  0.49826272  1  0.143661  0  0.117311  0.122861  0  0.999344  0
H  H76  1  0.76709716  0.16975346  0.99826276  1  0.143662  0  0.117304  0.122856  0  0.99938  0
H  H77  1  0.73290147  0.66975238  0.50173771  1  0.143657  0  0.117309  0.122866  0  0.999388  0
H  H78  1  0.19941537  0.62932552  0.77880852  1  0.490053  0  0.303616  0.257778  0  0.993639  0
H  H79  1  0.30058537  0.12932477  0.72119219  1  0.490028  0  0.303602  0.257734  0  0.993655  0
H  H80  1  0.80058313  0.37067171  0.22119079  1  0.4901  0  0.303599  0.25777  0  0.993661  0
H  H81  1  0.69941496  0.87067449  0.27880887  1  0.490049  0  0.303593  0.25774  0  0.993677  0
H  H82  1  0.01731957  0.67396309  0.70185987  1  0.102935  0  0.104349  0.124759  0  1.002086  0
H  H83  1  0.48268118  0.17396231  0.79814082  1  0.102915  0  0.10433  0.124708  0  1.002077  0
H  H84  1  0.98267985  0.32603684  0.29813955  1  0.102957  0  0.104342  0.124761  0  1.00209  0
H  H85  1  0.51731916  0.82603694  0.20185921  1  0.102937  0  0.104337  0.124713  0  1.002089  0
H  H86  1  0.09048535  0.78050704  0.69664771  1  0.057646  0  0.101492  0.119092  0  0.994316  0
H  H87  1  0.40951542  0.28050692  0.80335293  1  0.057814  0  0.101496  0.119082  0  0.994312  0
H  H88  1  0.90951684  0.21949155  0.30335253  1  0.05767  0  0.101486  0.119096  0  0.994326  0
H  H89  1  0.59048584  0.71949234  0.19664772  1  0.058014  0  0.101493  0.119092  0  0.994299  0
H  H90  1  0.00321695  0.76240413  0.76254603  1  0.076019  0  0.099841  0.1137  0  1.02038  0
H  H91  1  0.49678381  0.26240339  0.73745360  1  0.076017  0  0.099816  0.113684  0  1.020334  0
H  H92  1  0.99678523  0.23759513  0.23745370  1  0.076009  0  0.099864  0.113733  0  1.020361  0
H  H93  1  0.50321653  0.73759519  0.26254644  1  0.076011  0  0.099835  0.11369  0  1.020388  0
H  H94  1  0.33039702  0.71192947  0.85408840  1  0.058903  0  0.110663  0.028301  0  1.010177  0
H  H95  1  0.16960374  0.21192875  0.64591227  1  0.058907  0  0.110671  0.0283  0  1.010174  0
H  H96  1  0.66960332  0.28806574  0.14591214  1  0.058966  0  0.110696  0.028315  0  1.010183  0
H  H97  1  0.83039568  0.78807118  0.35408868  1  0.0589  0  0.110672  0.028316  0  1.010163  0
C  C98  1  0.73662241  0.92060946  0.49254505  1  1.549201  0  0.217915  0.602789  0  4.172655  0
C  C99  1  0.76337661  0.42061020  0.00745418  1  1.549194  0  0.217931  0.602771  0  4.172677  0
C  C100  1  0.26337701  0.07939115  0.50745487  1  1.549175  0  0.217934  0.602824  0  4.172572  0
C  C101  1  0.23662281  0.57939041  0.99254574  1  1.549191  0  0.217933  0.602825  0  4.172648  0
C  C102  1  0.69238988  0.86336638  0.54500780  1  -0.036468  0  -0.023037  -0.051005  0  3.992221  0
C  C103  1  0.80760970  0.36336750  0.95499168  1  -0.036478  0  -0.022967  -0.050977  0  3.992194  0
C  C104  1  0.30761046  0.13663287  0.45499223  1  -0.036484  0  -0.023007  -0.051041  0  3.992273  0
C  C105  1  0.19239064  0.63663244  0.04500886  1  -0.036489  0  -0.022969  -0.051002  0  3.992187  0
C  C106  1  0.56688379  0.84297540  0.53761067  1  -0.030484  0  -0.089035  -0.097299  0  4.001044  0
C  C107  1  0.93311578  0.34297585  0.96238984  1  -0.030481  0  -0.089064  -0.097299  0  4.001138  0
C  C108  1  0.43311655  0.15702453  0.46238936  1  -0.030494  0  -0.089054  -0.09735  0  4.001141  0
C  C109  1  0.06688456  0.65702543  0.03761019  1  -0.03052  0  -0.089045  -0.097265  0  4.001006  0
C  C110  1  0.52757020  0.78567830  0.58500809  1  -0.047111  0  -0.096525  -0.142297  0  3.992132  0
C  C111  1  0.97242936  0.28567744  0.91499347  1  -0.047108  0  -0.096549  -0.142423  0  3.992248  0
C  C112  1  0.47243014  0.21432096  0.41499246  1  -0.047112  0  -0.096529  -0.142304  0  3.992101  0
C  C113  1  0.02757098  0.71432250  0.08500758  1  -0.047086  0  -0.096553  -0.14239  0  3.992201  0
C  C114  1  0.61227179  0.75005671  0.64205372  1  -0.029319  0  -0.009596  0.060632  0  4.00621  0
C  C115  1  0.88772869  0.25005655  0.85794745  1  -0.029328  0  -0.009526  0.060782  0  4.006177  0
C  C116  1  0.38772855  0.24994390  0.35794683  1  -0.029289  0  -0.00954  0.060769  0  4.006062  0
C  C117  1  0.11227257  0.74994474  0.14205269  1  -0.029327  0  -0.009589  0.060667  0  4.006268  0
C  C118  1  0.73697483  0.77391361  0.65049346  1  -0.05573  0  -0.085683  -0.117849  0  3.966888  0
C  C119  1  0.76302565  0.27391277  0.84950770  1  -0.055735  0  -0.085731  -0.117949  0  3.966874  0
C  C120  1  0.26302459  0.22608497  0.34950698  1  -0.055706  0  -0.08571  -0.117947  0  3.966767  0
C  C121  1  0.23697561  0.72608649  0.15049295  1  -0.05575  0  -0.085696  -0.117872  0  3.966951  0
C  C122  1  0.77724530  0.82858494  0.60187370  1  -0.011853  0  -0.078637  -0.07697  0  3.946233  0
C  C123  1  0.72275520  0.32858472  0.89812641  1  -0.011864  0  -0.078688  -0.07704  0  3.946232  0
C  C124  1  0.22275504  0.17141432  0.39812684  1  -0.011863  0  -0.078663  -0.076995  0  3.946202  0
C  C125  1  0.27724514  0.67141521  0.10187413  1  -0.011856  0  -0.078668  -0.077001  0  3.946325  0
C  C126  1  0.57074534  0.68846503  0.69185091  1  -0.059242  0  -0.007518  0.071534  0  3.99675  0
C  C127  1  0.92925697  0.18846626  0.80815050  1  -0.059404  0  -0.00751  0.071535  0  3.996734  0
C  C128  1  0.42925684  0.31153491  0.30814985  1  -0.058962  0  -0.007531  0.071495  0  3.996793  0
C  C129  1  0.07074613  0.81153503  0.19185037  1  -0.059216  0  -0.007477  0.071544  0  3.996739  0
C  C130  1  0.62440603  0.69056063  0.76354569  1  -0.051859  0  -0.092048  -0.136613  0  3.966902  0
C  C131  1  0.87559629  0.19056258  0.73645418  1  -0.051656  0  -0.092022  -0.136605  0  3.966738  0
C  C132  1  0.37559523  0.30943930  0.23645496  1  -0.052122  0  -0.092042  -0.136627  0  3.966916  0
C  C133  1  0.12440682  0.80944005  0.26354566  1  -0.051856  0  -0.092055  -0.136584  0  3.966875  0
C  C134  1  0.58088424  0.63438056  0.81039757  1  -0.101435  0  -0.086999  -0.100957  0  3.97693  0
C  C135  1  0.91911623  0.13438255  0.68960313  1  -0.10174  0  -0.086995  -0.100856  0  3.97673  0
C  C136  1  0.41911610  0.36561937  0.18960349  1  -0.101303  0  -0.086977  -0.100915  0  3.977087  0
C  C137  1  0.08088595  0.86562008  0.31039762  1  -0.101428  0  -0.087012  -0.101005  0  3.976908  0
C  C138  1  0.48111693  0.57658507  0.78651053  1  0.002811  0  -0.021381  -0.045289  0  3.995985  0
C  C139  1  0.01888566  0.07658766  0.71348938  1  0.002788  0  -0.021453  -0.045403  0  3.995925  0
C  C140  1  0.51888433  0.42341418  0.21349063  1  0.002384  0  -0.021381  -0.045278  0  3.996009  0
C  C141  1  0.98111652  0.92341497  0.28651138  1  0.00279  0  -0.021362  -0.045163  0  3.995786  0
C  C142  1  0.42941540  0.57203320  0.71497372  1  -0.075323  0  -0.087479  -0.095416  0  3.983603  0
C  C143  1  0.07058627  0.07203440  0.78502558  1  -0.075263  0  -0.087491  -0.095458  0  3.983592  0
C  C144  1  0.57058401  0.42796808  0.28502774  1  -0.075332  0  -0.087456  -0.09543  0  3.983693  0
C  C145  1  0.92941407  0.92796621  0.21497496  1  -0.075254  0  -0.087504  -0.095451  0  3.983487  0
C  C146  1  0.47518024  0.62657688  0.66824259  1  -0.025016  0  -0.095977  -0.141164  0  3.998794  0
C  C147  1  0.02482143  0.12657669  0.83175771  1  -0.025099  0  -0.095954  -0.141127  0  3.998773  0
C  C148  1  0.52482010  0.37342372  0.33175796  1  -0.025052  0  -0.095981  -0.141121  0  3.998826  0
C  C149  1  0.97517983  0.87342324  0.16824396  1  -0.025065  0  -0.095973  -0.141152  0  3.998776  0
C  C150  1  0.42527323  0.52523987  0.83799048  1  1.547151  0  0.223489  0.606744  0  4.163898  0
C  C151  1  0.07472475  0.02523980  0.66200943  1  1.547204  0  0.223512  0.606718  0  4.164156  0
C  C152  1  0.57472987  0.47476074  0.16201141  1  1.547142  0  0.2234  0.606638  0  4.164074  0
C  C153  1  0.92527283  0.97475946  0.33799079  1  1.547146  0  0.223483  0.606699  0  4.163939  0
C  C154  1  0.85001753  0.17910934  0.45529695  1  1.570659  0  0.215847  0.591206  0  4.179776  0
C  C155  1  0.64998146  0.67910957  0.04470136  1  1.570627  0  0.215794  0.591082  0  4.179817  0
C  C156  1  0.14998097  0.82088924  0.54470287  1  1.570627  0  0.215827  0.591134  0  4.179677  0
C  C157  1  0.35001888  0.32089171  0.95529817  1  1.570628  0  0.215773  0.591127  0  4.179863  0
C  C158  1  0.89435968  0.27366168  0.46750948  1  -0.049391  0  -0.021338  -0.040028  0  3.98638  0
C  C159  1  0.60563932  0.77366326  0.03248879  1  -0.049514  0  -0.021387  -0.040005  0  3.986477  0
C  C160  1  0.10563974  0.72633690  0.53248993  1  -0.04943  0  -0.02137  -0.040009  0  3.986401  0
C  C161  1  0.39436102  0.22634072  0.96751124  1  -0.049688  0  -0.021333  -0.040081  0  3.9865  0
C  C162  1  0.99730422  0.29227309  0.51982508  1  -0.009484  0  -0.082182  -0.080682  0  3.963851  0
C  C163  1  0.50269720  0.79227502  0.98017362  1  -0.009706  0  -0.082138  -0.080646  0  3.963974  0
C  C164  1  0.00269797  0.70772482  0.48017465  1  -0.009465  0  -0.082157  -0.08068  0  3.964009  0
C  C165  1  0.49730315  0.20772761  0.01982539  1  -0.009293  0  -0.082187  -0.080603  0  3.963937  0
C  C166  1  0.03890581  0.38036896  0.53217598  1  -0.068412  0  -0.092742  -0.140521  0  3.982633  0
C  C167  1  0.46109314  0.88036962  0.96782135  1  -0.06847  0  -0.092722  -0.140472  0  3.982641  0
C  C168  1  0.96109638  0.61963029  0.46782222  1  -0.068454  0  -0.092725  -0.140469  0  3.982642  0
C  C169  1  0.53890537  0.11963166  0.03217643  1  -0.068406  0  -0.092711  -0.14054  0  3.982652  0
C  C170  1  0.97811993  0.45314526  0.49319867  1  0.021466  0  -0.002809  0.077062  0  3.972192  0
C  C171  1  0.52187910  0.95314685  0.00679902  1  -0.021627  0  -0.002762  0.077132  0  3.97223  0
C  C172  1  0.02188134  0.54685265  0.50679942  1  -0.021624  0  -0.00283  0.077014  0  3.972235  0
C  C173  1  0.47811849  0.04685511  0.99319967  1  0.021482  0  -0.002795  0.07708  0  3.972239  0
C  C174  1  0.87510234  0.43316963  0.44023128  1  -0.099373  0  -0.092783  -0.132252  0  3.961102  0
C  C175  1  0.62489577  0.93317052  0.05976631  1  -0.099148  0  -0.092779  -0.132281  0  3.961118  0
C  C176  1  0.12489800  0.56682895  0.55976773  1  -0.099091  0  -0.092747  -0.132226  0  3.961094  0
C  C177  1  0.37510182  0.06683144  0.94023187  1  -0.099285  0  -0.09277  -0.132211  0  3.96099  0
C  C178  1  0.83477231  0.34492983  0.42712695  1  -0.049095  0  -0.087852  -0.091575  0  3.989223  0
C  C179  1  0.66522577  0.84493072  0.07287323  1  -0.04912  0  -0.087893  -0.091693  0  3.989267  0
C  C180  1  0.16522803  0.65506875  0.57287308  1  -0.049183  0  -0.087894  -0.091664  0  3.989282  0
C  C181  1  0.33477273  0.15507462  0.92712608  1  -0.049084  0  -0.087891  -0.091624  0  3.989067  0
C  C182  1  0.44266285  0.01391830  0.32070110  1  0.496681  0  0.060544  0.113318  0  3.916816  0
C  C183  1  0.05733733  0.51391775  0.17929789  1  0.496682  0  0.060547  0.113345  0  3.916832  0
C  C184  1  0.55733749  0.98608298  0.67929893  1  0.496696  0  0.060523  0.113277  0  3.916899  0
C  C185  1  0.94266117  0.48608286  0.82070193  1  0.496723  0  0.060553  0.113332  0  3.916739  0
C  C186  1  0.33721508  0.00878629  0.26852888  1  0.027722  0  -0.067223  -0.179628  0  3.899706  0
C  C187  1  0.16278601  0.50878437  0.23147022  1  0.027796  0  -0.067218  -0.179627  0  3.899723  0
C  C188  1  0.66278526  0.99121499  0.73147115  1  0.027661  0  -0.067245  -0.179645  0  3.899694  0
C  C189  1  0.83721341  0.49121489  0.76852971  1  0.027583  0  -0.067204  -0.179602  0  3.89966  0
C  C190  1  0.34369356  0.04180035  0.20264567  1  0.227776  0  0.115791  0.238287  0  4.004623  0
C  C191  1  0.15630938  0.54179838  0.29735312  1  0.227643  0  0.115828  0.238221  0  4.00466  0
C  C192  1  0.65630770  0.95820026  0.79735396  1  0.227814  0  0.115817  0.23826  0  4.004594  0
C  C193  1  0.84369188  0.45820088  0.70264651  1  0.227817  0  0.115795  0.238217  0  4.004655  0
C  C194  1  0.45151008  0.08129982  0.19106394  1  0.097514  0  -0.069784  -0.178495  0  3.908867  0
C  C195  1  0.04849287  0.58129851  0.30893585  1  0.097363  0  -0.069742  -0.178405  0  3.908799  0
C  C196  1  0.54849119  0.91870011  0.80893569  1  0.097408  0  -0.069746  -0.178414  0  3.908833  0
C  C197  1  0.95150747  0.41870075  0.69106469  1  0.097427  0  -0.069773  -0.178411  0  3.908893  0
C  C198  1  0.55307012  0.08322728  0.24571359  1  0.46574  0  0.05789  0.113631  0  3.893681  0
C  C199  1  0.94693163  0.58322673  0.25428610  1  0.465942  0  0.057809  0.113446  0  3.893511  0
C  C200  1  0.44693023  0.91677266  0.75428644  1  0.465946  0  0.057853  0.11355  0  3.893569  0
C  C201  1  0.05306871  0.41677185  0.74571444  1  0.465974  0  0.057852  0.113478  0  3.893558  0
C  C202  1  0.14510131  0.09326643  0.13659496  1  1.358379  0  0.252382  0.453941  0  4.085385  0
C  C203  1  0.35489795  0.59326647  0.36340543  1  1.358169  0  0.252355  0.453887  0  4.085585  0
C  C204  1  0.85489903  0.90673350  0.86340507  1  1.358376  0  0.252331  0.453858  0  4.085409  0
C  C205  1  0.64509962  0.40673481  0.63659633  1  1.358401  0  0.252435  0.45399  0  4.085354  0
C  C206  1  0.04358951  0.07877131  0.07585488  1  -0.026083  0  -0.002281  -0.064616  0  3.979698  0
C  C207  1  0.45640975  0.57877132  0.42414500  1  -0.02617  0  -0.002285  -0.064629  0  3.979677  0
C  C208  1  0.95640991  0.92122930  0.92414505  1  -0.02608  0  -0.002329  -0.064701  0  3.979698  0
C  C209  1  0.54358875  0.42122996  0.57585482  1  -0.026075  0  -0.002314  -0.064701  0  3.979641  0
C  C210  1  0.04944943  0.00646786  0.02903305  1  0.003069  0  0.004605  0.027941  0  4.004278  0
C  C211  1  0.45054981  0.50646784  0.47096737  1  0.003067  0  0.004594  0.027925  0  4.004287  0
C  C212  1  0.95055091  0.99353274  0.97096698  1  -0.060822  0  0.004612  0.027912  0  4.004233  0
C  C213  1  0.54944961  0.49353344  0.52903256  1  -0.06084  0  0.004631  0.027957  0  4.004268  0
C  C214  1  0.15094397  0.94635477  0.03888238  1  -0.00348  0  -0.001841  -0.066819  0  3.985604  0
C  C215  1  0.34905533  0.44635520  0.46111787  1  -0.003475  0  -0.001804  -0.066811  0  3.985551  0
C  C216  1  0.84905637  0.05364584  0.96111817  1  -0.003483  0  -0.001778  -0.066742  0  3.985558  0
C  C217  1  0.65094409  0.55364540  0.53888257  1  -0.003491  0  -0.001823  -0.066767  0  3.985624  0
C  C218  1  0.25332564  0.95784659  0.09936859  1  1.349596  0  0.25  0.443647  0  4.0798  0
C  C219  1  0.24667366  0.45784773  0.40063216  1  1.349821  0  0.250016  0.443686  0  4.079841  0
C  C220  1  0.74667286  0.04215200  0.90063225  1  1.349843  0  0.250035  0.443728  0  4.079789  0
C  C221  1  0.75332577  0.54215221  0.59936674  1  1.349814  0  0.249971  0.443606  0  4.079767  0
C  C222  1  0.94290862  0.13657903  0.06500597  1  0.032835  0  -0.054634  -0.050997  0  3.903593  0
C  C223  1  0.55709035  0.63657965  0.43499491  1  0.032868  0  -0.054629  -0.050955  0  3.903629  0
C  C224  1  0.05709079  0.86342091  0.93499447  1  0.032869  0  -0.054587  -0.050903  0  3.903544  0
C  C225  1  0.44290906  0.36342028  0.56500604  1  0.032841  0  -0.054614  -0.050927  0  3.903474  0
C  C226  1  0.15424465  0.87579204  0.99245708  1  -0.027357  0  -0.053161  -0.050615  0  3.901031  0
C  C227  1  0.34575521  0.37579144  0.50754342  1  -0.02739  0  -0.053169  -0.05057  0  3.900922  0
C  C228  1  0.84575477  0.12420722  0.00754336  1  -0.027389  0  -0.053168  -0.050598  0  3.90108  0
C  C229  1  0.65424513  0.62420782  0.49245661  1  -0.027373  0  -0.053184  -0.050646  0  3.901075  0
C  C230  1  0.06509456  0.72998847  0.73248502  1  0.250785  0  -0.138894  -0.22103  0  3.919079  0
C  C231  1  0.43490437  0.22998703  0.76751441  1  0.250659  0  -0.13886  -0.220976  0  3.919018  0
C  C232  1  0.93490487  0.27001078  0.26751388  1  0.250744  0  -0.138896  -0.22108  0  3.919158  0
C  C233  1  0.56509505  0.77001087  0.23248501  1  0.25042  0  -0.138881  -0.220967  0  3.919045  0
C  C234  1  0.25154525  0.74951161  0.82304602  1  1.371233  0  0.162633  0.352011  0  4.174645  0
C  C235  1  0.24845367  0.24951155  0.67695443  1  1.371318  0  0.162629  0.352028  0  4.174637  0
C  C236  1  0.74845602  0.25048427  0.17695361  1  1.371251  0  0.162605  0.352084  0  4.17464  0
C  C237  1  0.75154574  0.75048838  0.32304652  1  1.37123  0  0.162641  0.352021  0  4.174662  0
N  N238  1  0.54870000  0.04918736  0.30910047  1  -1.259324  0  -0.328472  -0.238255  0  3.567192  0
N  N239  1  0.95130082  0.54918618  0.19089861  1  -1.259288  0  -0.328456  -0.238152  0  3.567055  0
N  N240  1  0.45130035  0.95081325  0.69089905  1  -1.259312  0  -0.32843  -0.238169  0  3.567102  0
N  N241  1  0.04869860  0.45081443  0.80910131  1  -1.259306  0  -0.328467  -0.238181  0  3.566997  0
N  N242  1  0.24192604  0.03061176  0.14467855  1  -1.189806  0  -0.230359  -0.232499  0  3.580592  0
N  N243  1  0.25807599  0.53060977  0.35532064  1  -1.189532  0  -0.230387  -0.23243  0  3.580684  0
N  N244  1  0.75807523  0.96938884  0.85532108  1  -1.189806  0  -0.230407  -0.23249  0  3.580634  0
N  N245  1  0.74192436  0.46938949  0.64467939  1  -1.189798  0  -0.230363  -0.232456  0  3.580638  0
N  N246  1  0.17461253  0.69575609  0.77932415  1  -1.254108  0  -0.426952  -0.267013  0  3.63513  0
N  N247  1  0.32538823  0.19575535  0.72067602  1  -1.254134  0  -0.426936  -0.266927  0  3.635101  0
N  N248  1  0.82538782  0.30424114  0.22067537  1  -1.254075  0  -0.426954  -0.26702  0  3.635185  0
N  N249  1  0.67461211  0.80424391  0.27932453  1  -1.254092  0  -0.42694  -0.266993  0  3.635172  0
O  O250  1  0.65544538  0.97163318  0.45451686  1  -1.177396  0  -0.326205  -0.556376  0  2.344531  0
O  O251  1  0.84455273  0.47163458  0.04548225  1  -1.177375  0  -0.326236  -0.556367  0  2.344543  0
O  O252  1  0.34455404  0.02836743  0.54548357  1  -1.177373  0  -0.326221  -0.55642  0  2.344504  0
O  O253  1  0.15544578  0.52836670  0.95451706  1  -1.177387  0  -0.326211  -0.556406  0  2.344538  0
O  O254  1  0.84780765  0.91446982  0.48672456  1  -1.187443  0  -0.31583  -0.58448  0  2.380687  0
O  O255  1  0.65219137  0.41447122  0.01327417  1  -1.187559  0  -0.315826  -0.584457  0  2.380725  0
O  O256  1  0.15219178  0.08552944  0.51327435  1  -1.187538  0  -0.315844  -0.584464  0  2.380696  0
O  O257  1  0.34780804  0.58552939  0.98672627  1  -1.187539  0  -0.315829  -0.584465  0  2.380729  0
O  O258  1  0.30652700  0.51967494  0.82238960  1  -1.156765  0  -0.32073  -0.571235  0  2.381372  0
O  O259  1  0.19347006  0.01967151  0.67761071  1  -1.156767  0  -0.320779  -0.571284  0  2.381505  0
O  O260  1  0.69347518  0.48032499  0.17761167  1  -1.156828  0  -0.320698  -0.571204  0  2.381484  0
O  O261  1  0.80652752  0.98032573  0.32239002  1  -1.156783  0  -0.320753  -0.57125  0  2.381489  0
O  O262  1  0.49383173  0.49340026  0.89181868  1  -1.186592  0  -0.306553  -0.560362  0  2.343337  0
O  O263  1  0.00616446  0.99340313  0.60817981  1  -1.186623  0  -0.30653  -0.560305  0  2.343506  0
O  O264  1  0.50617044  0.50660102  0.10818259  1  -1.186532  0  -0.306496  -0.560304  0  2.3434  0
O  O265  1  0.99383312  0.00659950  0.39181939  1  -1.186604  0  -0.306548  -0.560351  0  2.343291  0
O  O266  1  0.89114589  0.11861512  0.49945145  1  -1.194639  0  -0.315911  -0.580339  0  2.346587  0
O  O267  1  0.60885125  0.61861537  0.00054717  1  -1.194644  0  -0.315901  -0.580308  0  2.346585  0
O  O268  1  0.10885076  0.88138414  0.50054917  1  -1.194592  0  -0.315914  -0.58032  0  2.346462  0
O  O269  1  0.39114725  0.38138659  0.99945213  1  -1.194696  0  -0.31592  -0.58034  0  2.346599  0
O  O270  1  0.76778706  0.16592170  0.39914676  1  -1.170556  0  -0.323022  -0.546726  0  2.346331  0
O  O271  1  0.73220824  0.66592123  0.10085215  1  -1.170378  0  -0.322986  -0.546694  0  2.346378  0
O  O272  1  0.23221236  0.83407755  0.60085215  1  -1.170528  0  -0.322978  -0.546674  0  2.34633  0
O  O273  1  0.26778933  0.33408005  0.89914858  1  -1.170483  0  -0.322955  -0.546667  0  2.346355  0
O  O274  1  0.34432859  0.90873480  0.11184735  1  -1.110584  0  -0.248945  -0.420039  0  2.17121  0
O  O275  1  0.15567162  0.40873459  0.38815251  1  -1.110806  0  -0.248961  -0.420076  0  2.171239  0
O  O276  1  0.65567175  0.09126580  0.88815218  1  -1.110814  0  -0.24897  -0.420107  0  2.171267  0
O  O277  1  0.84433057  0.59126332  0.61184569  1  -1.110809  0  -0.248918  -0.420024  0  2.171119  0
O  O278  1  0.14830533  0.15610546  0.17829650  1  -1.120891  0  -0.261554  -0.437697  0  2.141178  0
O  O279  1  0.35169301  0.65610620  0.32170375  1  -1.12088  0  -0.261522  -0.437682  0  2.14119  0
O  O280  1  0.85169409  0.84389380  0.82170342  1  -1.120897  0  -0.261502  -0.437639  0  2.14109  0
O  O281  1  0.64830363  0.34389643  0.67829892  1  -1.120884  0  -0.261574  -0.437713  0  2.14111  0
O  O282  1  0.23836341  0.83249782  0.82938463  1  -1.150296  0  -0.320093  -0.478854  0  2.16873  0
O  O283  1  0.26163552  0.33249710  0.67061629  1  -1.150358  0  -0.32009  -0.47888  0  2.168773  0
O  O284  1  0.76163878  0.16749874  0.17061510  1  -1.150437  0  -0.32009  -0.478909  0  2.168766  0
O  O285  1  0.73836389  0.66750216  0.32938517  1  -1.150291  0  -0.320098  -0.478864  0  2.16873  0
