# generated using pymatgen
data_Zn4H8C24S4O19
_symmetry_space_group_name_H-M   'P 1'
_cell_length_a   19.66412868
_cell_length_b   19.71602199
_cell_length_c   33.35911547
_cell_angle_alpha   79.09998791
_cell_angle_beta   79.25058453
_cell_angle_gamma   63.99136469
_symmetry_Int_Tables_number   1
_chemical_formula_structural   Zn4H8C24S4O19
_chemical_formula_sum   'Zn16 H32 C96 S16 O76'
_cell_volume   11334.88293154
_cell_formula_units_Z   4
loop_
 _symmetry_equiv_pos_site_id
 _symmetry_equiv_pos_as_xyz
  1  'x, y, z'
loop_
 _atom_site_type_symbol
 _atom_site_label
 _atom_site_symmetry_multiplicity
 _atom_site_fract_x
 _atom_site_fract_y
 _atom_site_fract_z
 _atom_site_occupancy
 _atom_site_pbe_bader_charge
 _atom_site_pbe_bader_spin_density
 _atom_site_pbe_cm5_charge
 _atom_site_pbe_ddec_charge
 _atom_site_pbe_ddec_spin_density
 _atom_site_pbe_ddec_sum_bond_order
 _atom_site_pbe_magmom
Zn  Zn0  1  0.05661330  0.40003152  0.47862379  1  1.324449  0  0.673526  0.972554  0  2.351218  0
Zn  Zn1  1  0.98417705  0.48276727  0.56061342  1  1.317534  0  0.679569  0.961715  0  2.384609  0
Zn  Zn2  1  0.05857178  0.56073854  0.48259227  1  1.315437  0  0.671794  0.957087  0  2.380466  0
Zn  Zn3  1  0.90112604  0.55465946  0.47966811  1  1.317395  0  0.671944  0.957433  0  2.382189  0
Zn  Zn4  1  0.69300814  0.34975018  0.27161154  1  1.321165  0  0.673156  0.972537  0  2.344497  0
Zn  Zn5  1  0.69048165  0.18807370  0.26725601  1  1.320028  0  0.676666  0.968648  0  2.358826  0
Zn  Zn6  1  0.76826986  0.26658643  0.19029743  1  1.315011  0  0.67145  0.958098  0  2.372187  0
Zn  Zn7  1  0.84746909  0.19488913  0.27180723  1  1.315487  0  0.674147  0.951319  0  2.391954  0
Zn  Zn8  1  0.26657438  0.76644022  0.68940228  1  1.316166  0  0.679336  0.961543  0  2.383808  0
Zn  Zn9  1  0.35035096  0.69544895  0.77082310  1  1.32204  0  0.676092  0.966744  0  2.369295  0
Zn  Zn10  1  0.19328903  0.84848328  0.77098950  1  1.311487  0  0.668813  0.962502  0  2.365826  0
Zn  Zn11  1  0.19174353  0.68890072  0.76740221  1  1.314777  0  0.671879  0.957687  0  2.378107  0
Zn  Zn12  1  0.55903167  0.06223716  0.98280024  1  1.319891  0  0.676397  0.968035  0  2.360245  0
Zn  Zn13  1  0.40090669  0.05503814  0.97767743  1  1.327106  0  0.67931  0.961803  0  2.375432  0
Zn  Zn14  1  0.55695686  0.90164221  0.97886895  1  1.311639  0  0.668576  0.962973  0  2.359583  0
Zn  Zn15  1  0.48092019  0.98419731  0.05968051  1  1.315907  0  0.671765  0.958028  0  2.370929  0
H  H16  1  0.74806700  0.45354469  0.35052837  1  0.107361  0  0.114397  0.138609  0  0.980914  0
H  H17  1  0.00152129  0.29732646  0.39956100  1  0.138135  0  0.114417  0.138745  0  0.981078  0
H  H18  1  0.20088027  0.70046463  0.59874726  1  0.106643  0  0.115631  0.140583  0  0.978461  0
H  H19  1  0.04905499  0.54960106  0.65117378  1  0.106307  0  0.115547  0.140474  0  0.978651  0
H  H20  1  0.65103770  0.15196440  0.04931456  1  0.097944  0  0.11501  0.139824  0  0.980322  0
H  H21  1  0.59904093  0.09788458  0.20069503  1  0.098789  0  0.115081  0.140075  0  0.980295  0
H  H22  1  0.29829243  0.00071536  0.89973391  1  0.153249  0  0.115867  0.141839  0  0.977915  0
H  H23  1  0.45226541  0.74839947  0.85010203  1  0.140872  0  0.115136  0.140665  0  0.978421  0
H  H24  1  0.80909920  0.52744641  0.41840696  1  0.642629  0  0.305861  0.357012  0  0.965364  0
H  H25  1  0.94058702  0.22312460  0.33183852  1  0.643884  0  0.307093  0.358703  0  0.962459  0
H  H26  1  0.13677885  0.63734556  0.52685566  1  0.644813  0  0.305533  0.356321  0  0.965385  0
H  H27  1  0.11311025  0.61276211  0.72306250  1  0.646278  0  0.305443  0.356109  0  0.966088  0
H  H28  1  0.72320106  0.22269208  0.11326781  1  0.641607  0  0.305779  0.356506  0  0.965191  0
H  H29  1  0.52674477  0.02729646  0.13673523  1  0.64161  0  0.305798  0.356478  0  0.96531  0
H  H30  1  0.22209225  0.94150434  0.83197355  1  0.63817  0  0.304511  0.354369  0  0.969347  0
H  H31  1  0.52830920  0.80751563  0.91804487  1  0.628189  0  0.304305  0.354266  0  0.967477  0
H  H32  1  0.32732235  0.54069009  0.39829138  1  0.594437  0  0.344293  0.370791  0  0.861754  0
H  H33  1  0.42209303  0.20964919  0.35213000  1  0.589876  0  0.344296  0.370306  0  0.862234  0
H  H34  1  0.75517802  0.54118660  0.68408626  1  0.626693  0  0.344001  0.36914  0  0.864196  0
H  H35  1  0.49529805  0.70859809  0.56562382  1  0.620744  0  0.343988  0.369886  0  0.862717  0
H  H36  1  0.04148001  0.25490734  0.68388485  1  0.625335  0  0.344255  0.370085  0  0.862881  0
H  H37  1  0.20873025  0.99451651  0.56649638  1  0.598702  0  0.344138  0.370399  0  0.862466  0
H  H38  1  0.74409835  0.81622451  0.38723172  1  0.611074  0  0.344376  0.370934  0  0.862177  0
H  H39  1  0.00566187  0.93282615  0.36314046  1  0.616004  0  0.344898  0.3709  0  0.861785  0
H  H40  1  0.70819178  0.49553654  0.06580617  1  0.626206  0  0.344636  0.371327  0  0.860914  0
H  H41  1  0.54156525  0.75495499  0.18393012  1  0.626541  0  0.344455  0.370692  0  0.862219  0
H  H42  1  0.14825172  0.07709945  0.21988697  1  0.624483  0  0.344867  0.37106  0  0.861613  0
H  H43  1  0.10100739  0.17331641  0.03053309  1  0.611398  0  0.343945  0.369622  0  0.863358  0
H  H44  1  0.50613402  0.43359417  0.86266675  1  0.606134  0  0.344056  0.370509  0  0.86317  0
H  H45  1  0.24431043  0.31735952  0.88693769  1  0.632449  0  0.34446  0.370371  0  0.862938  0
H  H46  1  0.92291910  0.70925102  0.85157240  1  0.596562  0  0.344872  0.370938  0  0.860815  0
H  H47  1  0.82764645  0.04045135  0.89797509  1  0.592914  0  0.344318  0.37025  0  0.862534  0
C  C48  1  0.06181931  0.31596134  0.56195085  1  1.590115  0  0.213149  0.62214  0  4.222835  0
C  C49  1  0.06980765  0.57045885  0.56931927  1  1.495606  0  0.228431  0.615312  0  4.145679  0
C  C50  1  0.18378616  0.44051596  0.43873329  1  1.58002  0  0.212798  0.621694  0  4.221886  0
C  C51  1  0.93609148  0.68391652  0.43902697  1  1.585948  0  0.212601  0.622166  0  4.2209  0
C  C52  1  0.93050736  0.42991581  0.43063250  1  1.505085  0  0.228779  0.618934  0  4.140719  0
C  C53  1  0.81684729  0.56039537  0.56223958  1  1.564005  0  0.212091  0.620021  0  4.22486  0
C  C54  1  0.56577143  0.30971153  0.31136325  1  1.591635  0  0.212568  0.621203  0  4.220885  0
C  C55  1  0.68152276  0.17935157  0.18025500  1  1.509203  0  0.229046  0.618582  0  4.1397  0
C  C56  1  0.68925875  0.43340258  0.18781922  1  1.568421  0  0.212785  0.622505  0  4.217714  0
C  C57  1  0.93476333  0.18801877  0.18956420  1  1.555002  0  0.212697  0.620705  0  4.220918  0
C  C58  1  0.81879080  0.32070644  0.31969518  1  1.514993  0  0.228693  0.617368  0  4.140429  0
C  C59  1  0.81321666  0.06539542  0.31167468  1  1.594611  0  0.213312  0.620553  0  4.225333  0
C  C60  1  0.43365120  0.68947668  0.68756797  1  1.568303  0  0.212747  0.622078  0  4.222103  0
C  C61  1  0.31916272  0.82068326  0.81927648  1  1.523598  0  0.22827  0.617953  0  4.14041  0
C  C62  1  0.18841238  0.93346346  0.68830026  1  1.592343  0  0.212687  0.621925  0  4.224976  0
C  C63  1  0.06610664  0.80960949  0.81127996  1  1.579935  0  0.212103  0.621136  0  4.22219  0
C  C64  1  0.18027633  0.67945328  0.68062552  1  1.49343  0  0.228619  0.616517  0  4.144827  0
C  C65  1  0.31405052  0.56606092  0.81095720  1  1.582477  0  0.213667  0.623898  0  4.218578  0
C  C66  1  0.43673208  0.18459825  0.93836819  1  1.595908  0  0.213448  0.620689  0  4.224715  0
C  C67  1  0.43166552  0.92883063  0.93024784  1  1.521035  0  0.228309  0.61663  0  4.139458  0
C  C68  1  0.68406631  0.94040299  0.93863645  1  1.586519  0  0.21275  0.622009  0  4.220518  0
C  C69  1  0.56057714  0.81712597  0.06201005  1  1.566289  0  0.212467  0.622698  0  4.216603  0
C  C70  1  0.56850968  0.07055382  0.06975553  1  1.513084  0  0.228655  0.617003  0  4.141821  0
C  C71  1  0.31467900  0.06220212  0.06060101  1  1.559522  0  0.213249  0.621742  0  4.219676  0
C  C72  1  0.90110205  0.40298085  0.40202992  1  -0.03522  0  -0.031132  -0.160011  0  4.0001  0
C  C73  1  0.84851268  0.34795372  0.34798823  1  -0.02576  0  -0.030815  -0.159497  0  3.996429  0
C  C74  1  0.82833749  0.44810587  0.38802766  1  0.513743  0  0.081154  0.289904  0  4.078722  0
C  C75  1  0.92135192  0.30286089  0.36194504  1  0.534578  0  0.08156  0.289558  0  4.079314  0
C  C76  1  0.80363655  0.41949283  0.36125780  1  0.048087  0  -0.096612  -0.19233  0  3.949107  0
C  C77  1  0.94604601  0.33149067  0.38872132  1  0.021332  0  -0.095836  -0.191494  0  3.950442  0
C  C78  1  0.09856480  0.59904670  0.59735857  1  0.032201  0  -0.03129  -0.15985  0  4.002751  0
C  C79  1  0.15134876  0.65105119  0.65257091  1  0.034404  0  -0.031525  -0.160989  0  4.003365  0
C  C80  1  0.14203961  0.64227086  0.58203378  1  0.534331  0  0.080679  0.289664  0  4.084476  0
C  C81  1  0.10782725  0.60786052  0.66788570  1  0.539698  0  0.080728  0.289944  0  4.084775  0
C  C82  1  0.16757648  0.66742307  0.61008644  1  -0.008139  0  -0.094874  -0.190487  0  3.949445  0
C  C83  1  0.08231144  0.58269067  0.63984317  1  -0.00955  0  -0.094808  -0.190596  0  3.948723  0
C  C84  1  0.30468652  0.45491930  0.40086754  1  0.596858  0  0.087262  0.281968  0  4.085188  0
C  C85  1  0.44482048  0.29539102  0.34937383  1  0.551891  0  0.087781  0.281794  0  4.084532  0
C  C86  1  0.25818075  0.41614262  0.41405321  1  -0.081846  0  -0.038404  -0.232592  0  3.917749  0
C  C87  1  0.49136348  0.33411862  0.33612864  1  -0.10534  0  -0.038347  -0.232261  0  3.915075  0
C  C88  1  0.37671668  0.33968243  0.37301771  1  -0.113991  0  -0.038594  -0.136394  0  4.146441  0
C  C89  1  0.37279771  0.41065632  0.37722037  1  -0.177818  0  -0.039529  -0.138484  0  4.147636  0
C  C90  1  0.72605934  0.57580782  0.62980822  1  0.662049  0  0.08814  0.28326  0  4.086464  0
C  C91  1  0.52441902  0.67394129  0.61990789  1  0.62357  0  0.087589  0.282474  0  4.087397  0
C  C92  1  0.74283063  0.58494834  0.58713177  1  -0.138877  0  -0.038575  -0.233148  0  3.920531  0
C  C93  1  0.50765510  0.66479243  0.66259643  1  -0.144076  0  -0.038005  -0.23266  0  3.920543  0
C  C94  1  0.60429373  0.64133865  0.60803630  1  -0.126357  0  -0.03865  -0.138577  0  4.151172  0
C  C95  1  0.64618928  0.60836170  0.64166393  1  -0.185564  0  -0.039237  -0.138669  0  4.151219  0
C  C96  1  0.07629086  0.22544139  0.62974881  1  0.555892  0  0.088242  0.282784  0  4.085303  0
C  C97  1  0.17396039  0.02401261  0.62061244  1  0.620601  0  0.088263  0.282705  0  4.086779  0
C  C98  1  0.08590597  0.24200823  0.58703945  1  -0.074279  0  -0.038844  -0.233385  0  3.919655  0
C  C99  1  0.16438290  0.00742913  0.66331295  1  -0.151992  0  -0.038848  -0.233036  0  3.922392  0
C  C100  1  0.14172173  0.10371067  0.60847306  1  -0.150965  0  -0.038843  -0.137569  0  4.149446  0
C  C101  1  0.10854031  0.14572840  0.64190244  1  -0.12516  0  -0.038423  -0.137899  0  4.149042  0
C  C102  1  0.84270330  0.80085397  0.39727563  1  0.60754  0  0.086999  0.282382  0  4.087396  0
C  C103  1  0.90699826  0.94812670  0.35316777  1  0.568299  0  0.088013  0.281511  0  4.087022  0
C  C104  1  0.91119790  0.75796315  0.41411516  1  -0.118674  0  -0.038813  -0.234284  0  3.920681  0
C  C105  1  0.83840093  0.99107325  0.33639052  1  -0.114476  0  -0.038495  -0.23187  0  3.917136  0
C  C106  1  0.90844196  0.87858214  0.37533591  1  -0.139033  0  -0.038877  -0.138001  0  4.147553  0
C  C107  1  0.84143375  0.87023397  0.37499239  1  -0.176913  0  -0.038699  -0.137829  0  4.148631  0
C  C108  1  0.65304619  0.15190262  0.15143393  1  -0.016297  0  -0.030925  -0.158551  0  3.998584  0
C  C109  1  0.59715213  0.09783864  0.09857596  1  -0.020536  0  -0.030713  -0.158113  0  3.997345  0
C  C110  1  0.66808230  0.16767286  0.10802495  1  0.584431  0  0.080235  0.287431  0  4.081575  0
C  C111  1  0.58209607  0.08208395  0.14198450  1  0.581851  0  0.080293  0.287753  0  4.081773  0
C  C112  1  0.63977795  0.14017800  0.08249916  1  -0.012428  0  -0.095459  -0.191068  0  3.946387  0
C  C113  1  0.61041409  0.10957001  0.16751097  1  -0.01201  0  -0.0955  -0.191552  0  3.948108  0
C  C114  1  0.67395561  0.52458744  0.12005574  1  0.621933  0  0.087775  0.28282  0  4.08329  0
C  C115  1  0.57575982  0.72592762  0.12968219  1  0.621983  0  0.087911  0.283351  0  4.085485  0
C  C116  1  0.66464626  0.50751543  0.16275472  1  -0.135561  0  -0.038228  -0.232606  0  3.912421  0
C  C117  1  0.58505716  0.74300604  0.08699909  1  -0.143663  0  -0.038767  -0.233538  0  3.91529  0
C  C118  1  0.60827926  0.64611661  0.14163537  1  -0.150513  0  -0.038569  -0.137344  0  4.146494  0
C  C119  1  0.64146468  0.60440836  0.10808671  1  -0.128228  0  -0.038515  -0.137703  0  4.146117  0
C  C120  1  0.08160991  0.12407527  0.17803542  1  0.559443  0  0.088374  0.283978  0  4.083596  0
C  C121  1  0.16782061  0.12609005  0.07226092  1  0.569548  0  0.087861  0.282942  0  4.084866  0
C  C122  1  0.00920134  0.16296442  0.16503664  1  -0.104747  0  -0.038887  -0.233069  0  3.918049  0
C  C123  1  0.24025548  0.08724765  0.08520801  1  -0.106068  0  -0.038222  -0.232672  0  3.916451  0
C  C124  1  0.11003808  0.13939818  0.10625908  1  -0.190908  0  -0.038153  -0.136884  0  4.148281  0
C  C125  1  0.13945177  0.11063599  0.14404873  1  -0.169706  0  -0.038908  -0.138603  0  4.147559  0
C  C126  1  0.34691669  0.84926932  0.84787998  1  0.046867  0  -0.031362  -0.159899  0  4.000824  0
C  C127  1  0.40373468  0.89990751  0.90189681  1  -0.042181  0  -0.031182  -0.158147  0  3.998184  0
C  C128  1  0.30236928  0.92162250  0.86205569  1  0.515663  0  0.080656  0.289109  0  4.081605  0
C  C129  1  0.44816059  0.82745339  0.88783035  1  0.50024  0  0.080649  0.287916  0  4.083141  0
C  C130  1  0.33185728  0.94546403  0.88880393  1  0.039893  0  -0.09491  -0.191903  0  3.947321  0
C  C131  1  0.41873931  0.80364945  0.86103484  1  -0.056459  0  -0.095059  -0.190942  0  3.948019  0
C  C132  1  0.40750330  0.44901491  0.85265763  1  0.601243  0  0.087075  0.281835  0  4.08836  0
C  C133  1  0.34302216  0.30192503  0.89689669  1  0.56732  0  0.087582  0.281378  0  4.085939  0
C  C134  1  0.33902004  0.49193347  0.83582195  1  -0.105971  0  -0.038609  -0.234378  0  3.92103  0
C  C135  1  0.41159615  0.25895564  0.91368044  1  -0.113877  0  -0.038395  -0.231644  0  3.917606  0
C  C136  1  0.34170521  0.37136481  0.87464143  1  -0.131698  0  -0.038739  -0.138037  0  4.148657  0
C  C137  1  0.40875859  0.37963771  0.87494600  1  -0.183026  0  -0.039179  -0.137567  0  4.148961  0
C  C138  1  0.94522923  0.79521488  0.84912309  1  0.604561  0  0.087669  0.28216  0  4.083521  0
C  C139  1  0.80501151  0.95467087  0.90066431  1  0.551343  0  0.087944  0.282313  0  4.085694  0
C  C140  1  0.99175589  0.83398586  0.83600954  1  -0.088076  0  -0.03887  -0.233291  0  3.917876  0
C  C141  1  0.75842652  0.91598616  0.91383772  1  -0.089901  0  -0.03836  -0.233052  0  3.915344  0
C  C142  1  0.87314487  0.91038505  0.87703821  1  -0.113225  0  -0.038634  -0.1368  0  4.145353  0
C  C143  1  0.87705262  0.83944487  0.87275814  1  -0.181086  0  -0.038672  -0.137109  0  4.144464  0
S  S144  1  0.29770913  0.32606984  0.39772562  1  0.234937  0  0.059037  0.110729  0  2.793374  0
S  S145  1  0.45179805  0.42422803  0.35245444  1  0.250115  0  0.059046  0.1109  0  2.791227  0
S  S146  1  0.66147313  0.63305934  0.56169178  1  0.240664  0  0.060067  0.112929  0  2.792975  0
S  S147  1  0.58903037  0.61663863  0.68801040  1  0.24417  0  0.06026  0.1128  0  2.793872  0
S  S148  1  0.13406226  0.16060736  0.56198233  1  0.242944  0  0.058988  0.111003  0  2.79326  0
S  S149  1  0.11626185  0.08880780  0.68840286  1  0.239849  0  0.058868  0.11111  0  2.792271  0
S  S150  1  0.97363234  0.80218860  0.40271343  1  0.238417  0  0.061131  0.114351  0  2.791967  0
S  S151  1  0.77616003  0.94662343  0.34769296  1  0.253894  0  0.060648  0.113002  0  2.792442  0
S  S152  1  0.61626067  0.58874239  0.18801473  1  0.239283  0  0.059557  0.111566  0  2.789301  0
S  S153  1  0.63345418  0.66180653  0.06171297  1  0.241549  0  0.059596  0.111823  0  2.788537  0
S  S154  1  0.01192379  0.18290627  0.11162339  1  0.299163  0  0.060477  0.112672  0  2.791953  0
S  S155  1  0.23759178  0.06717334  0.13863294  1  0.297982  0  0.059976  0.112233  0  2.790551  0
S  S156  1  0.27653819  0.44775274  0.84726410  1  0.231781  0  0.060089  0.113141  0  2.794289  0
S  S157  1  0.47396730  0.30322857  0.90228757  1  0.250882  0  0.059877  0.111796  0  2.794442  0
S  S158  1  0.95221422  0.92399011  0.85243086  1  0.237652  0  0.059623  0.111694  0  2.79189  0
S  S159  1  0.79796192  0.82591774  0.89744115  1  0.235979  0  0.058991  0.111188  0  2.78933  0
O  O160  1  0.00059253  0.49886095  0.50013976  1  -1.228033  0  -0.571314  -1.028287  0  2.537585  0
O  O161  1  0.07859968  0.31476289  0.52287865  1  -1.176468  0  -0.325687  -0.556202  0  2.326293  0
O  O162  1  0.03204382  0.53161576  0.58493737  1  -1.169002  0  -0.306787  -0.528024  0  2.347121  0
O  O163  1  0.15514666  0.50689244  0.44994178  1  -1.162642  0  -0.314595  -0.526447  0  2.332903  0
O  O164  1  0.02663613  0.37461281  0.58088733  1  -1.16545  0  -0.312115  -0.523804  0  2.33811  0
O  O165  1  0.15401068  0.39230783  0.44681463  1  -1.178105  0  -0.325223  -0.555497  0  2.329129  0
O  O166  1  0.08525609  0.58712899  0.53019118  1  -1.17229  0  -0.309124  -0.555487  0  2.366358  0
O  O167  1  0.00274998  0.65786035  0.45054041  1  -1.176337  0  -0.325636  -0.553589  0  2.334533  0
O  O168  1  0.88660460  0.49603592  0.44246022  1  -1.170436  0  -0.309741  -0.556061  0  2.37111  0
O  O169  1  0.89033473  0.65177767  0.44716877  1  -1.152682  0  -0.314434  -0.528023  0  2.330588  0
O  O170  1  0.99597955  0.38758766  0.44191592  1  -1.171658  0  -0.308737  -0.533813  0  2.333294  0
O  O171  1  0.87587149  0.52609617  0.58113484  1  -1.15852  0  -0.31115  -0.522907  0  2.336694  0
O  O172  1  0.81528499  0.57604197  0.52311301  1  -1.167909  0  -0.326542  -0.554847  0  2.334864  0
O  O173  1  0.74879400  0.25057085  0.25033381  1  -1.228157  0  -0.570501  -1.027859  0  2.531545  0
O  O174  1  0.59529932  0.35815926  0.30314675  1  -1.17753  0  -0.325218  -0.555344  0  2.327488  0
O  O175  1  0.66654618  0.16321393  0.21863231  1  -1.173859  0  -0.307903  -0.53228  0  2.33903  0
O  O176  1  0.72540193  0.37462669  0.16895867  1  -1.155046  0  -0.314806  -0.527711  0  2.328892  0
O  O177  1  0.59455250  0.24328237  0.30025612  1  -1.166309  0  -0.312768  -0.525776  0  2.329478  0
O  O178  1  0.67204975  0.43452410  0.22685856  1  -1.166736  0  -0.324575  -0.555377  0  2.325315  0
O  O179  1  0.72045486  0.21858770  0.16415854  1  -1.169216  0  -0.309733  -0.556735  0  2.363562  0
O  O180  1  0.87678156  0.22228858  0.16928912  1  -1.166307  0  -0.32623  -0.555159  0  2.330945  0
O  O181  1  0.86225350  0.25407206  0.30843175  1  -1.179594  0  -0.309127  -0.554134  0  2.374235  0
O  O182  1  0.93354027  0.17402975  0.22856287  1  -1.138007  0  -0.3134  -0.524749  0  2.334216  0
O  O183  1  0.75349861  0.36310204  0.30815684  1  -1.171975  0  -0.309056  -0.53397  0  2.329526  0
O  O184  1  0.74677904  0.09147290  0.29992131  1  -1.171639  0  -0.324047  -0.553641  0  2.332006  0
O  O185  1  0.85884394  0.09768260  0.30397287  1  -1.158374  0  -0.313619  -0.524402  0  2.334882  0
O  O186  1  0.25046367  0.75007322  0.74989017  1  -1.226689  0  -0.570858  -1.028046  0  2.536666  0
O  O187  1  0.37466143  0.72417567  0.66863865  1  -1.154982  0  -0.311706  -0.52375  0  2.334993  0
O  O188  1  0.36206531  0.75614255  0.80736857  1  -1.181319  0  -0.307569  -0.531265  0  2.343666  0
O  O189  1  0.17187456  0.93460020  0.72740455  1  -1.18032  0  -0.328273  -0.558156  0  2.329383  0
O  O190  1  0.43523601  0.67360784  0.72666206  1  -1.159014  0  -0.324668  -0.554485  0  2.332851  0
O  O191  1  0.22325386  0.87481304  0.66937029  1  -1.169797  0  -0.31112  -0.523225  0  2.339981  0
O  O192  1  0.25208449  0.86400111  0.80812049  1  -1.175801  0  -0.30965  -0.557057  0  2.359269  0
O  O193  1  0.09605592  0.85771139  0.80340725  1  -1.177999  0  -0.326556  -0.556101  0  2.330337  0
O  O194  1  0.16475264  0.66284959  0.71975450  1  -1.172257  0  -0.309285  -0.556195  0  2.365395  0
O  O195  1  0.09467100  0.74350852  0.79975430  1  -1.162544  0  -0.313682  -0.52626  0  2.331231  0
O  O196  1  0.21828978  0.71805389  0.66501646  1  -1.166396  0  -0.306778  -0.528307  0  2.347083  0
O  O197  1  0.35987902  0.59805712  0.80265862  1  -1.152143  0  -0.313079  -0.527057  0  2.328624  0
O  O198  1  0.24715770  0.59216569  0.79969400  1  -1.174558  0  -0.32668  -0.554849  0  2.335227  0
O  O199  1  0.49997969  0.00046305  0.99963904  1  -1.229308  0  -0.570614  -1.027918  0  2.530156  0
O  O200  1  0.50341420  0.15842349  0.94987132  1  -1.1705  0  -0.324932  -0.554062  0  2.332678  0
O  O201  1  0.38917866  0.99397600  0.94150001  1  -1.174326  0  -0.306317  -0.528157  0  2.345373  0
O  O202  1  0.65438611  0.89203445  0.94670819  1  -1.178549  0  -0.327341  -0.556955  0  2.329828  0
O  O203  1  0.39099482  0.15248965  0.94624289  1  -1.158045  0  -0.311626  -0.523115  0  2.334497  0
O  O204  1  0.65534456  0.00661513  0.94997787  1  -1.162988  0  -0.311981  -0.525523  0  2.328407  0
O  O205  1  0.49837545  0.88532829  0.94184143  1  -1.176146  0  -0.309797  -0.558042  0  2.357316  0
O  O206  1  0.57777371  0.81599543  0.02294155  1  -1.170858  0  -0.326573  -0.556863  0  2.326958  0
O  O207  1  0.52927719  0.03161533  0.08585172  1  -1.168217  0  -0.309821  -0.556319  0  2.363882  0
O  O208  1  0.52465328  0.87594547  0.08082297  1  -1.154929  0  -0.314242  -0.527423  0  2.328228  0
O  O209  1  0.58361336  0.08657341  0.03138034  1  -1.174749  0  -0.307456  -0.531225  0  2.339932  0
O  O210  1  0.31583167  0.07644469  0.02163539  1  -1.136372  0  -0.311602  -0.52415  0  2.332654  0
O  O211  1  0.37265360  0.02764617  0.08089304  1  -1.175433  0  -0.326254  -0.554758  0  2.329936  0
O  O212  1  0.78157535  0.51776620  0.39945818  1  -1.152218  0  -0.369288  -0.457345  0  2.243543  0
O  O213  1  0.96817314  0.23318728  0.35057464  1  -1.14944  0  -0.368534  -0.456277  0  2.244682  0
O  O214  1  0.16000104  0.66018453  0.54139445  1  -1.155784  0  -0.36871  -0.45678  0  2.244465  0
O  O215  1  0.08987892  0.58993570  0.70852663  1  -1.157432  0  -0.368616  -0.456489  0  2.245388  0
O  O216  1  0.70867433  0.20831906  0.09015521  1  -1.152098  0  -0.368886  -0.45639  0  2.245189  0
O  O217  1  0.54141570  0.04152262  0.15985124  1  -1.152978  0  -0.368953  -0.456418  0  2.245384  0
O  O218  1  0.23242506  0.96876726  0.85073458  1  -1.148231  0  -0.369028  -0.456525  0  2.24487  0
O  O219  1  0.51802939  0.78027364  0.89925905  1  -1.138971  0  -0.369614  -0.457022  0  2.244628  0
O  O220  1  0.28599413  0.52559437  0.40987844  1  -1.083568  0  -0.328646  -0.395493  0  2.269524  0
O  O221  1  0.46341082  0.22469562  0.34041754  1  -1.078381  0  -0.329983  -0.395921  0  2.26715  0
O  O222  1  0.77994316  0.54023807  0.65589404  1  -1.124002  0  -0.328202  -0.393244  0  2.270491  0
O  O223  1  0.47053057  0.70959919  0.59381746  1  -1.11715  0  -0.328364  -0.394101  0  2.268787  0
O  O224  1  0.04058856  0.27938430  0.65560309  1  -1.114829  0  -0.328474  -0.394008  0  2.270619  0
O  O225  1  0.20963821  0.97004713  0.59477673  1  -1.084216  0  -0.328117  -0.394051  0  2.269496  0
O  O226  1  0.78564954  0.77806138  0.40207426  1  -1.092025  0  -0.328617  -0.395561  0  2.270023  0
O  O227  1  0.96393896  0.97105000  0.34843367  1  -1.104776  0  -0.328733  -0.394246  0  2.270328  0
O  O228  1  0.70962278  0.47087821  0.09405240  1  -1.117785  0  -0.329238  -0.396223  0  2.268251  0
O  O229  1  0.54011146  0.77962488  0.15568420  1  -1.118382  0  -0.329098  -0.395649  0  2.269729  0
O  O230  1  0.09361826  0.10251190  0.21805140  1  -1.115668  0  -0.328127  -0.394682  0  2.270022  0
O  O231  1  0.15566689  0.14774840  0.03227038  1  -1.101676  0  -0.327886  -0.393547  0  2.26986  0
O  O232  1  0.46454158  0.47184575  0.84788199  1  -1.087665  0  -0.329143  -0.395828  0  2.270374  0
O  O233  1  0.28597187  0.27912286  0.90168129  1  -1.120313  0  -0.328927  -0.394521  0  2.269449  0
O  O234  1  0.96411258  0.72455989  0.84003633  1  -1.083813  0  -0.32869  -0.394829  0  2.268956  0
O  O235  1  0.78637833  0.02532450  0.90967056  1  -1.081177  0  -0.328977  -0.394897  0  2.268561  0
