# generated using pymatgen
data_K2ZrCdH16(CO3)8
_symmetry_space_group_name_H-M   'P 1'
_cell_length_a   8.82285585
_cell_length_b   9.15812301
_cell_length_c   9.15812358
_cell_angle_alpha   76.58266128
_cell_angle_beta   61.20321260
_cell_angle_gamma   61.20325529
_symmetry_Int_Tables_number   1
_chemical_formula_structural   K2ZrCdH16(CO3)8
_chemical_formula_sum   'K2 Zr1 Cd1 H16 C8 O24'
_cell_volume   568.27866415
_cell_formula_units_Z   1
loop_
 _symmetry_equiv_pos_site_id
 _symmetry_equiv_pos_as_xyz
  1  'x, y, z'
loop_
 _atom_site_type_symbol
 _atom_site_label
 _atom_site_symmetry_multiplicity
 _atom_site_fract_x
 _atom_site_fract_y
 _atom_site_fract_z
 _atom_site_occupancy
 _atom_site_hle17_bader_spin_density
 _atom_site_hle17_ddec_charge
 _atom_site_hle17_ddec_spin_density
 _atom_site_hle17_ddec_sum_bond_order
 _atom_site_hle17_magmom
 _atom_site_hse06_10hf_bader_spin_density
 _atom_site_hse06_10hf_ddec_charge
 _atom_site_hse06_10hf_ddec_spin_density
 _atom_site_hse06_10hf_ddec_sum_bond_order
 _atom_site_hse06_10hf_magmom
 _atom_site_hse06_bader_spin_density
 _atom_site_hse06_ddec_charge
 _atom_site_hse06_ddec_spin_density
 _atom_site_hse06_ddec_sum_bond_order
 _atom_site_hse06_magmom
 _atom_site_pbe_bader_spin_density
 _atom_site_pbe_cm5_charge
 _atom_site_pbe_ddec_charge
 _atom_site_pbe_ddec_spin_density
 _atom_site_pbe_ddec_sum_bond_order
 _atom_site_pbe_magmom
K  K0  1  0.49999867  0.00000386  0.99999803  1  0  0.915491  0  0.47605  0  0  0.863171  0  0.661435  0  0  0.87883  0  0.636613  0  0  0.772025  0.851053  0  0.679743  0
K  K1  1  0.74999877  0.49999681  0.50000390  1  0  0.937092  0  0.433604  0  0  0.888618  0  0.60785  0  0  0.904664  0  0.583431  0  0  0.7413  0.875882  0  0.626281  0
Zr  Zr2  1  0.24999804  0.50000198  0.50000163  1  0  2.310344  0  2.360321  0  0  2.208875  0  2.766175  0  0  2.304682  0  2.711858  0  0  1.614416  2.141675  0  2.802365  0
Cd  Cd3  1  0.99999902  0.00000031  0.00000080  1  0  1.21848  0  1.587159  0  0  1.034984  0  2.021505  0  0  1.094455  0  1.967477  0  0  0.790682  0.992108  0  2.058683  0
H  H4  1  0.38721615  0.35351042  0.83537862  1  0  0.410993  0  0.891061  0  0  0.382453  0  0.952026  0  0  0.393133  0  0.936087  0  0  0.293555  0.374866  0  0.963335  0
H  H5  1  0.57610086  0.64649456  0.16462461  1  0  0.410954  0  0.891113  0  0  0.382418  0  0.952074  0  0  0.393099  0  0.936134  0  0  0.293533  0.374831  0  0.963383  0
H  H6  1  0.77740504  0.83537687  0.64649100  1  0  0.410974  0  0.89111  0  0  0.382439  0  0.952065  0  0  0.393119  0  0.936127  0  0  0.293541  0.374852  0  0.963375  0
H  H7  1  0.25927680  0.16462313  0.35350435  1  0  0.410952  0  0.891098  0  0  0.382416  0  0.95206  0  0  0.393096  0  0.936121  0  0  0.293518  0.374829  0  0.963369  0
H  H8  1  0.45527462  0.42407614  0.92278702  1  0  0.424033  0  0.872052  0  0  0.396035  0  0.930813  0  0  0.406092  0  0.916074  0  0  0.28626  0.388922  0  0.941217  0
H  H9  1  0.80213505  0.57592740  0.07721337  1  0  0.424054  0  0.872038  0  0  0.396054  0  0.930802  0  0  0.406112  0  0.916062  0  0  0.286274  0.388941  0  0.941206  0
H  H10  1  0.62194079  0.92278526  0.57592220  1  0  0.424042  0  0.872039  0  0  0.396057  0  0.930785  0  0  0.406114  0  0.916045  0  0  0.286264  0.388943  0  0.941191  0
H  H11  1  0.12065068  0.07721448  0.42407226  1  0  0.424066  0  0.87203  0  0  0.396058  0  0.930807  0  0  0.406115  0  0.916068  0  0  0.286271  0.388945  0  0.941211  0
H  H12  1  0.45010516  0.92188940  0.42314691  1  0  0.42944  0  0.864927  0  0  0.400594  0  0.925074  0  0  0.410621  0  0.910306  0  0  0.288603  0.393491  0  0.935518  0
H  H13  1  0.79514544  0.07810776  0.57685106  1  0  0.429464  0  0.864864  0  0  0.400597  0  0.925046  0  0  0.410624  0  0.910277  0  0  0.288587  0.393495  0  0.935491  0
H  H14  1  0.12674641  0.42314862  0.07811115  1  0  0.429487  0  0.864869  0  0  0.400626  0  0.925041  0  0  0.410653  0  0.910274  0  0  0.288607  0.393524  0  0.935485  0
H  H15  1  0.62800405  0.57685194  0.92189197  1  0  0.429447  0  0.864873  0  0  0.40058  0  0.925058  0  0  0.410606  0  0.91029  0  0  0.288578  0.393477  0  0.935504  0
H  H16  1  0.67744350  0.84831889  0.33873607  1  0  0.41043  0  0.893224  0  0  0.380955  0  0.955666  0  0  0.391193  0  0.940557  0  0  0.292617  0.373729  0  0.966321  0
H  H17  1  0.86450165  0.15167743  0.66126277  1  0  0.410439  0  0.893183  0  0  0.380964  0  0.955625  0  0  0.391202  0  0.940516  0  0  0.292628  0.373739  0  0.966279  0
H  H18  1  0.98382003  0.33873649  0.15168151  1  0  0.410435  0  0.893192  0  0  0.38096  0  0.955635  0  0  0.391199  0  0.940523  0  0  0.292586  0.373735  0  0.966289  0
H  H19  1  0.47423663  0.66126414  0.84832028  1  0  0.410417  0  0.893237  0  0  0.380945  0  0.955674  0  0  0.391183  0  0.940565  0  0  0.292606  0.373719  0  0.966329  0
C  C20  1  0.55829832  0.22398576  0.23683819  1  0  0.566438  0  3.886348  0  0  0.521571  0  4.182235  0  0  0.552106  0  4.174027  0  0  0.224355  0.500709  0  4.187317  0
C  C21  1  0.01912285  0.77601639  0.76315966  1  0  0.566465  0  3.886303  0  0  0.521599  0  4.182191  0  0  0.552136  0  4.173978  0  0  0.224267  0.500737  0  4.187271  0
C  C22  1  0.20486318  0.23683928  0.77601509  1  0  0.566473  0  3.886351  0  0  0.521594  0  4.182257  0  0  0.552129  0  4.174048  0  0  0.224412  0.500732  0  4.187339  0
C  C23  1  0.21771700  0.76316046  0.22398485  1  0  0.566472  0  3.886211  0  0  0.521608  0  4.182107  0  0  0.55214  0  4.173902  0  0  0.224438  0.500747  0  4.187192  0
C  C24  1  0.67501012  0.27855820  0.27455538  1  0  0.56236  0  3.899431  0  0  0.513732  0  4.198871  0  0  0.54523  0  4.190309  0  0  0.222315  0.492245  0  4.204207  0
C  C25  1  0.22812412  0.72143735  0.72544569  1  0  0.562412  0  3.899385  0  0  0.513752  0  4.198868  0  0  0.545253  0  4.190306  0  0  0.222198  0.492272  0  4.204193  0
C  C26  1  0.05043737  0.27455357  0.72144035  1  0  0.562395  0  3.899336  0  0  0.513751  0  4.198814  0  0  0.545246  0  4.190256  0  0  0.222387  0.492264  0  4.204149  0
C  C27  1  0.04642887  0.72544537  0.27856011  1  0  0.562402  0  3.899346  0  0  0.513735  0  4.198852  0  0  0.545232  0  4.190297  0  0  0.22235  0.492248  0  4.20419  0
O  O28  1  0.37404155  0.30575212  0.32019587  1  0  -0.676273  0  2.103362  0  0  -0.628089  0  2.345064  0  0  -0.659646  0  2.338292  0  0  -0.356549  -0.606104  0  2.349018  0
O  O29  1  0.99998823  0.69425053  0.67980389  1  0  -0.676294  0  2.103295  0  0  -0.628111  0  2.345008  0  0  -0.659671  0  2.338235  0  0  -0.356481  -0.606126  0  2.348962  0
O  O30  1  0.30576413  0.32019477  0.69424699  1  0  -0.676303  0  2.103353  0  0  -0.628109  0  2.345056  0  0  -0.659665  0  2.338284  0  0  -0.356417  -0.606125  0  2.34901  0
O  O31  1  0.32020860  0.67980200  0.30575060  1  0  -0.676304  0  2.103283  0  0  -0.628107  0  2.344979  0  0  -0.659664  0  2.338209  0  0  -0.356416  -0.606123  0  2.348935  0
O  O32  1  0.64179617  0.11058649  0.13552116  1  0  -0.549721  0  2.070796  0  0  -0.497603  0  2.309278  0  0  -0.522396  0  2.301613  0  0  -0.33083  -0.480236  0  2.314135  0
O  O33  1  0.88790190  0.88941458  0.86447775  1  0  -0.549723  0  2.070848  0  0  -0.497582  0  2.309301  0  0  -0.522376  0  2.301636  0  0  -0.33082  -0.480216  0  2.314159  0
O  O34  1  0.22268153  0.13552189  0.88941518  1  0  -0.549749  0  2.070797  0  0  -0.49762  0  2.309286  0  0  -0.522413  0  2.301621  0  0  -0.330822  -0.480253  0  2.314143  0
O  O35  1  0.24761701  0.86447849  0.11058575  1  0  -0.549726  0  2.070769  0  0  -0.497618  0  2.309276  0  0  -0.522409  0  2.301612  0  0  -0.330818  -0.480251  0  2.314134  0
O  O36  1  0.85456893  0.21083996  0.19935157  1  0  -0.555184  0  2.078686  0  0  -0.491294  0  2.312013  0  0  -0.518675  0  2.303373  0  0  -0.273123  -0.472212  0  2.317452  0
O  O37  1  0.26475977  0.78916163  0.80064708  1  0  -0.555268  0  2.078553  0  0  -0.491368  0  2.311898  0  0  -0.518753  0  2.303257  0  0  -0.273013  -0.47229  0  2.317344  0
O  O38  1  0.94608245  0.19935191  0.78915793  1  0  -0.555193  0  2.078599  0  0  -0.491297  0  2.311936  0  0  -0.518677  0  2.303297  0  0  -0.272886  -0.472221  0  2.317391  0
O  O39  1  0.93459064  0.80064854  0.21084156  1  0  -0.555197  0  2.078647  0  0  -0.491287  0  2.311988  0  0  -0.518667  0  2.303348  0  0  -0.272889  -0.472205  0  2.317434  0
O  O40  1  0.57266687  0.39389830  0.38390555  1  0  -0.651974  0  2.125207  0  0  -0.612684  0  2.381741  0  0  -0.641739  0  2.374578  0  0  -0.385577  -0.592394  0  2.385909  0
O  O41  1  0.35047042  0.60610202  0.61609417  1  0  -0.651943  0  2.125286  0  0  -0.612647  0  2.381849  0  0  -0.641686  0  2.374644  0  0  -0.385564  -0.59236  0  2.386016  0
O  O42  1  0.04342777  0.38390658  0.60610137  1  0  -0.651977  0  2.125203  0  0  -0.612683  0  2.381748  0  0  -0.641734  0  2.374572  0  0  -0.385592  -0.592394  0  2.385916  0
O  O43  1  0.03343416  0.61609268  0.39390045  1  0  -0.652009  0  2.125243  0  0  -0.612704  0  2.381789  0  0  -0.641741  0  2.374581  0  0  -0.385568  -0.592416  0  2.38596  0
O  O44  1  0.38017024  0.36190419  0.94374941  1  0  -0.852531  0  1.795452  0  0  -0.801743  0  1.943869  0  0  -0.820015  0  1.913167  0  0  -0.617381  -0.788719  0  1.965406  0
O  O45  1  0.68582075  0.63809807  0.05625201  1  0  -0.852504  0  1.795489  0  0  -0.801716  0  1.943899  0  0  -0.81999  0  1.913198  0  0  -0.617363  -0.788691  0  1.965435  0
O  O46  1  0.67608034  0.94374804  0.63809540  1  0  -0.852512  0  1.795479  0  0  -0.801741  0  1.943867  0  0  -0.820012  0  1.913166  0  0  -0.617383  -0.788712  0  1.965399  0
O  O47  1  0.25792835  0.05625128  0.36190176  1  0  -0.852515  0  1.795459  0  0  -0.801725  0  1.94387  0  0  -0.819997  0  1.91317  0  0  -0.617371  -0.7887  0  1.96541  0
O  O48  1  0.56517194  0.85764576  0.44550007  1  0  -0.863369  0  1.804776  0  0  -0.812849  0  1.956372  0  0  -0.831582  0  1.926186  0  0  -0.62407  -0.799486  0  1.977468  0
O  O49  1  0.86831963  0.14235337  0.55449936  1  0  -0.863399  0  1.804673  0  0  -0.812857  0  1.956282  0  0  -0.831587  0  1.926098  0  0  -0.624084  -0.799495  0  1.97738  0
O  O50  1  0.98932626  0.44549996  0.14235456  1  0  -0.863418  0  1.804698  0  0  -0.812882  0  1.956298  0  0  -0.831615  0  1.92611  0  0  -0.624085  -0.799522  0  1.977396  0
O  O51  1  0.57718241  0.55450003  0.85764539  1  0  -0.863366  0  1.804736  0  0  -0.812826  0  1.956335  0  0  -0.831556  0  1.92615  0  0  -0.624077  -0.799463  0  1.977434  0
