# generated using pymatgen
data_CdH8C10(Br2N)2
_symmetry_space_group_name_H-M   'P 1'
_cell_length_a   4.00174783
_cell_length_b   11.69377761
_cell_length_c   14.66016618
_cell_angle_alpha   90.00020638
_cell_angle_beta   90.00112976
_cell_angle_gamma   87.33972283
_symmetry_Int_Tables_number   1
_chemical_formula_structural   CdH8C10(Br2N)2
_chemical_formula_sum   'Cd2 H16 C20 Br8 N4'
_cell_volume   685.29118832
_cell_formula_units_Z   2
loop_
 _symmetry_equiv_pos_site_id
 _symmetry_equiv_pos_as_xyz
  1  'x, y, z'
loop_
 _atom_site_type_symbol
 _atom_site_label
 _atom_site_symmetry_multiplicity
 _atom_site_fract_x
 _atom_site_fract_y
 _atom_site_fract_z
 _atom_site_occupancy
 _atom_site_hle17_bader_spin_density
 _atom_site_hle17_ddec_charge
 _atom_site_hle17_ddec_spin_density
 _atom_site_hle17_ddec_sum_bond_order
 _atom_site_hle17_magmom
 _atom_site_hse06_10hf_bader_spin_density
 _atom_site_hse06_10hf_ddec_charge
 _atom_site_hse06_10hf_ddec_spin_density
 _atom_site_hse06_10hf_ddec_sum_bond_order
 _atom_site_hse06_10hf_magmom
 _atom_site_hse06_bader_spin_density
 _atom_site_hse06_ddec_charge
 _atom_site_hse06_ddec_spin_density
 _atom_site_hse06_ddec_sum_bond_order
 _atom_site_hse06_magmom
 _atom_site_pbe_bader_spin_density
 _atom_site_pbe_cm5_charge
 _atom_site_pbe_ddec_charge
 _atom_site_pbe_ddec_spin_density
 _atom_site_pbe_ddec_sum_bond_order
 _atom_site_pbe_magmom
Cd  Cd0  1  0.00000189  0.99999880  0.00000084  1  0  0.848523  0  1.949048  0  0  0.678753  0  2.392755  0  0  0.72904  0  2.356499  0  0  0.537838  0.643391  0  2.417809  0
Cd  Cd1  1  0.00000120  0.49999910  0.50000123  1  0  0.848522  0  1.949115  0  0  0.678751  0  2.392811  0  0  0.729037  0  2.356548  0  0  0.537885  0.643398  0  2.41787  0
H  H2  1  0.74417968  0.90009588  0.80616684  1  0  0.081917  0  0.981778  0  0  0.086713  0  1.056196  0  0  0.089968  0  1.053114  0  0  0.096845  0.084362  0  1.05836  0
H  H3  1  0.74421429  0.40010911  0.69383925  1  0  0.081849  0  0.981606  0  0  0.086627  0  1.05604  0  0  0.089851  0  1.053047  0  0  0.096798  0.084273  0  1.058202  0
H  H4  1  0.25580771  0.09989338  0.19383835  1  0  0.081838  0  0.981834  0  0  0.08662  0  1.056263  0  0  0.089843  0  1.053274  0  0  0.096839  0.084265  0  1.058423  0
H  H5  1  0.25579758  0.59989442  0.30617140  1  0  0.081914  0  0.981759  0  0  0.086617  0  1.056278  0  0  0.089845  0  1.053277  0  0  0.096816  0.084264  0  1.058439  0
H  H6  1  0.99245460  0.12017739  0.58080667  1  0  0.106579  0  0.961015  0  0  0.110127  0  1.036098  0  0  0.114183  0  1.031959  0  0  0.092816  0.107095  0  1.03926  0
H  H7  1  0.99256896  0.62020651  0.91918764  1  0  0.106568  0  0.960851  0  0  0.110084  0  1.035992  0  0  0.11414  0  1.031853  0  0  0.092805  0.107047  0  1.039159  0
H  H8  1  0.00748033  0.87981077  0.41919306  1  0  0.106497  0  0.96105  0  0  0.110095  0  1.03605  0  0  0.11415  0  1.031915  0  0  0.092844  0.10706  0  1.039213  0
H  H9  1  0.00751510  0.37980559  0.08081482  1  0  0.106513  0  0.961124  0  0  0.110079  0  1.036158  0  0  0.114135  0  1.032019  0  0  0.092825  0.107043  0  1.039328  0
H  H10  1  0.24403165  0.24993562  0.69449863  1  0  0.104345  0  0.963415  0  0  0.111585  0  1.028642  0  0  0.114765  0  1.027837  0  0  0.094776  0.109257  0  1.029484  0
H  H11  1  0.24406525  0.74996950  0.80548176  1  0  0.104318  0  0.963189  0  0  0.111601  0  1.028376  0  0  0.114779  0  1.027575  0  0  0.094734  0.109264  0  1.029233  0
H  H12  1  0.75596094  0.75004846  0.30549360  1  0  0.104354  0  0.963267  0  0  0.111589  0  1.028496  0  0  0.11477  0  1.027689  0  0  0.094744  0.10926  0  1.029339  0
H  H13  1  0.75594364  0.25004689  0.19450910  1  0  0.104343  0  0.963196  0  0  0.111565  0  1.028447  0  0  0.114747  0  1.027637  0  0  0.09476  0.109232  0  1.029298  0
H  H14  1  0.23528441  0.19655859  0.86073743  1  0  0.064191  0  1.007481  0  0  0.065101  0  1.089534  0  0  0.068529  0  1.085442  0  0  0.087373  0.062549  0  1.09258  0
H  H15  1  0.23525694  0.69657284  0.63924548  1  0  0.06431  0  1.007645  0  0  0.065133  0  1.089771  0  0  0.068585  0  1.085659  0  0  0.087381  0.062542  0  1.092837  0
H  H16  1  0.76471546  0.80343139  0.13925548  1  0  0.064303  0  1.007426  0  0  0.065167  0  1.089538  0  0  0.068597  0  1.085443  0  0  0.087388  0.062581  0  1.092601  0
H  H17  1  0.76470737  0.30343208  0.36074880  1  0  0.064374  0  1.007414  0  0  0.06518  0  1.089597  0  0  0.068648  0  1.085473  0  0  0.087413  0.062589  0  1.092661  0
C  C18  1  0.85416642  0.97639976  0.77861572  1  0  0.067787  0  3.713009  0  0  0.028602  0  3.964691  0  0  0.035244  0  3.982741  0  0  0.027314  0.024453  0  3.95236  0
C  C19  1  0.85422555  0.47641110  0.72138437  1  0  0.067642  0  3.713232  0  0  0.028596  0  3.964798  0  0  0.035224  0  3.982847  0  0  0.027245  0.024458  0  3.952453  0
C  C20  1  0.14580568  0.02359738  0.22138469  1  0  0.067786  0  3.713084  0  0  0.028672  0  3.964669  0  0  0.035307  0  3.982706  0  0  0.027215  0.024525  0  3.952341  0
C  C21  1  0.14580864  0.52359729  0.27862218  1  0  0.067753  0  3.712964  0  0  0.028714  0  3.964627  0  0  0.035339  0  3.982676  0  0  0.027234  0.024572  0  3.95229  0
C  C22  1  0.85301357  0.00017049  0.68546045  1  0  0.032056  0  3.724446  0  0  0.054868  0  3.985317  0  0  0.053012  0  4.008032  0  0  -0.020882  0.055674  0  3.970044  0
C  C23  1  0.85310367  0.50018151  0.81454092  1  0  0.031955  0  3.724333  0  0  0.054645  0  3.985305  0  0  0.052789  0  4.00801  0  0  -0.020872  0.055452  0  3.970029  0
C  C24  1  0.14692614  0.99982360  0.31454338  1  0  0.032023  0  3.724492  0  0  0.054847  0  3.985319  0  0  0.052984  0  4.008036  0  0  -0.020786  0.055653  0  3.970037  0
C  C25  1  0.14695826  0.49982058  0.18546632  1  0  0.032066  0  3.724573  0  0  0.054762  0  3.98556  0  0  0.052908  0  4.008263  0  0  -0.020809  0.055569  0  3.970284  0
C  C26  1  0.99100252  0.09974154  0.65329354  1  0  -0.054677  0  3.724759  0  0  -0.08256  0  3.975148  0  0  -0.079193  0  3.992325  0  0  -0.079919  -0.084428  0  3.963499  0
C  C27  1  0.99108692  0.59976559  0.84669797  1  0  -0.053971  0  3.72376  0  0  -0.081875  0  3.974268  0  0  -0.0785  0  3.991439  0  0  -0.079503  -0.083746  0  3.962623  0
C  C28  1  0.00896477  0.90025052  0.34670415  1  0  -0.054231  0  3.724506  0  0  -0.082185  0  3.974959  0  0  -0.078815  0  3.992143  0  0  -0.079793  -0.084057  0  3.96331  0
C  C29  1  0.00897706  0.40024845  0.15330176  1  0  -0.054331  0  3.724435  0  0  -0.08221  0  3.974893  0  0  -0.078838  0  3.992066  0  0  -0.079816  -0.08408  0  3.963251  0
C  C30  1  0.12903069  0.17218257  0.71709003  1  0  -0.098496  0  3.716299  0  0  -0.10525  0  3.964008  0  0  -0.112863  0  3.98597  0  0  -0.08645  -0.100478  0  3.949384  0
C  C31  1  0.12906555  0.67220693  0.78289564  1  0  -0.098867  0  3.715832  0  0  -0.105609  0  3.96344  0  0  -0.113228  0  3.985413  0  0  -0.086687  -0.100834  0  3.94881  0
C  C32  1  0.87094429  0.82780427  0.28290425  1  0  -0.098807  0  3.71595  0  0  -0.105528  0  3.963634  0  0  -0.113136  0  3.985579  0  0  -0.086564  -0.100758  0  3.949002  0
C  C33  1  0.87094857  0.32780340  0.21709864  1  0  -0.098624  0  3.715606  0  0  -0.105325  0  3.963266  0  0  -0.112936  0  3.985227  0  0  -0.086508  -0.100553  0  3.94864  0
C  C34  1  0.12449914  0.14310340  0.80913736  1  0  0.115896  0  3.71446  0  0  0.081116  0  3.969726  0  0  0.088851  0  3.988095  0  0  0.030227  0.076148  0  3.957252  0
C  C35  1  0.12449261  0.64312360  0.69084683  1  0  0.115645  0  3.7147  0  0  0.08092  0  3.969911  0  0  0.088635  0  3.988267  0  0  0.03012  0.075992  0  3.957466  0
C  C36  1  0.87550314  0.85688912  0.19085623  1  0  0.115895  0  3.714725  0  0  0.081143  0  3.969932  0  0  0.08888  0  3.988296  0  0  0.030238  0.076208  0  3.957477  0
C  C37  1  0.87549884  0.35689127  0.30915018  1  0  0.115607  0  3.714552  0  0  0.080869  0  3.969816  0  0  0.088571  0  3.988163  0  0  0.03014  0.075946  0  3.957364  0
Br  Br38  1  0.47652046  0.16417329  0.03080475  1  0  -0.491572  0  1.091069  0  0  -0.42575  0  1.410773  0  0  -0.446796  0  1.389309  0  0  -0.240217  -0.410369  0  1.426117  0
Br  Br39  1  0.47649689  0.66417426  0.46919140  1  0  -0.491589  0  1.091126  0  0  -0.425759  0  1.410836  0  0  -0.446803  0  1.38936  0  0  -0.240205  -0.410383  0  1.426191  0
Br  Br40  1  0.52348410  0.83582518  0.96919635  1  0  -0.491589  0  1.091141  0  0  -0.425743  0  1.410841  0  0  -0.446804  0  1.389374  0  0  -0.240202  -0.410365  0  1.426184  0
Br  Br41  1  0.52350256  0.33582683  0.53080970  1  0  -0.491565  0  1.091087  0  0  -0.425734  0  1.410788  0  0  -0.446773  0  1.389307  0  0  -0.240212  -0.410379  0  1.426191  0
Br  Br42  1  0.67311075  0.89340083  0.60333742  1  0  -0.047471  0  1.410047  0  0  -0.040279  0  1.697206  0  0  -0.045355  0  1.691829  0  0  0.055982  -0.036668  0  1.701153  0
Br  Br43  1  0.67326488  0.39341091  0.89666621  1  0  -0.04753  0  1.409887  0  0  -0.040314  0  1.6971  0  0  -0.045384  0  1.691715  0  0  0.055914  -0.036703  0  1.701067  0
Br  Br44  1  0.32679121  0.10659968  0.39666504  1  0  -0.047525  0  1.410057  0  0  -0.040337  0  1.697202  0  0  -0.045405  0  1.691831  0  0  0.055925  -0.036726  0  1.701154  0
Br  Br45  1  0.32684210  0.60658980  0.10334307  1  0  -0.047589  0  1.410022  0  0  -0.040343  0  1.697196  0  0  -0.045412  0  1.691812  0  0  0.055928  -0.036737  0  1.701157  0
N  N46  1  0.98903998  0.04701763  0.83933432  1  0  -0.304856  0  3.2704  0  0  -0.223684  0  3.527653  0  0  -0.244879  0  3.550507  0  0  -0.326807  -0.209312  0  3.511734  0
N  N47  1  0.98903417  0.54702830  0.66065839  1  0  -0.304557  0  3.27056  0  0  -0.223421  0  3.527686  0  0  -0.244614  0  3.55054  0  0  -0.326663  -0.20905  0  3.511759  0
N  N48  1  0.01095999  0.95296978  0.16066473  1  0  -0.3048  0  3.270684  0  0  -0.223694  0  3.527953  0  0  -0.244889  0  3.550798  0  0  -0.326754  -0.209323  0  3.512016  0
N  N49  1  0.01095012  0.45297725  0.33934271  1  0  -0.304723  0  3.270549  0  0  -0.223541  0  3.527706  0  0  -0.244737  0  3.550563  0  0  -0.326716  -0.209172  0  3.511788  0
