# generated using pymatgen
data_TbH7C7SO7
_symmetry_space_group_name_H-M   'P 1'
_cell_length_a   8.46501799
_cell_length_b   17.12032486
_cell_length_c   17.12032175
_cell_angle_alpha   89.99999857
_cell_angle_beta   90.00000172
_cell_angle_gamma   90.00000561
_symmetry_Int_Tables_number   1
_chemical_formula_structural   TbH7C7SO7
_chemical_formula_sum   'Tb8 H56 C56 S8 O56'
_cell_volume   2481.14307767
_cell_formula_units_Z   8
loop_
 _symmetry_equiv_pos_site_id
 _symmetry_equiv_pos_as_xyz
  1  'x, y, z'
loop_
 _atom_site_type_symbol
 _atom_site_label
 _atom_site_symmetry_multiplicity
 _atom_site_fract_x
 _atom_site_fract_y
 _atom_site_fract_z
 _atom_site_occupancy
 _atom_site_pbe_bader_charge
 _atom_site_pbe_bader_spin_density
 _atom_site_pbe_cm5_charge
 _atom_site_pbe_ddec_charge
 _atom_site_pbe_ddec_spin_density
 _atom_site_pbe_ddec_sum_bond_order
 _atom_site_pbe_magmom
Tb  Tb0  1  0.84991197  0.10946348  0.03444095  1  2.173588  0  1.498002  2.182054  0  2.117909  0
Tb  Tb1  1  0.84991207  0.89053626  0.96555954  1  2.173568  0  1.498038  2.182115  0  2.117813  0
Tb  Tb2  1  0.15008831  0.03444093  0.89053642  1  2.173587  0  1.498043  2.182106  0  2.117871  0
Tb  Tb3  1  0.15008838  0.96555937  0.10946405  1  2.173589  0  1.498026  2.182054  0  2.117939  0
Tb  Tb4  1  0.65008845  0.39053641  0.53444031  1  2.173585  0  1.498042  2.182073  0  2.117902  0
Tb  Tb5  1  0.65008729  0.60946391  0.46555959  1  2.173583  0  1.498057  2.182104  0  2.117853  0
Tb  Tb6  1  0.34991190  0.46555893  0.39053588  1  2.17358  0  1.498017  2.182052  0  2.117905  0
Tb  Tb7  1  0.34991191  0.53444079  0.60946401  1  2.173567  0  1.498028  2.182081  0  2.117891  0
H  H8  1  0.92855801  0.25814524  0.25966393  1  0.127558  0  0.108883  0.116089  0  1.00993  0
H  H9  1  0.92855808  0.74185510  0.74033597  1  0.127558  0  0.108883  0.116093  0  1.009928  0
H  H10  1  0.07144231  0.25966387  0.74185521  1  0.127548  0  0.108908  0.116154  0  1.009885  0
H  H11  1  0.07144234  0.74033642  0.25814467  1  0.127554  0  0.108878  0.116086  0  1.009937  0
H  H12  1  0.57144242  0.24185523  0.75966388  1  0.127552  0  0.108881  0.116098  0  1.009934  0
H  H13  1  0.57144246  0.75814509  0.24033602  1  0.127549  0  0.108878  0.116096  0  1.009951  0
H  H14  1  0.42855789  0.24033598  0.24185527  1  0.127558  0  0.108887  0.116102  0  1.009933  0
H  H15  1  0.42855796  0.75966374  0.75814462  1  0.127431  0  0.108881  0.116096  0  1.009937  0
H  H16  1  0.17199020  0.04913166  0.32966962  1  0.137249  0  0.11393  0.12481  0  0.995165  0
H  H17  1  0.17199030  0.95086863  0.67033085  1  0.137249  0  0.113938  0.124797  0  0.995181  0
H  H18  1  0.82801011  0.32966957  0.95086823  1  0.137252  0  0.11393  0.12482  0  0.995164  0
H  H19  1  0.82801012  0.67033076  0.04913167  1  0.137247  0  0.113934  0.124795  0  0.995187  0
H  H20  1  0.32800882  0.45086819  0.82966957  1  0.137252  0  0.113925  0.124807  0  0.995152  0
H  H21  1  0.32800881  0.54913211  0.17033091  1  0.137247  0  0.113918  0.124804  0  0.995154  0
H  H22  1  0.67199151  0.17033089  0.45086828  1  0.137374  0  0.113917  0.124798  0  0.995159  0
H  H23  1  0.67199040  0.82966943  0.54913161  1  0.137249  0  0.113947  0.12482  0  0.995175  0
H  H24  1  0.24807628  0.11328407  0.45614563  1  0.075197  0  0.108887  0.107738  0  0.981709  0
H  H25  1  0.24807636  0.88671565  0.54385426  1  0.07521  0  0.108886  0.107745  0  0.981715  0
H  H26  1  0.75192405  0.45614614  0.88671581  1  0.075205  0  0.108869  0.107691  0  0.981675  0
H  H27  1  0.75192404  0.54385418  0.11328408  1  0.075213  0  0.108895  0.107748  0  0.9817  0
H  H28  1  0.25192393  0.38671579  0.95614616  1  0.075212  0  0.10889  0.107746  0  0.981707  0
H  H29  1  0.25192392  0.61328393  0.04385431  1  0.075201  0  0.108865  0.107687  0  0.98168  0
H  H30  1  0.74807639  0.04385432  0.38671587  1  0.075208  0  0.108887  0.107747  0  0.981709  0
H  H31  1  0.74807649  0.95614600  0.61328403  1  0.075203  0  0.108867  0.107711  0  0.981673  0
H  H32  1  0.16015918  0.24951045  0.48383436  1  0.137194  0  0.114987  0.126709  0  0.991688  0
H  H33  1  0.16015923  0.75048985  0.51616611  1  0.137198  0  0.114991  0.126715  0  0.991685  0
H  H34  1  0.83984117  0.48383370  0.75048998  1  0.137199  0  0.114992  0.126715  0  0.991695  0
H  H35  1  0.83984116  0.51616604  0.24950991  1  0.137201  0  0.114991  0.12672  0  0.991688  0
H  H36  1  0.33983985  0.25048940  0.98383373  1  0.137196  0  0.114993  0.126697  0  0.991717  0
H  H37  1  0.33983987  0.74951032  0.01616616  1  0.137194  0  0.114992  0.126723  0  0.991688  0
H  H38  1  0.66015927  0.01616618  0.25048946  1  0.137552  0  0.114993  0.126692  0  0.991716  0
H  H39  1  0.66015938  0.98383356  0.74951044  1  0.137195  0  0.114986  0.126714  0  0.991696  0
H  H40  1  0.80816016  0.03719440  0.88356109  1  0.611405  0  0.312165  0.415391  0  0.899126  0
H  H41  1  0.80816022  0.96280593  0.11643939  1  0.611395  0  0.312144  0.415368  0  0.899155  0
H  H42  1  0.19184023  0.88356033  0.96280549  1  0.611391  0  0.312164  0.415392  0  0.8991  0
H  H43  1  0.19184012  0.11643938  0.03719439  1  0.611389  0  0.312173  0.415403  0  0.899112  0
H  H44  1  0.69184029  0.46280548  0.38356055  1  0.61139  0  0.312174  0.415415  0  0.899087  0
H  H45  1  0.69184030  0.53719484  0.61643935  1  0.611392  0  0.312147  0.415363  0  0.899149  0
H  H46  1  0.30815890  0.61643924  0.46280555  1  0.611388  0  0.312158  0.415385  0  0.89914  0
H  H47  1  0.30816006  0.38356106  0.53719434  1  0.611396  0  0.312166  0.415405  0  0.899112  0
H  H48  1  0.77852879  0.24268700  0.12942397  1  0.621254  0  0.315475  0.402276  0  0.901081  0
H  H49  1  0.77853005  0.75731216  0.87057534  1  0.621173  0  0.31546  0.402271  0  0.901086  0
H  H50  1  0.22147033  0.12942394  0.75731229  1  0.621179  0  0.315475  0.402273  0  0.901086  0
H  H51  1  0.22147157  0.87057577  0.24268702  1  0.621254  0  0.315463  0.402278  0  0.901086  0
H  H52  1  0.72147164  0.25731288  0.62942392  1  0.621252  0  0.315474  0.402271  0  0.901092  0
H  H53  1  0.72147049  0.74268744  0.37057598  1  0.621182  0  0.315474  0.40229  0  0.901065  0
H  H54  1  0.27852869  0.37057592  0.25731292  1  0.621252  0  0.315474  0.402276  0  0.901083  0
H  H55  1  0.27852991  0.62942439  0.74268755  1  0.62118  0  0.315478  0.40229  0  0.901061  0
H  H56  1  0.61746357  0.23076842  0.08517714  1  0.660134  0  0.298882  0.389414  0  0.943361  0
H  H57  1  0.61746365  0.76923073  0.91482217  1  0.660134  0  0.298911  0.38946  0  0.943297  0
H  H58  1  0.38253791  0.08517829  0.76923146  1  0.660147  0  0.29891  0.389451  0  0.94331  0
H  H59  1  0.38253679  0.91482202  0.23076843  1  0.660126  0  0.298912  0.389461  0  0.943292  0
H  H60  1  0.88253686  0.26923089  0.58517767  1  0.660153  0  0.298915  0.38946  0  0.943294  0
H  H61  1  0.88253808  0.73076886  0.41482222  1  0.660127  0  0.298898  0.389443  0  0.943322  0
H  H62  1  0.11746347  0.41482215  0.26923092  1  0.660149  0  0.298912  0.389446  0  0.943316  0
H  H63  1  0.11746232  0.58517756  0.73076897  1  0.660128  0  0.298904  0.389456  0  0.943304  0
C  C64  1  0.04008028  0.26106105  0.37291764  1  -0.171413  0  -0.016779  -0.103776  0  3.989838  0
C  C65  1  0.04008034  0.73893866  0.62708225  1  -0.171398  0  -0.016745  -0.103702  0  3.989771  0
C  C66  1  0.95992005  0.37291759  0.73893880  1  -0.171388  0  -0.016759  -0.103755  0  3.989782  0
C  C67  1  0.95991888  0.62708216  0.26106110  1  -0.171404  0  -0.016766  -0.103737  0  3.989819  0
C  C68  1  0.45991992  0.23893822  0.87291759  1  -0.171416  0  -0.01674  -0.103719  0  3.989728  0
C  C69  1  0.45991995  0.76106150  0.12708230  1  -0.171409  0  -0.016725  -0.10369  0  3.989707  0
C  C70  1  0.54008038  0.12708229  0.23893885  1  -0.1714  0  -0.016755  -0.103708  0  3.989733  0
C  C71  1  0.54007929  0.87291743  0.76106162  1  -0.17139  0  -0.016716  -0.103675  0  3.989663  0
C  C72  1  0.99752065  0.22603545  0.30265144  1  -0.089784  0  -0.076419  -0.101783  0  3.9627  0
C  C73  1  0.99751954  0.77396547  0.69734904  1  -0.089793  0  -0.076408  -0.101817  0  3.962671  0
C  C74  1  0.00248085  0.30265079  0.77396442  1  -0.089799  0  -0.076424  -0.101831  0  3.9626  0
C  C75  1  0.00247969  0.69734891  0.22603546  1  -0.089797  0  -0.076419  -0.101816  0  3.962702  0
C  C76  1  0.50248097  0.27396501  0.80265080  1  -0.089787  0  -0.076401  -0.101798  0  3.962639  0
C  C77  1  0.50248099  0.72603530  0.19734909  1  -0.089787  0  -0.076418  -0.101834  0  3.962685  0
C  C78  1  0.49751935  0.19734907  0.27396506  1  -0.089797  0  -0.076391  -0.101803  0  3.962621  0
C  C79  1  0.49751942  0.80265066  0.72603483  1  -0.089688  0  -0.076405  -0.101808  0  3.962669  0
C  C80  1  0.04407317  0.14903046  0.28797882  1  -0.035905  0  -0.013711  -0.035378  0  3.953668  0
C  C81  1  0.04407207  0.85096924  0.71202165  1  -0.035937  0  -0.013727  -0.03534  0  3.953585  0
C  C82  1  0.95592832  0.28797878  0.85096941  1  -0.035925  0  -0.013757  -0.035405  0  3.953615  0
C  C83  1  0.95592834  0.71202156  0.14903108  1  -0.035908  0  -0.013728  -0.03535  0  3.953621  0
C  C84  1  0.45592821  0.35096939  0.78797876  1  -0.035928  0  -0.013747  -0.035383  0  3.953655  0
C  C85  1  0.45592822  0.64903033  0.21202113  1  -0.035907  0  -0.013735  -0.035367  0  3.953639  0
C  C86  1  0.54407212  0.21202110  0.35096946  1  -0.035921  0  -0.013733  -0.035336  0  3.95359  0
C  C87  1  0.54407218  0.78797921  0.64903102  1  -0.035931  0  -0.013727  -0.035339  0  3.953743  0
C  C88  1  0.00049027  0.10989394  0.21293759  1  1.569418  0  0.231637  0.638623  0  4.189124  0
C  C89  1  0.00049155  0.89010635  0.78706230  1  1.569174  0  0.231638  0.638621  0  4.189081  0
C  C90  1  0.99950885  0.21293756  0.89010594  1  1.569429  0  0.231625  0.638594  0  4.18916  0
C  C91  1  0.99950888  0.78706277  0.10989396  1  1.569424  0  0.23166  0.638584  0  4.189234  0
C  C92  1  0.49950874  0.39010650  0.71293753  1  1.56943  0  0.231645  0.638613  0  4.189275  0
C  C93  1  0.49950875  0.60989381  0.28706294  1  1.569427  0  0.231662  0.638589  0  4.189211  0
C  C94  1  0.50049159  0.28706232  0.39010599  1  1.56943  0  0.231585  0.638517  0  4.189195  0
C  C95  1  0.50049164  0.71293741  0.60989391  1  1.569441  0  0.231645  0.638546  0  4.189155  0
C  C96  1  0.13424309  0.10846114  0.34338256  1  -0.020649  0  -0.068556  -0.072083  0  3.918624  0
C  C97  1  0.13424318  0.89153857  0.65661732  1  -0.020624  0  -0.06856  -0.072083  0  3.918599  0
C  C98  1  0.86575723  0.34338251  0.89153874  1  -0.020632  0  -0.068562  -0.07213  0  3.918629  0
C  C99  1  0.86575605  0.65661723  0.10846116  1  -0.020637  0  -0.068571  -0.072113  0  3.918635  0
C  C100  1  0.36575711  0.39153871  0.84338251  1  -0.020636  0  -0.06854  -0.072062  0  3.918575  0
C  C101  1  0.36575593  0.60846101  0.15661738  1  -0.020638  0  -0.068564  -0.072117  0  3.91861  0
C  C102  1  0.63424322  0.15661678  0.39153879  1  -0.020762  0  -0.06854  -0.072065  0  3.918572  0
C  C103  1  0.63424329  0.84338237  0.60846111  1  -0.02064  0  -0.068576  -0.072103  0  3.918672  0
C  C104  1  0.17604927  0.14445929  0.41356232  1  0.002882  0  -0.082817  -0.080098  0  3.999415  0
C  C105  1  0.17604934  0.85554101  0.58643757  1  0.002876  0  -0.082839  -0.08014  0  3.999488  0
C  C106  1  0.82395106  0.41356226  0.85554000  1  0.002894  0  -0.082776  -0.079998  0  3.999362  0
C  C107  1  0.82395106  0.58643807  0.14445932  1  0.00288  0  -0.082816  -0.080073  0  3.999447  0
C  C108  1  0.32395094  0.35554056  0.91356227  1  0.002898  0  -0.082817  -0.080091  0  3.999444  0
C  C109  1  0.32395094  0.64445974  0.08643762  1  0.002889  0  -0.082794  -0.080013  0  3.999421  0
C  C110  1  0.67604938  0.08643762  0.35554064  1  0.002883  0  -0.082834  -0.080132  0  3.999464  0
C  C111  1  0.67604829  0.91356211  0.64445984  1  0.002906  0  -0.082854  -0.080145  0  3.999481  0
C  C112  1  0.12845221  0.22089125  0.42919812  1  -0.035737  0  -0.069906  -0.060625  0  3.925411  0
C  C113  1  0.12845227  0.77910846  0.57080176  1  -0.035739  0  -0.069914  -0.06065  0  3.925473  0
C  C114  1  0.87154813  0.42919864  0.77910861  1  -0.035766  0  -0.069911  -0.060646  0  3.925415  0
C  C115  1  0.87154812  0.57080169  0.22089129  1  -0.035752  0  -0.069915  -0.060663  0  3.925469  0
C  C116  1  0.37154800  0.27910802  0.92919807  1  -0.03574  0  -0.069936  -0.060684  0  3.925526  0
C  C117  1  0.37154683  0.72089170  0.07080182  1  -0.035752  0  -0.069927  -0.060694  0  3.925499  0
C  C118  1  0.62845231  0.07080182  0.27910808  1  -0.036103  0  -0.069925  -0.060657  0  3.925506  0
C  C119  1  0.62845241  0.92919850  0.72089182  1  -0.035751  0  -0.069932  -0.060679  0  3.925529  0
S  S120  1  0.97941557  0.35849497  0.39157792  1  3.177798  0  0.55427  1.255564  0  6.10438  0
S  S121  1  0.97941560  0.64150537  0.60842198  1  3.177794  0  0.554305  1.255652  0  6.104278  0
S  S122  1  0.02058478  0.39157784  0.64150488  1  3.177713  0  0.55428  1.255632  0  6.104383  0
S  S123  1  0.02058361  0.60842186  0.35849501  1  3.177733  0  0.554283  1.255619  0  6.104279  0
S  S124  1  0.52058370  0.14150549  0.89157787  1  3.177701  0  0.554312  1.255667  0  6.104267  0
S  S125  1  0.52058492  0.85849424  0.10842202  1  3.177703  0  0.554276  1.255618  0  6.104298  0
S  S126  1  0.47941542  0.10842260  0.14150494  1  3.177797  0  0.554275  1.255623  0  6.104374  0
S  S127  1  0.47941552  0.89157771  0.85849496  1  3.177699  0  0.554273  1.255615  0  6.104325  0
O  O128  1  0.84824042  0.35255290  0.44711251  1  -1.336957  0  -0.405268  -0.683754  0  2.387558  0
O  O129  1  0.84824045  0.64744684  0.55288739  1  -1.336959  0  -0.405272  -0.683789  0  2.387556  0
O  O130  1  0.15175993  0.44711301  0.64744694  1  -1.336874  0  -0.405272  -0.683793  0  2.387609  0
O  O131  1  0.15175875  0.55288612  0.35255295  1  -1.336885  0  -0.40526  -0.683783  0  2.38757  0
O  O132  1  0.65176003  0.14744697  0.94711304  1  -1.336862  0  -0.405275  -0.683794  0  2.387522  0
O  O133  1  0.65176007  0.85255276  0.05288685  1  -1.336878  0  -0.405271  -0.683776  0  2.387542  0
O  O134  1  0.34824026  0.05288744  0.14744700  1  -1.33695  0  -0.405277  -0.683806  0  2.387571  0
O  O135  1  0.34824037  0.94711287  0.85255289  1  -1.336866  0  -0.405275  -0.683801  0  2.387584  0
O  O136  1  0.11737606  0.39711805  0.42778168  1  -1.339497  0  -0.398583  -0.711993  0  2.351506  0
O  O137  1  0.11737608  0.60288166  0.57221880  1  -1.339494  0  -0.398584  -0.712027  0  2.351489  0
O  O138  1  0.88262429  0.42778162  0.60288178  1  -1.339495  0  -0.398587  -0.712004  0  2.351471  0
O  O139  1  0.88262312  0.57221871  0.39711870  1  -1.339512  0  -0.398595  -0.712015  0  2.35143  0
O  O140  1  0.38262415  0.10288181  0.92778163  1  -1.339498  0  -0.398584  -0.71202  0  2.351487  0
O  O141  1  0.38262420  0.89711850  0.07221826  1  -1.339486  0  -0.398582  -0.712008  0  2.351469  0
O  O142  1  0.61737495  0.07221885  0.10288183  1  -1.339485  0  -0.398583  -0.712023  0  2.351462  0
O  O143  1  0.61737506  0.92778146  0.89711806  1  -1.339489  0  -0.398573  -0.712  0  2.351493  0
O  O144  1  0.93130108  0.39289677  0.31676332  1  -1.331988  0  -0.324021  -0.592811  0  2.146398  0
O  O145  1  0.93130111  0.60710356  0.68323716  1  -1.331988  0  -0.324051  -0.592847  0  2.146371  0
O  O146  1  0.06870044  0.31676326  0.60710366  1  -1.331997  0  -0.32403  -0.592846  0  2.146427  0
O  O147  1  0.06870047  0.68323645  0.39289623  1  -1.331982  0  -0.32405  -0.592838  0  2.146384  0
O  O148  1  0.56869936  0.10710370  0.81676269  1  -1.331989  0  -0.324052  -0.592848  0  2.146366  0
O  O149  1  0.56869942  0.89289662  0.18323720  1  -1.331987  0  -0.324024  -0.59282  0  2.146352  0
O  O150  1  0.43130094  0.18323719  0.10710371  1  -1.332005  0  -0.324016  -0.592794  0  2.146481  0
O  O151  1  0.43129984  0.81676312  0.89289676  1  -1.332  0  -0.324028  -0.592829  0  2.146357  0
O  O152  1  0.93744398  0.15093115  0.15884866  1  -1.211997  0  -0.393734  -0.691967  0  2.277415  0
O  O153  1  0.93744643  0.84906860  0.84115183  1  -1.211722  0  -0.393739  -0.691975  0  2.277387  0
O  O154  1  0.06255632  0.15884920  0.84906874  1  -1.211995  0  -0.393731  -0.691954  0  2.277424  0
O  O155  1  0.06255518  0.84115109  0.15093115  1  -1.212  0  -0.393716  -0.691917  0  2.27749  0
O  O156  1  0.56255290  0.34906873  0.65884860  1  -1.211983  0  -0.39378  -0.692024  0  2.277539  0
O  O157  1  0.56255411  0.65093100  0.34115129  1  -1.211996  0  -0.393723  -0.691928  0  2.277531  0
O  O158  1  0.43744507  0.34115124  0.34906879  1  -1.211992  0  -0.393729  -0.691934  0  2.277428  0
O  O159  1  0.43744629  0.65884848  0.65093110  1  -1.211981  0  -0.393717  -0.691887  0  2.277438  0
O  O160  1  0.03013462  0.03751331  0.20684892  1  -1.186171  0  -0.402037  -0.665015  0  2.302256  0
O  O161  1  0.03013473  0.96248698  0.79315097  1  -1.186185  0  -0.402052  -0.665037  0  2.302228  0
O  O162  1  0.96986568  0.20684889  0.96248659  1  -1.186171  0  -0.402034  -0.665014  0  2.30226  0
O  O163  1  0.96986571  0.79315144  0.03751390  1  -1.186135  0  -0.402047  -0.665006  0  2.302252  0
O  O164  1  0.46986558  0.46248655  0.70684886  1  -1.186179  0  -0.402013  -0.664968  0  2.302282  0
O  O165  1  0.46986557  0.53751376  0.29315103  1  -1.186167  0  -0.402055  -0.66501  0  2.302254  0
O  O166  1  0.53013477  0.29315157  0.46248664  1  -1.186172  0  -0.402008  -0.664969  0  2.302275  0
O  O167  1  0.53013481  0.70684874  0.53751326  1  -1.186182  0  -0.402054  -0.665009  0  2.302249  0
O  O168  1  0.88026750  0.02541133  0.92633482  1  -1.271701  0  -0.790994  -1.149558  0  2.090948  0
O  O169  1  0.88026875  0.97458842  0.07366450  1  -1.272591  0  -0.790956  -1.149508  0  2.090944  0
O  O170  1  0.11973170  0.92633580  0.97458857  1  -1.272598  0  -0.790991  -1.149559  0  2.090943  0
O  O171  1  0.11973159  0.07366508  0.02541132  1  -1.271679  0  -0.790993  -1.149562  0  2.090946  0
O  O172  1  0.61973176  0.47458855  0.42633544  1  -1.271677  0  -0.790992  -1.149554  0  2.090925  0
O  O173  1  0.61973177  0.52541118  0.57366445  1  -1.272602  0  -0.790978  -1.149523  0  2.090985  0
O  O174  1  0.38026861  0.57366494  0.47458862  1  -1.271676  0  -0.790977  -1.149554  0  2.090968  0
O  O175  1  0.38026859  0.42633537  0.52541127  1  -1.272593  0  -0.790984  -1.149578  0  2.090969  0
O  O176  1  0.73242257  0.23805975  0.07734610  1  -1.261432  0  -0.614326  -0.809851  0  2.027659  0
O  O177  1  0.73242265  0.76193999  0.92265380  1  -1.261378  0  -0.614344  -0.809903  0  2.027641  0
O  O178  1  0.26757773  0.07734666  0.76194070  1  -1.261368  0  -0.614349  -0.809882  0  2.027662  0
O  O179  1  0.26757897  0.92265364  0.23805977  1  -1.261428  0  -0.614344  -0.809892  0  2.027628  0
O  O180  1  0.76757786  0.26194072  0.57734663  1  -1.261453  0  -0.61436  -0.809891  0  2.027657  0
O  O181  1  0.76757790  0.73805961  0.42265385  1  -1.261348  0  -0.614335  -0.809894  0  2.027634  0
O  O182  1  0.23242129  0.42265320  0.26194075  1  -1.261449  0  -0.614358  -0.809879  0  2.02767  0
O  O183  1  0.23242250  0.57734593  0.73805972  1  -1.261348  0  -0.614343  -0.809904  0  2.027634  0
