# generated using pymatgen
data_CoH24C30(N2O3)2
_symmetry_space_group_name_H-M   'P 1'
_cell_length_a   12.90199212
_cell_length_b   12.90201643
_cell_length_c   15.31371925
_cell_angle_alpha   89.99976977
_cell_angle_beta   90.00001184
_cell_angle_gamma   119.99995098
_symmetry_Int_Tables_number   1
_chemical_formula_structural   CoH24C30(N2O3)2
_chemical_formula_sum   'Co3 H72 C90 N12 O18'
_cell_volume   2207.62798101
_cell_formula_units_Z   3
loop_
 _symmetry_equiv_pos_site_id
 _symmetry_equiv_pos_as_xyz
  1  'x, y, z'
loop_
 _atom_site_type_symbol
 _atom_site_label
 _atom_site_symmetry_multiplicity
 _atom_site_fract_x
 _atom_site_fract_y
 _atom_site_fract_z
 _atom_site_occupancy
 _atom_site_pbe_bader_charge
 _atom_site_pbe_bader_spin_density
 _atom_site_pbe_cm5_charge
 _atom_site_pbe_ddec_charge
 _atom_site_pbe_ddec_spin_density
 _atom_site_pbe_ddec_sum_bond_order
 _atom_site_pbe_magmom
Co  Co0  1  0.38576068  0.00000012  0.00000030  1  1.264383  2.601038  0.661051  0.858184  2.807129  2.452771  2.582
Co  Co1  1  0.61423509  0.61423678  0.66666593  1  1.26343  2.601081  0.661042  0.858194  2.807096  2.452735  2.582
Co  Co2  1  0.99999810  0.38576352  0.33333387  1  1.264474  2.600991  0.661041  0.8582  2.807096  2.452702  2.582
H  H3  1  0.48513578  0.11936374  0.81760658  1  0.182789  0.000542  0.137124  0.102851  1e-05  1.032334  0.0
H  H4  1  0.63422768  0.51486384  0.48427801  1  0.193835  0.000549  0.137118  0.102847  1e-05  1.032363  0.0
H  H5  1  0.88062244  0.36575227  0.15094711  1  0.190985  0.000543  0.137134  0.102847  1e-05  1.03225  0.0
H  H6  1  0.36577390  0.88063747  0.18239381  1  0.183359  0.000543  0.137145  0.102875  1e-05  1.032288  0.0
H  H7  1  0.11936421  0.48513684  0.51572237  1  0.182753  0.000542  0.137124  0.102843  1e-05  1.032379  0.0
H  H8  1  0.51487028  0.63425014  0.84905267  1  0.200829  0.000546  0.137127  0.102822  1e-05  1.032316  0.0
H  H9  1  0.87911834  0.42281922  0.59405557  1  0.058868  0.000283  0.10229  0.098745  9.9e-05  1.028311  0.0
H  H10  1  0.54370121  0.12088148  0.26072684  1  0.074552  0.000278  0.102287  0.098763  9.9e-05  1.028224  0.0
H  H11  1  0.57718388  0.45630508  0.92738992  1  0.09046  0.000278  0.10229  0.09882  9.9e-05  1.028306  0.0
H  H12  1  0.45629601  0.57717935  0.40594356  1  0.090375  0.000278  0.102289  0.098742  9.9e-05  1.028287  0.0
H  H13  1  0.42281895  0.87911778  0.73927421  1  0.059179  0.000283  0.102289  0.098782  9.9e-05  1.02822  0.0
H  H14  1  0.12087960  0.54369614  0.07260980  1  0.074574  0.000278  0.102296  0.098808  9.9e-05  1.028311  0.0
H  H15  1  0.64753086  0.11048619  0.11304817  1  0.079627  0.000115  0.105656  0.119025  -0.000117  1.009004  0.0
H  H16  1  0.46295122  0.35246080  0.77971793  1  0.100816  0.000119  0.10564  0.119055  -0.000117  1.008988  0.0
H  H17  1  0.88951003  0.53704731  0.44638191  1  0.084223  0.00012  0.105656  0.119047  -0.000117  1.008998  0.0
H  H18  1  0.53704673  0.88951349  0.88695094  1  0.083458  0.00012  0.105638  0.118992  -0.000117  1.009006  0.0
H  H19  1  0.11049198  0.64753961  0.22028178  1  0.077146  0.000116  0.105634  0.119046  -0.000117  1.008958  0.0
H  H20  1  0.35246372  0.46295356  0.55361851  1  0.102206  0.000119  0.105644  0.119012  -0.000117  1.009024  0.0
H  H21  1  0.81633959  0.40183662  0.75020578  1  0.109038  1.8e-05  0.108027  0.125142  -2.4e-05  1.015896  0.0
H  H22  1  0.58548527  0.18365245  0.41687561  1  0.106476  1.8e-05  0.108061  0.125221  -2.4e-05  1.015774  0.0
H  H23  1  0.59816735  0.41451174  0.08353164  1  0.107188  1.8e-05  0.108048  0.125228  -2.4e-05  1.015806  0.0
H  H24  1  0.41450260  0.59816264  0.24979334  1  0.106866  1.8e-05  0.108074  0.125223  -2.4e-05  1.015954  0.0
H  H25  1  0.40183171  0.81634524  0.58312610  1  0.109187  1.8e-05  0.108053  0.125211  -2.4e-05  1.015869  0.0
H  H26  1  0.18365657  0.58548977  0.91646875  1  0.105859  1.8e-05  0.108038  0.125205  -2.4e-05  1.015846  0.0
H  H27  1  0.66947732  0.04090345  0.56109556  1  0.160254  4.1e-05  0.103438  0.112131  -3.1e-05  1.057627  0.0
H  H28  1  0.37142872  0.33052741  0.22776387  1  0.144999  4e-05  0.103421  0.112091  -3.1e-05  1.05756  0.0
H  H29  1  0.95910140  0.62857911  0.89442445  1  0.121378  3.8e-05  0.103415  0.112121  -3.1e-05  1.057594  0.0
H  H30  1  0.62857286  0.95909451  0.43890487  1  0.121514  3.8e-05  0.103428  0.112103  -3.1e-05  1.057621  0.0
H  H31  1  0.04090001  0.66947434  0.77223583  1  0.160445  4.2e-05  0.103435  0.1121  -3.1e-05  1.057634  0.0
H  H32  1  0.33052290  0.37142277  0.10557532  1  0.145507  4e-05  0.103423  0.112128  -3.1e-05  1.057583  0.0
H  H33  1  0.86465354  0.17730699  0.12865043  1  0.095555  7.7e-05  0.098817  0.106015  -4e-05  1.032564  0.0
H  H34  1  0.31264805  0.13533611  0.79531802  1  0.090783  7.7e-05  0.098823  0.105973  -4e-05  1.032606  0.0
H  H35  1  0.82269831  0.68735714  0.46198074  1  0.095472  7.7e-05  0.098803  0.106039  -4e-05  1.032515  0.0
H  H36  1  0.68734669  0.82269090  0.87134871  1  0.09557  7.7e-05  0.098812  0.106008  -4e-05  1.032568  0.0
H  H37  1  0.17731262  0.86466358  0.20468103  1  0.094229  7.6e-05  0.098798  0.105899  -4e-05  1.03263  0.0
H  H38  1  0.13534223  0.31264243  0.53801901  1  0.09534  7.7e-05  0.098801  0.106026  -4e-05  1.03253  0.0
H  H39  1  0.92465150  0.27231249  0.85408084  1  0.068609  0.000371  0.099006  0.104826  0.000146  1.05524  0.0
H  H40  1  0.34766285  0.07534679  0.52074799  1  0.060722  0.000373  0.099004  0.104821  0.000146  1.055295  0.0
H  H41  1  0.72768399  0.65233552  0.18741195  1  0.06193  0.000372  0.098983  0.104763  0.000146  1.055265  0.0
H  H42  1  0.65233850  0.72768557  0.14591831  1  0.062924  0.000371  0.099  0.104813  0.000146  1.055241  0.0
H  H43  1  0.27231695  0.92465403  0.47925107  1  0.070716  0.000371  0.098989  0.104826  0.000146  1.055243  0.0
H  H44  1  0.07534921  0.34766429  0.81258778  1  0.061293  0.000373  0.099  0.104801  0.000146  1.055259  0.0
H  H45  1  0.61107669  0.01843686  0.71665675  1  0.061053  0.000325  0.108763  0.118416  0.000139  1.003143  0.0
H  H46  1  0.40736335  0.38892925  0.38332037  1  0.06845  0.000324  0.108773  0.118436  0.000139  1.003069  0.0
H  H47  1  0.98156962  0.59264250  0.04998041  1  0.082744  0.000323  0.108757  0.118418  0.000139  1.003111  0.0
H  H48  1  0.59264119  0.98156221  0.28334367  1  0.083038  0.000323  0.108771  0.11843  0.000139  1.003138  0.0
H  H49  1  0.01843247  0.61107465  0.61667933  1  0.061028  0.000325  0.108768  0.118432  0.000139  1.00309  0.0
H  H50  1  0.38892644  0.40735732  0.95001872  1  0.068305  0.000324  0.10876  0.118416  0.000139  1.003111  0.0
H  H51  1  0.00231259  0.25741692  0.00147537  1  0.089435  2.1e-05  0.095768  0.094881  -4e-06  1.020396  0.0
H  H52  1  0.25510101  0.99768194  0.66813974  1  0.056507  2.3e-05  0.095815  0.094901  -4e-06  1.020357  0.0
H  H53  1  0.74259101  0.74490393  0.33479925  1  0.058269  2.2e-05  0.095752  0.094804  -4e-06  1.020431  0.0
H  H54  1  0.74489506  0.74257984  0.99852436  1  0.058541  2.2e-05  0.095796  0.094939  -4e-06  1.02037  0.0
H  H55  1  0.25742040  0.00231788  0.33185866  1  0.089345  2.1e-05  0.095813  0.0949  -4e-06  1.020343  0.0
H  H56  1  0.99768817  0.25509449  0.66520122  1  0.056438  2.3e-05  0.095748  0.094807  -4e-06  1.020477  0.0
H  H57  1  0.34281366  0.16790691  0.00572664  1  0.630507  4.5e-05  0.285946  0.328959  0.000278  1.02166  0.0
H  H58  1  0.82508760  0.65718680  0.67237448  1  0.630045  5.2e-05  0.286007  0.329026  0.000279  1.021581  0.0
H  H59  1  0.83210072  0.17490922  0.33903694  1  0.654669  5e-05  0.286052  0.32907  0.000278  1.021572  0.0
H  H60  1  0.17490694  0.83209136  0.99427699  1  0.653472  5e-05  0.285967  0.329  0.000278  1.021635  0.0
H  H61  1  0.16790320  0.34281681  0.32762592  1  0.630337  4.5e-05  0.285995  0.328979  0.000279  1.021661  0.0
H  H62  1  0.65718909  0.82508938  0.66096219  1  0.629907  5.1e-05  0.286036  0.329023  0.000278  1.021559  0.0
H  H63  1  0.14953394  0.98683185  0.89994366  1  0.028863  0.000257  0.10308  0.074531  -3.1e-05  0.972843  0.0
H  H64  1  0.83729580  0.85048309  0.56661605  1  0.027273  0.000257  0.103099  0.074587  -3.1e-05  0.972833  0.0
H  H65  1  0.01317251  0.16269327  0.23326703  1  0.034122  0.000256  0.103163  0.074679  -3.1e-05  0.972798  0.0
H  H66  1  0.16269974  0.01316566  0.10005929  1  0.033563  0.000257  0.103131  0.074642  -3.1e-05  0.972718  0.0
H  H67  1  0.98681290  0.14951940  0.43338312  1  0.03048  0.000257  0.103082  0.074574  -3.1e-05  0.972897  0.0
H  H68  1  0.85047687  0.83730582  0.76673205  1  0.029076  0.000257  0.103147  0.074673  -3.1e-05  0.972719  0.0
H  H69  1  0.14372732  0.10092324  0.96207964  1  0.028751  0.002709  0.099357  0.067272  0.001125  0.971418  0.002
H  H70  1  0.95719166  0.85628072  0.62874922  1  -0.007116  0.002749  0.099378  0.067243  0.001125  0.971415  0.002
H  H71  1  0.89907961  0.04280308  0.29540897  1  0.060692  0.002648  0.099319  0.067142  0.001125  0.971463  0.002
H  H72  1  0.04280194  0.89907404  0.03792199  1  0.060585  0.002649  0.099331  0.067259  0.001125  0.971418  0.002
H  H73  1  0.10091211  0.14372081  0.37125184  1  0.028805  0.002708  0.099355  0.067228  0.001125  0.971345  0.002
H  H74  1  0.85627456  0.95719710  0.70459149  1  -0.007164  0.002748  0.099328  0.067178  0.001125  0.971514  0.002
C  C75  1  0.55917545  0.13953098  0.86107933  1  0.987437  0.00584  0.167661  0.154131  0.003454  3.895022  0.004
C  C76  1  0.58035519  0.44082125  0.52775091  1  1.010723  0.005842  0.167611  0.15407  0.003456  3.895285  0.004
C  C77  1  0.86045670  0.41963333  0.19441719  1  0.988984  0.005874  0.167658  0.154164  0.003464  3.894883  0.004
C  C78  1  0.41964721  0.86046932  0.13891846  1  0.995842  0.00586  0.167653  0.154135  0.003454  3.895091  0.004
C  C79  1  0.13953348  0.55917932  0.47224946  1  0.993666  0.005837  0.167631  0.15406  0.003457  3.89519  0.004
C  C80  1  0.44082470  0.58036856  0.80558258  1  1.001339  0.005856  0.167667  0.154186  0.003464  3.894736  0.004
C  C81  1  0.66559627  0.15358713  0.97536246  1  0.365311  0.001305  0.089813  0.1488  -0.000166  4.043827  0.001
C  C82  1  0.48799068  0.33439925  0.64203162  1  0.368689  0.001286  0.089764  0.148761  -0.000164  4.043965  0.001
C  C83  1  0.84640856  0.51200497  0.30869626  1  0.347707  0.001292  0.089774  0.148716  -0.000165  4.043792  0.001
C  C84  1  0.51201032  0.84641253  0.02463796  1  0.346067  0.001294  0.089805  0.148721  -0.000166  4.043815  0.001
C  C85  1  0.15359128  0.66560074  0.35796810  1  0.367054  0.001309  0.089747  0.14872  -0.000164  4.043898  0.001
C  C86  1  0.33440379  0.48799464  0.69130416  1  0.368243  0.001285  0.089817  0.148799  -0.000165  4.043794  0.001
C  C87  1  0.81951951  0.24507292  0.47443894  1  1.585861  -0.001667  0.21006  0.566847  -0.002547  4.20469  -0.001
C  C88  1  0.42556919  0.18050036  0.14110458  1  1.566242  -0.001623  0.209934  0.566759  -0.002548  4.205049  -0.001
C  C89  1  0.75492681  0.57443444  0.80776433  1  1.565586  -0.001648  0.209998  0.566967  -0.00255  4.204971  -0.001
C  C90  1  0.57444369  0.75492590  0.52556084  1  1.562476  -0.001647  0.210047  0.566834  -0.002547  4.204765  -0.001
C  C91  1  0.24506727  0.81949955  0.85889645  1  1.585386  -0.001665  0.209896  0.566741  -0.002548  4.205153  -0.001
C  C92  1  0.18049499  0.42556876  0.19223542  1  1.565898  -0.001625  0.209967  0.566935  -0.00255  4.205105  -0.001
C  C93  1  0.74531693  0.20059281  0.90377691  1  0.321251  0.002482  0.092426  0.097043  0.001407  4.006634  0.002
C  C94  1  0.45527900  0.25468084  0.57044757  1  0.278345  0.002489  0.09237  0.097009  0.001407  4.006932  0.002
C  C95  1  0.79940588  0.54472168  0.23710941  1  0.316784  0.002485  0.092455  0.097059  0.001407  4.006633  0.002
C  C96  1  0.54472497  0.79940692  0.09622287  1  0.318835  0.002482  0.092409  0.097126  0.001407  4.006649  0.002
C  C97  1  0.20059799  0.74531959  0.42955280  1  0.325786  0.002477  0.092385  0.097033  0.001407  4.006854  0.002
C  C98  1  0.25468436  0.45527850  0.76289100  1  0.278423  0.002488  0.09244  0.097039  0.001407  4.006655  0.002
C  C99  1  0.70976214  0.20846264  0.74223938  1  0.297914  -0.000419  0.09373  0.170838  -0.000661  4.020939  0.0
C  C100  1  0.49869266  0.29023234  0.40890936  1  0.2962  -0.000417  0.093725  0.17077  -0.000661  4.02101  0.0
C  C101  1  0.79154277  0.50130677  0.07556937  1  0.369111  -0.000424  0.093787  0.170754  -0.000662  4.020977  0.0
C  C102  1  0.50130091  0.79153741  0.25775973  1  0.3664  -0.000424  0.093752  0.170838  -0.00066  4.020937  0.0
C  C103  1  0.20845901  0.70976767  0.59109102  1  0.297291  -0.000419  0.093742  0.170752  -0.000661  4.021136  0.0
C  C104  1  0.29023704  0.49869414  0.92442974  1  0.298004  -0.000419  0.093749  0.170728  -0.000662  4.021026  0.0
C  C105  1  0.77784205  0.23400000  0.56731123  1  -0.069989  0.005612  -0.019622  -0.046231  0.002842  3.981496  0.004
C  C106  1  0.45616055  0.22216240  0.23397744  1  -0.056282  0.005607  -0.019663  -0.046168  0.002841  3.981566  0.004
C  C107  1  0.76600735  0.54385272  0.90063992  1  -0.070237  0.00561  -0.01956  -0.046091  0.002841  3.981579  0.004
C  C108  1  0.54383887  0.76599768  0.43268854  1  -0.066766  0.005611  -0.019648  -0.046242  0.002841  3.981416  0.004
C  C109  1  0.23399616  0.77783829  0.76602359  1  -0.070003  0.00561  -0.019662  -0.046316  0.002841  3.981792  0.004
C  C110  1  0.22215546  0.45614862  0.09936048  1  -0.055723  0.005608  -0.019564  -0.046105  0.002841  3.981532  0.004
C  C111  1  0.81935535  0.33476335  0.62138807  1  -0.007674  -0.000801  -0.079547  -0.072045  -0.001075  3.969516  -0.001
C  C112  1  0.51540309  0.18064107  0.28805648  1  -0.029034  -0.000795  -0.079484  -0.072009  -0.001075  3.969336  -0.001
C  C113  1  0.66524039  0.48460558  0.95471701  1  -0.037765  -0.000799  -0.079545  -0.072176  -0.001076  3.969654  -0.001
C  C114  1  0.48458960  0.66523505  0.37861105  1  -0.037575  -0.000798  -0.079528  -0.071997  -0.001075  3.969366  -0.001
C  C115  1  0.33475993  0.81935810  0.71194457  1  -0.008182  -0.000801  -0.079526  -0.072005  -0.001075  3.969375  -0.001
C  C116  1  0.18063595  0.51539564  0.04528272  1  -0.029549  -0.000796  -0.079524  -0.072113  -0.001076  3.969554  -0.001
C  C117  1  0.70829536  0.14556129  0.05757368  1  0.026267  0.001331  -0.088302  -0.146684  0.00032  3.963027  0.001
C  C118  1  0.43726348  0.29169724  0.72424359  1  -0.066236  0.001338  -0.088259  -0.146767  0.00032  3.963203  0.001
C  C119  1  0.85443994  0.56273916  0.39090677  1  0.03133  0.001323  -0.088254  -0.146636  0.00032  3.963024  0.001
C  C120  1  0.56273623  0.85443927  0.94242609  1  0.031465  0.001324  -0.08827  -0.146594  0.00032  3.963042  0.001
C  C121  1  0.14556651  0.70830253  0.27575612  1  0.023869  0.001331  -0.088243  -0.146744  0.00032  3.963164  0.001
C  C122  1  0.29170136  0.43726088  0.60909364  1  -0.067358  0.001338  -0.088253  -0.14663  0.00032  3.96306  0.001
C  C123  1  0.78529966  0.32299786  0.70885149  1  -0.025809  0.000994  -0.086498  -0.157549  0.000441  3.951065  0.001
C  C124  1  0.53768786  0.21469282  0.37552048  1  -0.026328  0.000995  -0.086533  -0.157632  0.000441  3.950994  0.001
C  C125  1  0.67700906  0.46231562  0.04217975  1  -0.093944  0.001  -0.08657  -0.157672  0.000442  3.951222  0.001
C  C126  1  0.46230154  0.67700105  0.29114763  1  -0.090518  0.000999  -0.086578  -0.15768  0.000441  3.951145  0.001
C  C127  1  0.32299338  0.78530588  0.62448057  1  -0.026005  0.000994  -0.086527  -0.15764  0.000442  3.951107  0.001
C  C128  1  0.21469448  0.53768545  0.95781999  1  -0.025579  0.000996  -0.086552  -0.157661  0.000442  3.951235  0.001
C  C129  1  0.70066864  0.12025429  0.60159636  1  -0.018755  -0.000255  -0.083979  -0.083437  -0.000619  3.971539  0.0
C  C130  1  0.41958297  0.29933016  0.26826552  1  -0.004004  -0.000252  -0.083918  -0.083426  -0.000619  3.971534  0.0
C  C131  1  0.87974819  0.58042484  0.93492612  1  0.016412  -0.000253  -0.083961  -0.083517  -0.00062  3.97162  0.0
C  C132  1  0.58041318  0.87974410  0.39840341  1  0.017886  -0.000252  -0.083983  -0.083456  -0.000619  3.9715  0.0
C  C133  1  0.12025083  0.70067088  0.73173550  1  -0.020507  -0.000255  -0.083917  -0.083317  -0.000619  3.971607  0.0
C  C134  1  0.29932448  0.41957672  0.06507364  1  -0.00489  -0.000253  -0.083966  -0.08354  -0.00062  3.971618  0.0
C  C135  1  0.82970523  0.18290040  0.06503883  1  -0.077185  0.000329  -0.101984  -0.101837  0.000171  4.02672  0.0
C  C136  1  0.35319380  0.17028741  0.73170768  1  -0.00737  0.000318  -0.101903  -0.101614  0.000171  4.026781  0.0
C  C137  1  0.81710527  0.64681356  0.39836922  1  -0.068433  0.000329  -0.101965  -0.101921  0.000172  4.026606  0.0
C  C138  1  0.64680517  0.81709818  0.93496031  1  -0.072776  0.000327  -0.101984  -0.10187  0.000171  4.026761  0.0
C  C139  1  0.18290682  0.82971251  0.26829268  1  -0.0762  0.000329  -0.101918  -0.101562  0.000171  4.026696  0.0
C  C140  1  0.17029340  0.35318616  0.60163053  1  -0.01703  0.000319  -0.10198  -0.101906  0.000172  4.026553  0.0
C  C141  1  0.86658964  0.23826285  0.91086331  1  -0.02256  0.000909  -0.100867  -0.172299  0.000469  4.033472  0.0
C  C142  1  0.37167484  0.13340539  0.57753162  1  0.036409  0.000892  -0.100878  -0.172329  0.000469  4.033707  0.0
C  C143  1  0.76173851  0.62832735  0.24419376  1  0.025112  0.000897  -0.100809  -0.172253  0.000469  4.033474  0.0
C  C144  1  0.62832705  0.76173591  0.08913583  1  0.010847  0.000899  -0.10085  -0.172263  0.000469  4.033508  0.0
C  C145  1  0.23826988  0.86659485  0.42246745  1  -0.03082  0.000911  -0.100866  -0.172381  0.000469  4.033729  0.0
C  C146  1  0.13341220  0.37167252  0.75580598  1  0.036525  0.000893  -0.100834  -0.172317  0.000469  4.033537  0.0
C  C147  1  0.66757891  0.10725311  0.68906044  1  -0.019579  0.001651  -0.086698  -0.158165  0.000827  3.972212  0.001
C  C148  1  0.43967150  0.33241896  0.35572886  1  -0.027005  0.00165  -0.086732  -0.158145  0.000827  3.972228  0.001
C  C149  1  0.89275147  0.56033694  0.02238951  1  -0.040899  0.001654  -0.08673  -0.158087  0.000828  3.972157  0.001
C  C150  1  0.56032630  0.89274560  0.31093933  1  -0.042696  0.001653  -0.086677  -0.158098  0.000827  3.972178  0.001
C  C151  1  0.10725128  0.66758193  0.64427215  1  -0.01792  0.001651  -0.086739  -0.158162  0.000827  3.972287  0.001
C  C152  1  0.33241475  0.43966320  0.97761026  1  -0.027944  0.001651  -0.086704  -0.158037  0.000828  3.972134  0.001
C  C153  1  0.90779720  0.22858807  0.99287606  1  -0.070411  0.000691  -0.099919  -0.087194  0.000334  4.036874  0.0
C  C154  1  0.32079013  0.09219711  0.65954376  1  -0.036418  0.000689  -0.100004  -0.087279  0.000334  4.037049  0.0
C  C155  1  0.77141861  0.67921564  0.32620445  1  -0.072048  0.000695  -0.099975  -0.087064  0.000333  4.036849  0.0
C  C156  1  0.67920963  0.77141022  0.00712308  1  -0.053937  0.000693  -0.099963  -0.087285  0.000334  4.036948  0.0
C  C157  1  0.22859373  0.90780279  0.34045529  1  -0.064101  0.000689  -0.099956  -0.087202  0.000334  4.037025  0.0
C  C158  1  0.09220416  0.32078370  0.67379528  1  -0.031623  0.00069  -0.099935  -0.087029  0.000333  4.03688  0.0
C  C159  1  0.18148568  0.04074687  0.95995420  1  0.462194  0.001312  -0.081514  0.025899  0.000387  3.948049  0.0
C  C160  1  0.85925466  0.81851943  0.62662243  1  0.500406  0.001295  -0.081503  0.02589  0.000386  3.948097  0.0
C  C161  1  0.95925660  0.14074088  0.29327674  1  0.445428  0.001379  -0.08148  0.026019  0.000386  3.94796  0.0
C  C162  1  0.14073778  0.95925156  0.04004875  1  0.446342  0.001379  -0.081496  0.025913  0.000386  3.947928  0.0
C  C163  1  0.04073651  0.18148265  0.37337731  1  0.460321  0.001312  -0.081472  0.025884  0.000386  3.948032  0.0
C  C164  1  0.81851495  0.85926016  0.70672243  1  0.522554  0.001293  -0.081482  0.025938  0.000386  3.948  0.0
N  N165  1  0.54997720  0.11619286  0.94597188  1  -1.19988  0.055305  -0.350944  -0.3557  0.028806  3.534803  0.044
N  N166  1  0.56621927  0.45002263  0.61264275  1  -1.210495  0.055262  -0.350893  -0.355597  0.028807  3.534852  0.044
N  N167  1  0.88379462  0.43376982  0.27930837  1  -1.200356  0.055179  -0.350958  -0.355749  0.028807  3.534856  0.044
N  N168  1  0.43378498  0.88380668  0.05402787  1  -1.199768  0.055177  -0.35093  -0.355614  0.028805  3.534791  0.044
N  N169  1  0.11619761  0.54997799  0.38735697  1  -1.205911  0.055313  -0.350908  -0.355575  0.028806  3.534753  0.044
N  N170  1  0.45002496  0.56623152  0.72069141  1  -1.208227  0.055261  -0.35095  -0.355747  0.028807  3.53477  0.044
N  N171  1  0.67453562  0.19132171  0.83199749  1  -1.256373  0.007028  -0.224941  -0.065451  0.003365  3.743494  0.005
N  N172  1  0.51678619  0.32546183  0.49866803  1  -1.281371  0.00702  -0.224855  -0.065397  0.003366  3.74357  0.005
N  N173  1  0.80867321  0.48320715  0.16533009  1  -1.268773  0.007033  -0.224925  -0.065337  0.003369  3.743135  0.005
N  N174  1  0.48321537  0.80867925  0.16800162  1  -1.269312  0.007027  -0.224944  -0.065577  0.003365  3.743646  0.005
N  N175  1  0.19132407  0.67453913  0.50133234  1  -1.257244  0.00703  -0.224864  -0.065366  0.003366  3.743481  0.005
N  N176  1  0.32546619  0.51679353  0.83466967  1  -1.28192  0.007027  -0.224954  -0.065381  0.003369  3.743093  0.005
O  O177  1  0.91273799  0.34317969  0.45340013  1  -1.170217  0.062477  -0.31455  -0.565848  0.032327  2.384954  0.053
O  O178  1  0.43044238  0.08727691  0.12006413  1  -1.161647  0.062468  -0.314511  -0.565766  0.032328  2.384989  0.053
O  O179  1  0.65682664  0.56955526  0.78672502  1  -1.163562  0.062504  -0.314588  -0.565892  0.032331  2.384952  0.053
O  O180  1  0.56955988  0.65682122  0.54659966  1  -1.163556  0.062499  -0.314525  -0.565812  0.032328  2.384959  0.053
O  O181  1  0.34316313  0.91272568  0.87993560  1  -1.169818  0.062474  -0.314504  -0.565734  0.032328  2.384965  0.053
O  O182  1  0.08726953  0.43044184  0.21327405  1  -1.161946  0.062484  -0.314554  -0.56586  0.032331  2.385015  0.053
O  O183  1  0.76140336  0.15611154  0.42366827  1  -1.192932  -0.001031  -0.313427  -0.542283  -0.001867  2.208634  -0.001
O  O184  1  0.39474491  0.23863516  0.09033105  1  -1.187638  -0.001032  -0.313361  -0.542273  -0.001866  2.208835  -0.001
O  O185  1  0.84387995  0.60525519  0.75698694  1  -1.17713  -0.001033  -0.313366  -0.542353  -0.001869  2.208933  -0.001
O  O186  1  0.60528530  0.84388542  0.57633282  1  -1.17757  -0.001033  -0.313435  -0.542276  -0.001867  2.208679  -0.001
O  O187  1  0.15611131  0.76136037  0.90967192  1  -1.192102  -0.001031  -0.313312  -0.542258  -0.001867  2.208946  -0.001
O  O188  1  0.23862959  0.39475231  0.24301478  1  -1.187963  -0.001035  -0.313374  -0.542356  -0.001869  2.208994  -0.001
O  O189  1  0.30959443  0.10865572  0.95395686  1  -1.154922  0.051653  -0.398738  -0.490839  0.026678  2.411886  0.043
O  O190  1  0.79905494  0.69041071  0.62060908  1  -1.154489  0.051554  -0.398798  -0.490854  0.026676  2.411813  0.043
O  O191  1  0.89134437  0.20093938  0.28726503  1  -1.172734  0.05161  -0.398903  -0.490985  0.026675  2.411719  0.043
O  O192  1  0.20093837  0.89134232  0.04604611  1  -1.171984  0.05161  -0.398789  -0.490919  0.026677  2.411874  0.043
O  O193  1  0.10864535  0.30959114  0.37939066  1  -1.154286  0.051653  -0.398804  -0.490833  0.026677  2.411804  0.043
O  O194  1  0.69040429  0.79906053  0.71273281  1  -1.154635  0.051556  -0.398887  -0.490924  0.026674  2.411686  0.043
