# generated using pymatgen
data_YbH9C15O7
_symmetry_space_group_name_H-M   'P 1'
_cell_length_a   14.47873430
_cell_length_b   14.73765643
_cell_length_c   14.73761468
_cell_angle_alpha   89.99919583
_cell_angle_beta   89.99956079
_cell_angle_gamma   89.99949684
_symmetry_Int_Tables_number   1
_chemical_formula_structural   YbH9C15O7
_chemical_formula_sum   'Yb4 H36 C60 O28'
_cell_volume   3144.75070950
_cell_formula_units_Z   4
loop_
 _symmetry_equiv_pos_site_id
 _symmetry_equiv_pos_as_xyz
  1  'x, y, z'
loop_
 _atom_site_type_symbol
 _atom_site_label
 _atom_site_symmetry_multiplicity
 _atom_site_fract_x
 _atom_site_fract_y
 _atom_site_fract_z
 _atom_site_occupancy
 _atom_site_pbe_bader_charge
 _atom_site_pbe_bader_spin_density
 _atom_site_pbe_cm5_charge
 _atom_site_pbe_ddec_charge
 _atom_site_pbe_ddec_spin_density
 _atom_site_pbe_ddec_sum_bond_order
 _atom_site_pbe_magmom
Yb  Yb0  1  0.48251634  0.63001445  0.41333541  1  2.189152  0  1.618699  2.111261  0  2.200457  0
Yb  Yb1  1  0.98251564  0.36998195  0.58666191  1  2.18916  0  1.618656  2.111249  0  2.200401  0
Yb  Yb2  1  0.23251594  0.58666180  0.63001487  1  2.189157  0  1.618687  2.111269  0  2.200561  0
Yb  Yb3  1  0.73252138  0.41333879  0.36998162  1  2.189337  0  1.61868  2.111251  0  2.200675  0
H  H4  1  0.59696643  0.57598680  0.25618917  1  0.68535  0  0.304682  0.420812  0  0.906179  0
H  H5  1  0.09696363  0.42401497  0.74380563  1  0.685375  0  0.304701  0.420892  0  0.906064  0
H  H6  1  0.34696261  0.74380743  0.57598424  1  0.685369  0  0.304677  0.420884  0  0.906076  0
H  H7  1  0.84697179  0.25619218  0.42401478  1  0.685307  0  0.304644  0.420814  0  0.906151  0
H  H8  1  0.57444674  0.68275832  0.25039313  1  0.62881  0  0.340051  0.428343  0  0.849189  0
H  H9  1  0.07444208  0.31724432  0.74960862  1  0.628855  0  0.340063  0.42834  0  0.849192  0
H  H10  1  0.32443810  0.74960281  0.68275530  1  0.628906  0  0.340059  0.428466  0  0.849024  0
H  H11  1  0.82444747  0.25039427  0.31724458  1  0.628834  0  0.340019  0.428356  0  0.849169  0
H  H12  1  0.10044732  0.52872358  0.45564495  1  0.104136  0  0.114309  0.102472  0  1.0592  0
H  H13  1  0.60044950  0.47127544  0.54435457  1  0.104158  0  0.11427  0.102462  0  1.059175  0
H  H14  1  0.85045244  0.54436139  0.52872169  1  0.104253  0  0.114352  0.102537  0  1.059105  0
H  H15  1  0.35045563  0.45564089  0.47127120  1  0.104212  0  0.114335  0.102544  0  1.059232  0
H  H16  1  0.97891481  0.49025962  0.19254099  1  0.110741  0  0.110738  0.117647  0  0.993049  0
H  H17  1  0.47890937  0.50973885  0.80745839  1  0.110677  0  0.110731  0.117671  0  0.992989  0
H  H18  1  0.72892077  0.80746644  0.49025206  1  0.11084  0  0.110767  0.117654  0  0.992856  0
H  H19  1  0.22892186  0.19254029  0.50974513  1  0.11095  0  0.110739  0.117679  0  0.992876  0
H  H20  1  0.24947747  0.61222567  0.21859323  1  0.079839  0  0.112012  0.118252  0  0.997937  0
H  H21  1  0.74947648  0.38777750  0.78140653  1  0.079884  0  0.112014  0.118254  0  0.997932  0
H  H22  1  0.99948066  0.78140667  0.61223569  1  0.079808  0  0.112024  0.118298  0  0.99786  0
H  H23  1  0.49948592  0.21858958  0.38776965  1  0.079653  0  0.11203  0.118279  0  0.997846  0
H  H24  1  0.18059654  0.69678299  0.09880146  1  0.055639  0  0.104361  0.104629  0  0.997001  0
H  H25  1  0.68059882  0.30321534  0.90119949  1  0.055603  0  0.104349  0.104667  0  0.996967  0
H  H26  1  0.93059394  0.90119204  0.69678746  1  0.055491  0  0.104402  0.104673  0  0.996871  0
H  H27  1  0.43059817  0.09879938  0.30321636  1  0.055698  0  0.104378  0.104684  0  0.996923  0
H  H28  1  0.21288890  0.70483730  0.93264043  1  0.088832  0  0.107273  0.112015  0  0.992725  0
H  H29  1  0.71289499  0.29516482  0.06735825  1  0.088817  0  0.107255  0.112008  0  0.99276  0
H  H30  1  0.96288015  0.06735235  0.70484470  1  0.088854  0  0.107285  0.112125  0  0.992612  0
H  H31  1  0.46288390  0.93264014  0.29516634  1  0.088956  0  0.107268  0.112028  0  0.992753  0
H  H32  1  0.10270933  0.43620982  0.89902060  1  0.070474  0  0.104389  0.104052  0  1.01343  0
H  H33  1  0.60271414  0.56379393  0.10097619  1  0.070602  0  0.104414  0.104049  0  1.013514  0
H  H34  1  0.85270981  0.10098286  0.43621117  1  0.070501  0  0.10442  0.104096  0  1.013361  0
H  H35  1  0.35271108  0.89901941  0.56379798  1  0.070496  0  0.104429  0.104089  0  1.013494  0
H  H36  1  0.07066148  0.42729445  0.06419369  1  0.076644  0  0.104092  0.104079  0  0.997569  0
H  H37  1  0.57066108  0.57270686  0.93580470  1  0.07659  0  0.104068  0.104022  0  0.997588  0
H  H38  1  0.82066257  0.93580982  0.42729694  1  0.076667  0  0.104075  0.104032  0  0.997518  0
H  H39  1  0.32066501  0.06419205  0.57271042  1  0.076547  0  0.104083  0.104036  0  0.997534  0
C  C40  1  0.18152370  0.57634829  0.34262942  1  0.002387  0  -0.014372  -0.038602  0  3.973513  0
C  C41  1  0.68152404  0.42365343  0.65736950  1  0.002325  0  -0.014315  -0.038501  0  3.973476  0
C  C42  1  0.93152514  0.65737189  0.57635313  1  0.00216  0  -0.014366  -0.038469  0  3.973274  0
C  C43  1  0.43153109  0.34262630  0.42364594  1  0.002175  0  -0.014305  -0.038512  0  3.973068  0
C  C44  1  0.10410812  0.53618592  0.38239898  1  -0.009356  0  -0.067293  -0.089011  0  3.907177  0
C  C45  1  0.60410910  0.46381511  0.61760256  1  -0.009331  0  -0.067246  -0.089029  0  3.907349  0
C  C46  1  0.85411263  0.61760703  0.53618641  1  -0.0092  0  -0.06733  -0.089081  0  3.907116  0
C  C47  1  0.35411445  0.38239726  0.46381120  1  -0.00923  0  -0.067364  -0.089246  0  3.9071  0
C  C48  1  0.03200548  0.50435862  0.32801075  1  -0.032873  0  -0.013796  -0.035533  0  3.961975  0
C  C49  1  0.53200576  0.49564167  0.67198997  1  -0.032826  0  -0.013805  -0.03546  0  3.962088  0
C  C50  1  0.78200745  0.67199477  0.50435211  1  -0.032901  0  -0.013795  -0.035589  0  3.962379  0
C  C51  1  0.28201089  0.32800675  0.49564672  1  -0.032753  0  -0.013784  -0.035526  0  3.962266  0
C  C52  1  0.03691093  0.51367010  0.23352319  1  -0.024257  0  -0.068902  -0.119447  0  3.896191  0
C  C53  1  0.53690779  0.48633082  0.76647613  1  -0.024173  0  -0.068912  -0.119544  0  3.89602  0
C  C54  1  0.78691764  0.76648054  0.51366908  1  -0.024493  0  -0.068929  -0.119473  0  3.896259  0
C  C55  1  0.28692131  0.23352502  0.48633107  1  -0.024464  0  -0.068929  -0.11956  0  3.896486  0
C  C56  1  0.11473125  0.55320144  0.19265780  1  0.005531  0  -0.005273  0.058292  0  4.016762  0
C  C57  1  0.61472953  0.44680017  0.80734297  1  0.005474  0  -0.005296  0.058333  0  4.016673  0
C  C58  1  0.86473419  0.80734192  0.55320340  1  0.005409  0  -0.005254  0.058412  0  4.016663  0
C  C59  1  0.36473784  0.19265822  0.44680092  1  0.00558  0  -0.005291  0.058329  0  4.016758  0
C  C60  1  0.18684908  0.58397293  0.24831286  1  -0.035786  0  -0.068794  -0.117263  0  3.901623  0
C  C61  1  0.68684945  0.41602806  0.75168601  1  -0.035742  0  -0.068779  -0.1173  0  3.901609  0
C  C62  1  0.93685112  0.75168600  0.58397851  1  -0.03584  0  -0.068788  -0.117371  0  3.90161  0
C  C63  1  0.43685521  0.24831215  0.41602594  1  -0.03573  0  -0.068796  -0.117263  0  3.901636  0
C  C64  1  0.26067390  0.60645409  0.40027392  1  1.577151  0  0.241987  0.674364  0  4.134917  0
C  C65  1  0.76067427  0.39354626  0.59972643  1  1.577128  0  0.242004  0.67442  0  4.134927  0
C  C66  1  0.01067130  0.59971859  0.60645278  1  1.576721  0  0.242052  0.67443  0  4.134605  0
C  C67  1  0.51067322  0.40028052  0.39354539  1  1.576466  0  0.24216  0.674754  0  4.134256  0
C  C68  1  0.94980879  0.46131290  0.37201947  1  1.580382  0  0.240211  0.675011  0  4.134121  0
C  C69  1  0.44980864  0.53868649  0.62797810  1  1.580324  0  0.24024  0.675001  0  4.134159  0
C  C70  1  0.69981071  0.62798572  0.46130234  1  1.580631  0  0.24028  0.675124  0  4.134771  0
C  C71  1  0.19980790  0.37201923  0.53869032  1  1.580759  0  0.240258  0.675163  0  4.134521  0
C  C72  1  0.12486509  0.56085121  0.09320335  1  -0.027841  0  0.001229  0.083123  0  3.996796  0
C  C73  1  0.62486335  0.43914896  0.90679463  1  -0.028099  0  0.001214  0.08307  0  3.996752  0
C  C74  1  0.87486858  0.90679589  0.56085315  1  -0.02768  0  0.001214  0.083057  0  3.996794  0
C  C75  1  0.37486835  0.09320211  0.43915109  1  -0.027884  0  0.001224  0.0831  0  3.996563  0
C  C76  1  0.16415493  0.63937804  0.05496241  1  -0.054905  0  -0.088543  -0.137221  0  3.98822  0
C  C77  1  0.66415704  0.36062111  0.94503596  1  -0.055124  0  -0.08853  -0.137252  0  3.988128  0
C  C78  1  0.91415192  0.94503327  0.63938173  1  -0.05511  0  -0.088636  -0.137318  0  3.988224  0
C  C79  1  0.41415333  0.05496304  0.36062629  1  -0.054508  0  -0.088545  -0.137268  0  3.988138  0
C  C80  1  0.18199339  0.64441310  0.96252776  1  0.015093  0  -0.079441  -0.080215  0  3.978196  0
C  C81  1  0.68199780  0.35558793  0.03747115  1  0.015111  0  -0.07937  -0.080166  0  3.978247  0
C  C82  1  0.93198901  0.03746621  0.64442141  1  0.01512  0  -0.079344  -0.08026  0  3.978031  0
C  C83  1  0.43199064  0.96252792  0.35558783  1  0.014698  0  -0.079439  -0.080226  0  3.978142  0
C  C84  1  0.16143759  0.57065423  0.90586858  1  -0.006022  0  -0.019834  -0.035813  0  3.977096  0
C  C85  1  0.66144020  0.42934697  0.09412981  1  -0.006195  0  -0.019892  -0.035941  0  3.977302  0
C  C86  1  0.91143407  0.09412847  0.57065745  1  -0.006115  0  -0.019896  -0.03585  0  3.976955  0
C  C87  1  0.41143425  0.90586787  0.42934991  1  -0.00595  0  -0.019882  -0.035904  0  3.977236  0
C  C88  1  0.11939475  0.49333657  0.94291326  1  -0.037793  0  -0.079861  -0.079096  0  3.97336  0
C  C89  1  0.61939696  0.50666636  0.05708544  1  -0.037786  0  -0.079884  -0.079075  0  3.97362  0
C  C90  1  0.86939357  0.05708531  0.49334142  1  -0.037692  0  -0.079868  -0.079133  0  3.973656  0
C  C91  1  0.36939489  0.94291207  0.50666761  1  -0.038044  0  -0.079908  -0.079114  0  3.973801  0
C  C92  1  0.10080000  0.48875409  0.03543883  1  -0.082067  0  -0.088578  -0.135386  0  3.98023  0
C  C93  1  0.60079854  0.51124628  0.96456069  1  -0.081481  0  -0.088581  -0.135313  0  3.980264  0
C  C94  1  0.85080158  0.96456553  0.48875772  1  -0.081986  0  -0.088559  -0.135278  0  3.980356  0
C  C95  1  0.35080199  0.03543540  0.51124941  1  -0.081996  0  -0.088543  -0.135297  0  3.980194  0
C  C96  1  0.18743124  0.57489021  0.80864579  1  1.512923  0  0.198607  0.590149  0  4.193663  0
C  C97  1  0.68743313  0.42511281  0.19135307  1  1.513007  0  0.198688  0.590289  0  4.193526  0
C  C98  1  0.93742898  0.19135070  0.57489481  1  1.513948  0  0.198772  0.590323  0  4.193478  0
C  C99  1  0.43743214  0.80864405  0.42510896  1  1.513161  0  0.198643  0.590213  0  4.19362  0
O  O100  1  0.33823533  0.61940317  0.36160785  1  -1.19102  0  -0.415954  -0.679489  0  2.262326  0
O  O101  1  0.83823690  0.38059380  0.63838988  1  -1.191026  0  -0.415973  -0.679556  0  2.262383  0
O  O102  1  0.08824416  0.63839392  0.61939257  1  -1.190541  0  -0.416127  -0.679714  0  2.261947  0
O  O103  1  0.58824998  0.36160317  0.38060297  1  -1.19034  0  -0.416189  -0.679866  0  2.261584  0
O  O104  1  0.24777185  0.61606227  0.48498300  1  -1.208288  0  -0.429736  -0.700124  0  2.372898  0
O  O105  1  0.74777366  0.38394362  0.51501406  1  -1.208291  0  -0.429771  -0.700153  0  2.372891  0
O  O106  1  0.99778141  0.51501695  0.61606451  1  -1.208312  0  -0.429705  -0.700073  0  2.373173  0
O  O107  1  0.49778294  0.48497932  0.38393406  1  -1.208306  0  -0.42972  -0.700168  0  2.373335  0
O  O108  1  0.87410277  0.45954799  0.32813478  1  -1.197753  0  -0.414904  -0.685364  0  2.260238  0
O  O109  1  0.37409949  0.54045341  0.67186065  1  -1.197731  0  -0.414898  -0.68536  0  2.260171  0
O  O110  1  0.62410915  0.67185463  0.45952931  1  -1.198007  0  -0.414896  -0.685324  0  2.261009  0
O  O111  1  0.12410810  0.32814486  0.54046054  1  -1.197991  0  -0.414894  -0.685364  0  2.260777  0
O  O112  1  0.95908775  0.42922376  0.45164584  1  -1.217638  0  -0.427517  -0.723491  0  2.404497  0
O  O113  1  0.45909138  0.57077420  0.54835234  1  -1.217627  0  -0.427554  -0.723513  0  2.404509  0
O  O114  1  0.70910828  0.54835520  0.42920609  1  -1.217337  0  -0.427579  -0.723599  0  2.404255  0
O  O115  1  0.20910036  0.45164560  0.57077905  1  -1.217495  0  -0.427565  -0.723553  0  2.404382  0
O  O116  1  0.22588814  0.64587374  0.77638009  1  -1.183824  0  -0.398708  -0.640935  0  2.168761  0
O  O117  1  0.72589042  0.35412826  0.22361781  1  -1.183829  0  -0.398732  -0.640996  0  2.16874  0
O  O118  1  0.97588358  0.22361636  0.64587879  1  -1.183924  0  -0.398697  -0.640924  0  2.168765  0
O  O119  1  0.47589103  0.77638145  0.35412876  1  -1.184022  0  -0.398691  -0.640907  0  2.168907  0
O  O120  1  0.17311075  0.50658942  0.75546947  1  -1.191478  0  -0.383205  -0.65546  0  2.262984  0
O  O121  1  0.67311162  0.49341304  0.24453018  1  -1.191531  0  -0.383211  -0.655428  0  2.262995  0
O  O122  1  0.92311215  0.24452591  0.50658968  1  -1.192354  0  -0.383342  -0.655669  0  2.262941  0
O  O123  1  0.42311111  0.75546761  0.49341284  1  -1.191521  0  -0.383213  -0.655509  0  2.262937  0
O  O124  1  0.55038404  0.62462692  0.27053597  1  -1.282338  0  -0.637909  -0.852044  0  2.024134  0
O  O125  1  0.05038179  0.37537456  0.72945986  1  -1.282374  0  -0.637931  -0.852111  0  2.024084  0
O  O126  1  0.30037899  0.72945833  0.62462468  1  -1.28241  0  -0.637915  -0.852256  0  2.023934  0
O  O127  1  0.80039050  0.27054575  0.37537401  1  -1.282296  0  -0.637878  -0.852079  0  2.024099  0
