# generated using pymatgen
data_CuH9C4IN
_symmetry_space_group_name_H-M   'P 1'
_cell_length_a   7.37634498
_cell_length_b   7.79746199
_cell_length_c   12.55087936
_cell_angle_alpha   89.99890205
_cell_angle_beta   90.00346687
_cell_angle_gamma   103.12088407
_symmetry_Int_Tables_number   1
_chemical_formula_structural   CuH9C4IN
_chemical_formula_sum   'Cu4 H36 C16 I4 N4'
_cell_volume   703.03996492
_cell_formula_units_Z   4
loop_
 _symmetry_equiv_pos_site_id
 _symmetry_equiv_pos_as_xyz
  1  'x, y, z'
loop_
 _atom_site_type_symbol
 _atom_site_label
 _atom_site_symmetry_multiplicity
 _atom_site_fract_x
 _atom_site_fract_y
 _atom_site_fract_z
 _atom_site_occupancy
 _atom_site_hle17_bader_spin_density
 _atom_site_hle17_ddec_charge
 _atom_site_hle17_ddec_spin_density
 _atom_site_hle17_ddec_sum_bond_order
 _atom_site_hle17_magmom
 _atom_site_hse06_10hf_bader_spin_density
 _atom_site_hse06_10hf_ddec_charge
 _atom_site_hse06_10hf_ddec_spin_density
 _atom_site_hse06_10hf_ddec_sum_bond_order
 _atom_site_hse06_10hf_magmom
 _atom_site_hse06_bader_spin_density
 _atom_site_hse06_ddec_charge
 _atom_site_hse06_ddec_spin_density
 _atom_site_hse06_ddec_sum_bond_order
 _atom_site_hse06_magmom
 _atom_site_pbe_bader_spin_density
 _atom_site_pbe_cm5_charge
 _atom_site_pbe_ddec_charge
 _atom_site_pbe_ddec_spin_density
 _atom_site_pbe_ddec_sum_bond_order
 _atom_site_pbe_magmom
Cu  Cu0  1  0.46628337  0.84665332  0.51993761  1  0  0.265486  0  2.002009  0  0  0.175905  0  2.46675  0  0  0.197651  0  2.406007  0  0  0.264455  0.161937  0  2.50796  0
Cu  Cu1  1  0.53371521  0.65334898  0.01992001  1  0  0.265419  0  2.001973  0  0  0.175872  0  2.466718  0  0  0.197598  0  2.405958  0  0  0.264414  0.161893  0  2.507924  0
Cu  Cu2  1  0.53371241  0.15332987  0.48007774  1  0  0.265472  0  2.002029  0  0  0.175906  0  2.466777  0  0  0.197669  0  2.406049  0  0  0.264396  0.161932  0  2.507939  0
Cu  Cu3  1  0.46628902  0.34667509  0.98007702  1  0  0.265359  0  2.002308  0  0  0.17581  0  2.467087  0  0  0.197544  0  2.40634  0  0  0.264397  0.161838  0  2.508303  0
H  H4  1  0.23099624  0.54472868  0.40144903  1  0  0.075528  0  0.938514  0  0  0.09127  0  1.004288  0  0  0.091623  0  1.004714  0  0  0.099357  0.090889  0  1.004234  0
H  H5  1  0.76900760  0.95527984  0.90144597  1  0  0.075535  0  0.93848  0  0  0.091254  0  1.004269  0  0  0.09161  0  1.004705  0  0  0.099396  0.090871  0  1.004223  0
H  H6  1  0.76902328  0.45526835  0.59855278  1  0  0.075603  0  0.93859  0  0  0.091285  0  1.00433  0  0  0.091644  0  1.004748  0  0  0.099398  0.090898  0  1.004282  0
H  H7  1  0.23100592  0.04474250  0.09855266  1  0  0.075509  0  0.938404  0  0  0.091237  0  1.004181  0  0  0.091591  0  1.004603  0  0  0.099356  0.090854  0  1.004138  0
H  H8  1  0.25402216  0.34671023  0.46726187  1  0  0.056582  0  0.953721  0  0  0.06991  0  1.027955  0  0  0.071047  0  1.026262  0  0  0.087285  0.068915  0  1.029404  0
H  H9  1  0.74597764  0.15330133  0.96727158  1  0  0.05654  0  0.953549  0  0  0.069815  0  1.02781  0  0  0.07093  0  1.026152  0  0  0.087284  0.06885  0  1.02924  0
H  H10  1  0.74597749  0.65328107  0.53272878  1  0  0.056586  0  0.953699  0  0  0.069817  0  1.027961  0  0  0.070934  0  1.026285  0  0  0.087255  0.068846  0  1.029398  0
H  H11  1  0.25402714  0.84672667  0.03273183  1  0  0.056556  0  0.953755  0  0  0.069861  0  1.027961  0  0  0.070968  0  1.026308  0  0  0.087259  0.068906  0  1.029376  0
H  H12  1  0.43451012  0.37338555  0.63557212  1  0  0.056263  0  0.944677  0  0  0.073845  0  1.01505  0  0  0.074349  0  1.013693  0  0  0.094898  0.073289  0  1.016296  0
H  H13  1  0.56552242  0.12657561  0.13557833  1  0  0.056266  0  0.944844  0  0  0.073866  0  1.015141  0  0  0.074345  0  1.013777  0  0  0.094922  0.073311  0  1.0164  0
H  H14  1  0.56550114  0.62657189  0.36442252  1  0  0.056206  0  0.945017  0  0  0.073852  0  1.015239  0  0  0.07435  0  1.013877  0  0  0.094932  0.073287  0  1.016494  0
H  H15  1  0.43448054  0.87341988  0.86441710  1  0  0.056221  0  0.944761  0  0  0.073829  0  1.015041  0  0  0.07433  0  1.01369  0  0  0.094862  0.073278  0  1.0163  0
H  H16  1  0.53565749  0.58749093  0.68651354  1  0  0.074376  0  0.955138  0  0  0.09014  0  1.020435  0  0  0.090109  0  1.02159  0  0  0.095945  0.090044  0  1.019768  0
H  H17  1  0.46438608  0.91249758  0.18650241  1  0  0.074265  0  0.955482  0  0  0.090059  0  1.020736  0  0  0.090012  0  1.021876  0  0  0.09594  0.089968  0  1.020068  0
H  H18  1  0.46435090  0.41249471  0.31349624  1  0  0.074328  0  0.955357  0  0  0.090043  0  1.02067  0  0  0.090005  0  1.021823  0  0  0.09593  0.089946  0  1.019996  0
H  H19  1  0.53563359  0.08753956  0.81349143  1  0  0.074326  0  0.955131  0  0  0.090086  0  1.020402  0  0  0.090048  0  1.021568  0  0  0.09592  0.089996  0  1.019737  0
H  H20  1  0.12521489  0.42986394  0.62517060  1  0  0.050674  0  0.930931  0  0  0.069222  0  0.994439  0  0  0.069176  0  0.995136  0  0  0.093668  0.069125  0  0.994156  0
H  H21  1  0.87478955  0.07010779  0.12520920  1  0  0.050607  0  0.930908  0  0  0.069146  0  0.994411  0  0  0.0691  0  0.9951  0  0  0.093656  0.069059  0  0.994138  0
H  H22  1  0.87479241  0.57009443  0.37481130  1  0  0.050534  0  0.931042  0  0  0.069181  0  0.994415  0  0  0.069141  0  0.995097  0  0  0.093658  0.069086  0  0.994141  0
H  H23  1  0.12518937  0.92993981  0.87481970  1  0  0.05047  0  0.93124  0  0  0.069131  0  0.994615  0  0  0.069071  0  0.995304  0  0  0.093736  0.069042  0  0.994342  0
H  H24  1  0.09396229  0.61862869  0.55383692  1  0  0.058674  0  0.945414  0  0  0.074261  0  1.012982  0  0  0.074507  0  1.013567  0  0  0.097587  0.073958  0  1.012771  0
H  H25  1  0.90606683  0.88135497  0.05385739  1  0  0.058748  0  0.945159  0  0  0.07439  0  1.012633  0  0  0.074616  0  1.013236  0  0  0.097562  0.07409  0  1.012429  0
H  H26  1  0.90605293  0.38132783  0.44615135  1  0  0.058619  0  0.945413  0  0  0.074296  0  1.012836  0  0  0.074514  0  1.01345  0  0  0.097522  0.073991  0  1.012625  0
H  H27  1  0.09397335  0.11870218  0.94616912  1  0  0.058459  0  0.945325  0  0  0.074213  0  1.012738  0  0  0.07444  0  1.013323  0  0  0.097545  0.073916  0  1.012531  0
H  H28  1  0.28551357  0.62664738  0.77276385  1  0  0.094085  0  0.966916  0  0  0.112789  0  1.037694  0  0  0.114291  0  1.03658  0  0  0.082916  0.11151  0  1.038743  0
H  H29  1  0.71445248  0.87328418  0.27277946  1  0  0.093863  0  0.966601  0  0  0.112568  0  1.037385  0  0  0.114073  0  1.03627  0  0  0.082809  0.111288  0  1.038432  0
H  H30  1  0.71447734  0.37333018  0.22721565  1  0  0.093889  0  0.966729  0  0  0.112583  0  1.037525  0  0  0.114091  0  1.036403  0  0  0.082803  0.111304  0  1.038577  0
H  H31  1  0.28551338  0.12674798  0.72724944  1  0  0.093943  0  0.966842  0  0  0.112648  0  1.037573  0  0  0.114149  0  1.036473  0  0  0.082868  0.111367  0  1.038619  0
H  H32  1  0.06798280  0.67563135  0.74297584  1  0  0.110626  0  0.967872  0  0  0.13406  0  1.025506  0  0  0.135337  0  1.026064  0  0  0.079122  0.133047  0  1.025296  0
H  H33  1  0.93202018  0.82428230  0.24299634  1  0  0.110711  0  0.967503  0  0  0.133943  0  1.025409  0  0  0.135222  0  1.025969  0  0  0.079065  0.132933  0  1.025186  0
H  H34  1  0.93202590  0.32428835  0.25700924  1  0  0.110567  0  0.967454  0  0  0.133918  0  1.025243  0  0  0.135197  0  1.025803  0  0  0.07906  0.132909  0  1.025019  0
H  H35  1  0.06800428  0.17575011  0.75702459  1  0  0.110748  0  0.967612  0  0  0.134035  0  1.02542  0  0  0.135309  0  1.02599  0  0  0.079194  0.133025  0  1.025202  0
H  H36  1  0.27667601  0.81562261  0.69421915  1  0  0.093813  0  0.976148  0  0  0.113712  0  1.046841  0  0  0.115587  0  1.044882  0  0  0.079055  0.112139  0  1.048495  0
H  H37  1  0.72327889  0.68429155  0.19419812  1  0  0.09355  0  0.976064  0  0  0.113403  0  1.046882  0  0  0.115285  0  1.044903  0  0  0.078853  0.111822  0  1.048542  0
H  H38  1  0.72326728  0.18430656  0.30577549  1  0  0.093631  0  0.976028  0  0  0.113532  0  1.04676  0  0  0.115408  0  1.044792  0  0  0.078911  0.111937  0  1.04843  0
H  H39  1  0.27669959  0.31570426  0.80580449  1  0  0.093599  0  0.97622  0  0  0.113532  0  1.046891  0  0  0.115413  0  1.044919  0  0  0.078937  0.111938  0  1.048562  0
C  C40  1  0.32474491  0.48472112  0.44948762  1  0  -0.034602  0  3.64923  0  0  -0.092725  0  3.900636  0  0  -0.089678  0  3.913488  0  0  -0.08228  -0.094491  0  3.891483  0
C  C41  1  0.67527572  0.01525654  0.94952800  1  0  -0.034802  0  3.649958  0  0  -0.092768  0  3.901189  0  0  -0.089745  0  3.914135  0  0  -0.082407  -0.094509  0  3.891958  0
C  C42  1  0.67528952  0.51524623  0.55047355  1  0  -0.035103  0  3.650302  0  0  -0.092765  0  3.901121  0  0  -0.089778  0  3.914176  0  0  -0.082428  -0.094511  0  3.891878  0
C  C43  1  0.32475548  0.98473639  0.05050409  1  0  -0.034647  0  3.649311  0  0  -0.092568  0  3.900526  0  0  -0.089583  0  3.913513  0  0  -0.082245  -0.094326  0  3.891296  0
C  C44  1  0.49919170  0.51089884  0.61315266  1  0  -0.026384  0  3.636724  0  0  -0.081462  0  3.878962  0  0  -0.078664  0  3.893321  0  0  -0.081141  -0.08319  0  3.869087  0
C  C45  1  0.50085444  0.98908895  0.11316759  1  0  -0.026371  0  3.637867  0  0  -0.081396  0  3.880076  0  0  -0.078543  0  3.894394  0  0  -0.081082  -0.083134  0  3.870208  0
C  C46  1  0.50084751  0.48908318  0.38683003  1  0  -0.02633  0  3.637779  0  0  -0.081259  0  3.879915  0  0  -0.078471  0  3.894333  0  0  -0.081047  -0.082961  0  3.869981  0
C  C47  1  0.49918180  0.01093031  0.88684537  1  0  -0.026348  0  3.636466  0  0  -0.08131  0  3.878653  0  0  -0.078446  0  3.892907  0  0  -0.081048  -0.083081  0  3.868832  0
C  C48  1  0.18685142  0.57042959  0.60900800  1  0  0.038394  0  3.645086  0  0  -0.010417  0  3.897184  0  0  -0.006776  0  3.91155  0  0  -0.080381  -0.01282  0  3.887376  0
C  C49  1  0.81310722  0.92954891  0.10899013  1  0  0.038352  0  3.645397  0  0  -0.010338  0  3.897204  0  0  -0.006671  0  3.911554  0  0  -0.080262  -0.012781  0  3.887447  0
C  C50  1  0.81311631  0.42953806  0.39101373  1  0  0.03851  0  3.645386  0  0  -0.010269  0  3.897229  0  0  -0.006597  0  3.911585  0  0  -0.08026  -0.012682  0  3.887417  0
C  C51  1  0.18684602  0.07050020  0.89097822  1  0  0.038753  0  3.645527  0  0  -0.010176  0  3.89757  0  0  -0.006463  0  3.911862  0  0  -0.080398  -0.012621  0  3.887805  0
C  C52  1  0.20686524  0.67783188  0.71075286  1  0  -0.307335  0  3.697809  0  0  -0.383245  0  3.933338  0  0  -0.386103  0  3.943901  0  0  -0.253021  -0.38093  0  3.926214  0
C  C53  1  0.79312823  0.82212300  0.21074336  1  0  -0.307121  0  3.696578  0  0  -0.382893  0  3.93219  0  0  -0.385755  0  3.94274  0  0  -0.25276  -0.380554  0  3.925068  0
C  C54  1  0.79312090  0.32213100  0.28925134  1  0  -0.307088  0  3.696655  0  0  -0.382985  0  3.932227  0  0  -0.385826  0  3.942745  0  0  -0.252767  -0.380643  0  3.925111  0
C  C55  1  0.20686990  0.17793544  0.78925845  1  0  -0.306973  0  3.697728  0  0  -0.38284  0  3.933341  0  0  -0.385682  0  3.943805  0  0  -0.252866  -0.380492  0  3.926235  0
I  I56  1  0.24350439  0.96342799  0.39349137  1  0  -0.413926  0  1.4087  0  0  -0.354289  0  1.79439  0  0  -0.370372  0  1.755044  0  0  -0.204483  -0.343448  0  1.821605  0
I  I57  1  0.75647378  0.53658739  0.89348044  1  0  -0.413883  0  1.408839  0  0  -0.354257  0  1.794528  0  0  -0.370335  0  1.75517  0  0  -0.204427  -0.343402  0  1.821729  0
I  I58  1  0.75649277  0.03657473  0.60652160  1  0  -0.413949  0  1.408822  0  0  -0.354316  0  1.794507  0  0  -0.370407  0  1.755151  0  0  -0.204458  -0.343472  0  1.821713  0
I  I59  1  0.24348389  0.46343497  0.10647914  1  0  -0.413862  0  1.408714  0  0  -0.35423  0  1.794362  0  0  -0.370297  0  1.754998  0  0  -0.204459  -0.343388  0  1.821588  0
N  N60  1  0.36493355  0.58525967  0.55037480  1  0  -0.192134  0  3.290776  0  0  -0.083027  0  3.53237  0  0  -0.102107  0  3.551621  0  0  -0.372933  -0.070058  0  3.518891  0
N  N61  1  0.63505107  0.91475876  0.05038931  1  0  -0.191634  0  3.292203  0  0  -0.082739  0  3.533915  0  0  -0.101824  0  3.55315  0  0  -0.373027  -0.069757  0  3.520432  0
N  N62  1  0.63505045  0.41473665  0.44961028  1  0  -0.191622  0  3.291965  0  0  -0.082749  0  3.533549  0  0  -0.101853  0  3.552865  0  0  -0.372971  -0.069773  0  3.520004  0
N  N63  1  0.36492701  0.08529264  0.94962684  1  0  -0.192131  0  3.290305  0  0  -0.083199  0  3.532035  0  0  -0.102308  0  3.551278  0  0  -0.37298  -0.070208  0  3.518575  0
