# generated using pymatgen
data_Cd3H16C28(N5O4)2
_symmetry_space_group_name_H-M   'P 1'
_cell_length_a   9.66667708
_cell_length_b   10.30185800
_cell_length_c   15.24857100
_cell_angle_alpha   90.00004162
_cell_angle_beta   92.75108821
_cell_angle_gamma   90.00006968
_symmetry_Int_Tables_number   1
_chemical_formula_structural   Cd3H16C28(N5O4)2
_chemical_formula_sum   'Cd6 H32 C56 N20 O16'
_cell_volume   1516.77475784
_cell_formula_units_Z   2
loop_
 _symmetry_equiv_pos_site_id
 _symmetry_equiv_pos_as_xyz
  1  'x, y, z'
loop_
 _atom_site_type_symbol
 _atom_site_label
 _atom_site_symmetry_multiplicity
 _atom_site_fract_x
 _atom_site_fract_y
 _atom_site_fract_z
 _atom_site_occupancy
 _atom_site_hle17_bader_spin_density
 _atom_site_hle17_ddec_charge
 _atom_site_hle17_ddec_spin_density
 _atom_site_hle17_ddec_sum_bond_order
 _atom_site_hle17_magmom
 _atom_site_hse06_10hf_bader_spin_density
 _atom_site_hse06_10hf_ddec_charge
 _atom_site_hse06_10hf_ddec_spin_density
 _atom_site_hse06_10hf_ddec_sum_bond_order
 _atom_site_hse06_10hf_magmom
 _atom_site_hse06_bader_spin_density
 _atom_site_hse06_ddec_charge
 _atom_site_hse06_ddec_spin_density
 _atom_site_hse06_ddec_sum_bond_order
 _atom_site_hse06_magmom
 _atom_site_pbe_bader_spin_density
 _atom_site_pbe_cm5_charge
 _atom_site_pbe_ddec_charge
 _atom_site_pbe_ddec_spin_density
 _atom_site_pbe_ddec_sum_bond_order
 _atom_site_pbe_magmom
Cd  Cd0  1  0.86146759  0.62335554  0.95617297  1  0  1.047921  0  1.798562  0  0  0.842423  0  2.26749  0  0  0.899168  0  2.217114  0  0  0.787961  0.80282  0  2.301334  0
Cd  Cd1  1  0.13853340  0.12335579  0.54382575  1  0  1.047917  0  1.798556  0  0  0.842418  0  2.267476  0  0  0.899159  0  2.217105  0  0  0.787949  0.802817  0  2.301325  0
Cd  Cd2  1  0.13853270  0.37664478  0.04382685  1  0  1.047939  0  1.798553  0  0  0.842439  0  2.267479  0  0  0.899183  0  2.217102  0  0  0.787958  0.802837  0  2.301325  0
Cd  Cd3  1  0.86146690  0.87664454  0.45617407  1  0  1.047943  0  1.798543  0  0  0.842446  0  2.267477  0  0  0.899187  0  2.217103  0  0  0.787954  0.802842  0  2.301325  0
Cd  Cd4  1  0.49999945  0.49999994  0.99999981  1  0  1.18656  0  1.70264  0  0  0.987545  0  2.179951  0  0  1.043693  0  2.122217  0  0  0.801392  0.948831  0  2.218716  0
Cd  Cd5  1  0.49999929  0.00000055  0.50000009  1  0  1.186526  0  1.70266  0  0  0.987498  0  2.179975  0  0  1.043652  0  2.122239  0  0  0.801379  0.948785  0  2.218736  0
H  H6  1  0.20507068  0.15150112  0.34268235  1  0  0.088474  0  0.930979  0  0  0.097951  0  0.990281  0  0  0.099845  0  0.989247  0  0  0.123065  0.096384  0  0.991312  0
H  H7  1  0.79492760  0.65149952  0.15731711  1  0  0.088423  0  0.93098  0  0  0.097901  0  0.9903  0  0  0.099792  0  0.989263  0  0  0.123044  0.096335  0  0.991331  0
H  H8  1  0.79493066  0.84850017  0.65731751  1  0  0.088439  0  0.930984  0  0  0.097921  0  0.990291  0  0  0.099814  0  0.989255  0  0  0.123043  0.096353  0  0.991321  0
H  H9  1  0.20507166  0.34849983  0.84268268  1  0  0.088418  0  0.931  0  0  0.097894  0  0.990318  0  0  0.099785  0  0.989284  0  0  0.12304  0.096326  0  0.991348  0
H  H10  1  0.10367286  0.22435678  0.19967134  1  0  0.125841  0  0.979366  0  0  0.13524  0  1.040141  0  0  0.139049  0  1.03767  0  0  0.110982  0.132452  0  1.042192  0
H  H11  1  0.89632550  0.72435544  0.30032881  1  0  0.12583  0  0.979372  0  0  0.13523  0  1.040145  0  0  0.13904  0  1.037672  0  0  0.110969  0.132442  0  1.042197  0
H  H12  1  0.89632639  0.77564354  0.80032910  1  0  0.125832  0  0.979378  0  0  0.135233  0  1.040143  0  0  0.13904  0  1.037676  0  0  0.110973  0.132444  0  1.042194  0
H  H13  1  0.10367375  0.27564488  0.69967164  1  0  0.125853  0  0.979394  0  0  0.13522  0  1.040194  0  0  0.139028  0  1.037727  0  0  0.110959  0.132433  0  1.042245  0
H  H14  1  0.75312050  0.37079391  0.33668326  1  0  0.126913  0  0.925203  0  0  0.136892  0  0.982274  0  0  0.140481  0  0.980689  0  0  0.119929  0.134246  0  0.983676  0
H  H15  1  0.24687807  0.87079460  0.16331697  1  0  0.126929  0  0.925171  0  0  0.136904  0  0.982245  0  0  0.140493  0  0.980659  0  0  0.119937  0.134258  0  0.983647  0
H  H16  1  0.24687979  0.62920641  0.66331787  1  0  0.126915  0  0.92519  0  0  0.136896  0  0.982257  0  0  0.140485  0  0.980673  0  0  0.119921  0.134248  0  0.983661  0
H  H17  1  0.75312119  0.12920669  0.83668281  1  0  0.126915  0  0.925187  0  0  0.13689  0  0.982262  0  0  0.140479  0  0.980678  0  0  0.119933  0.134244  0  0.983664  0
H  H18  1  0.86676606  0.28240805  0.47458689  1  0  0.069852  0  0.979128  0  0  0.074844  0  1.050484  0  0  0.076482  0  1.049886  0  0  0.11265  0.073496  0  1.051286  0
H  H19  1  0.13323136  0.78240944  0.02541260  1  0  0.069832  0  0.979091  0  0  0.074831  0  1.050442  0  0  0.076471  0  1.04984  0  0  0.112647  0.073482  0  1.051248  0
H  H20  1  0.13323216  0.71759033  0.52541418  1  0  0.06985  0  0.979122  0  0  0.074849  0  1.050467  0  0  0.076486  0  1.04987  0  0  0.112657  0.0735  0  1.051272  0
H  H21  1  0.86676791  0.21759088  0.97458653  1  0  0.069845  0  0.979104  0  0  0.074838  0  1.05046  0  0  0.076478  0  1.049854  0  0  0.112645  0.073489  0  1.051266  0
H  H22  1  0.56072690  0.64119353  0.26566875  1  0  0.111778  0  0.935219  0  0  0.120603  0  0.997466  0  0  0.124741  0  0.993738  0  0  0.107741  0.117498  0  1.000412  0
H  H23  1  0.43927136  0.14119335  0.23433069  1  0  0.111778  0  0.935222  0  0  0.120562  0  0.997505  0  0  0.124699  0  0.99378  0  0  0.107731  0.117458  0  1.000448  0
H  H24  1  0.43927235  0.35880679  0.73433169  1  0  0.111823  0  0.935221  0  0  0.120581  0  0.997522  0  0  0.124717  0  0.993799  0  0  0.107745  0.117478  0  1.000463  0
H  H25  1  0.56072997  0.85880600  0.76566916  1  0  0.111786  0  0.935191  0  0  0.120587  0  0.997466  0  0  0.124724  0  0.993739  0  0  0.107727  0.11748  0  1.000411  0
H  H26  1  0.16469667  0.47940602  0.31891243  1  0  0.093412  0  0.970393  0  0  0.101558  0  1.035648  0  0  0.104491  0  1.034557  0  0  0.097205  0.099345  0  1.036677  0
H  H27  1  0.83530204  0.97940642  0.18108852  1  0  0.093421  0  0.970371  0  0  0.101548  0  1.035638  0  0  0.104481  0  1.034546  0  0  0.097218  0.099335  0  1.036666  0
H  H28  1  0.83530363  0.52059333  0.68108739  1  0  0.093419  0  0.970379  0  0  0.101562  0  1.035627  0  0  0.104494  0  1.034537  0  0  0.097213  0.099347  0  1.036655  0
H  H29  1  0.16469929  0.02059293  0.81891134  1  0  0.093428  0  0.970361  0  0  0.101558  0  1.035625  0  0  0.10449  0  1.034534  0  0  0.097227  0.099345  0  1.036651  0
H  H30  1  0.20702748  0.52561527  0.47875900  1  0  0.089475  0  0.953126  0  0  0.101599  0  1.009669  0  0  0.10463  0  1.008825  0  0  0.098084  0.099391  0  1.010745  0
H  H31  1  0.79297476  0.02561526  0.02124184  1  0  0.089456  0  0.953147  0  0  0.101582  0  1.009688  0  0  0.104613  0  1.008843  0  0  0.098058  0.099373  0  1.010765  0
H  H32  1  0.79297281  0.47438408  0.52124148  1  0  0.089488  0  0.953144  0  0  0.10164  0  1.009655  0  0  0.104673  0  1.008807  0  0  0.098076  0.099432  0  1.010732  0
H  H33  1  0.20702761  0.97438506  0.97875805  1  0  0.08945  0  0.953195  0  0  0.10159  0  1.009719  0  0  0.104622  0  1.008873  0  0  0.098073  0.099382  0  1.010796  0
H  H34  1  0.42102475  0.64737792  0.52972208  1  0  0.102284  0  0.933557  0  0  0.115923  0  0.989354  0  0  0.118838  0  0.988013  0  0  0.107076  0.113841  0  0.990325  0
H  H35  1  0.57897626  0.14737814  0.97027797  1  0  0.102299  0  0.93353  0  0  0.115932  0  0.989332  0  0  0.118848  0  0.987989  0  0  0.107083  0.113852  0  0.990303  0
H  H36  1  0.57897553  0.35262143  0.47027905  1  0  0.102304  0  0.933546  0  0  0.115939  0  0.989343  0  0  0.118854  0  0.988001  0  0  0.107089  0.11386  0  0.990319  0
H  H37  1  0.42102611  0.85262315  0.02972193  1  0  0.102269  0  0.933595  0  0  0.115908  0  0.989389  0  0  0.118824  0  0.988047  0  0  0.107087  0.113827  0  0.990358  0
C  C38  1  0.10374900  0.19823827  0.33857258  1  0  0.141438  0  3.684917  0  0  0.109481  0  3.940458  0  0  0.116976  0  3.958822  0  0  0.05026  0.104521  0  3.928048  0
C  C39  1  0.89624830  0.69823775  0.16142686  1  0  0.141531  0  3.684813  0  0  0.109566  0  3.940361  0  0  0.117069  0  3.958716  0  0  0.050296  0.104603  0  3.927952  0
C  C40  1  0.89624921  0.80176206  0.66142848  1  0  0.141551  0  3.684857  0  0  0.109578  0  3.940409  0  0  0.117076  0  3.958769  0  0  0.050303  0.104616  0  3.927998  0
C  C41  1  0.10375200  0.30176257  0.83857230  1  0  0.141566  0  3.68487  0  0  0.109597  0  3.940418  0  0  0.117097  0  3.958778  0  0  0.050319  0.104637  0  3.928005  0
C  C42  1  0.04659055  0.24104600  0.25841726  1  0  -0.123676  0  3.650246  0  0  -0.14489  0  3.895447  0  0  -0.150691  0  3.912957  0  0  -0.071014  -0.141265  0  3.883898  0
C  C43  1  0.95340681  0.74104563  0.24158221  1  0  -0.123697  0  3.65037  0  0  -0.144909  0  3.895539  0  0  -0.15071  0  3.913048  0  0  -0.071008  -0.141284  0  3.883989  0
C  C44  1  0.95340767  0.75895432  0.74158249  1  0  -0.123738  0  3.650396  0  0  -0.144929  0  3.895585  0  0  -0.150731  0  3.913096  0  0  -0.071035  -0.141304  0  3.884032  0
C  C45  1  0.04659245  0.25895469  0.75841758  1  0  -0.123704  0  3.650478  0  0  -0.144903  0  3.895626  0  0  -0.150704  0  3.913135  0  0  -0.071007  -0.141278  0  3.884072  0
C  C46  1  0.91818186  0.30452436  0.25635594  1  0  0.068694  0  3.759339  0  0  0.083354  0  3.991607  0  0  0.086683  0  4.01192  0  0  0.024403  0.081348  0  3.977727  0
C  C47  1  0.08181558  0.80452301  0.24364356  1  0  0.06874  0  3.759413  0  0  0.083418  0  3.991601  0  0  0.086747  0  4.011915  0  0  0.024433  0.081411  0  3.977722  0
C  C48  1  0.08181636  0.69547596  0.74364381  1  0  0.068796  0  3.759345  0  0  0.083439  0  3.991609  0  0  0.08677  0  4.011921  0  0  0.02445  0.081432  0  3.977726  0
C  C49  1  0.91818368  0.19547828  0.75635557  1  0  0.068666  0  3.759507  0  0  0.083442  0  3.991609  0  0  0.086771  0  4.011921  0  0  0.024431  0.081435  0  3.977726  0
C  C50  1  0.85237185  0.32094180  0.33554673  1  0  -0.121636  0  3.661602  0  0  -0.141904  0  3.904412  0  0  -0.148273  0  3.923498  0  0  -0.067584  -0.137924  0  3.891764  0
C  C51  1  0.14762562  0.82094140  0.16445278  1  0  -0.1217  0  3.661601  0  0  -0.141975  0  3.904418  0  0  -0.148345  0  3.923503  0  0  -0.067614  -0.137994  0  3.891769  0
C  C52  1  0.14762741  0.67905755  0.66445240  1  0  -0.121739  0  3.661644  0  0  -0.142  0  3.904457  0  0  -0.14837  0  3.923542  0  0  -0.067629  -0.13802  0  3.891807  0
C  C53  1  0.85237364  0.17905892  0.83554701  1  0  -0.121656  0  3.661583  0  0  -0.141952  0  3.904376  0  0  -0.148323  0  3.923464  0  0  -0.067617  -0.137971  0  3.891725  0
C  C54  1  0.91607681  0.27300198  0.41230860  1  0  0.131396  0  3.723095  0  0  0.100385  0  3.976982  0  0  0.107618  0  3.995718  0  0  0.045336  0.095558  0  3.964441  0
C  C55  1  0.08392162  0.77300337  0.08769158  1  0  0.131465  0  3.722982  0  0  0.100446  0  3.97689  0  0  0.107679  0  3.995625  0  0  0.045349  0.095617  0  3.964348  0
C  C56  1  0.08392348  0.72699640  0.58769188  1  0  0.131501  0  3.723034  0  0  0.100485  0  3.97693  0  0  0.10772  0  3.995662  0  0  0.045367  0.095654  0  3.964388  0
C  C57  1  0.91607763  0.22699792  0.91230886  1  0  0.131446  0  3.722965  0  0  0.10043  0  3.976874  0  0  0.107664  0  3.995612  0  0  0.045348  0.0956  0  3.964335  0
C  C58  1  0.85285949  0.35628776  0.17545451  1  0  0.262667  0  3.768026  0  0  0.2386  0  4.042828  0  0  0.247022  0  4.059469  0  0  0.225392  0.232875  0  4.031501  0
C  C59  1  0.14713906  0.85628657  0.32454505  1  0  0.262604  0  3.768018  0  0  0.238598  0  4.042739  0  0  0.247019  0  4.059382  0  0  0.225376  0.232874  0  4.03141  0
C  C60  1  0.14713977  0.64371353  0.82454527  1  0  0.262598  0  3.767961  0  0  0.238554  0  4.042754  0  0  0.246975  0  4.059396  0  0  0.225369  0.23283  0  4.031422  0
C  C61  1  0.85286020  0.14371375  0.67545408  1  0  0.26254  0  3.768082  0  0  0.238416  0  4.042913  0  0  0.246836  0  4.059555  0  0  0.225335  0.232693  0  4.03158  0
C  C62  1  0.50377263  0.65024048  0.40103342  1  0  -0.074875  0  3.779068  0  0  -0.049361  0  4.017854  0  0  -0.059452  0  4.041635  0  0  -0.019667  -0.042806  0  4.001699  0
C  C63  1  0.49622667  0.15024022  0.09896673  1  0  -0.074954  0  3.779182  0  0  -0.049446  0  4.017958  0  0  -0.059542  0  4.041745  0  0  -0.019692  -0.042891  0  4.001806  0
C  C64  1  0.49622766  0.34975984  0.59896706  1  0  -0.07486  0  3.779124  0  0  -0.049352  0  4.01789  0  0  -0.059446  0  4.041676  0  0  -0.019682  -0.042798  0  4.001735  0
C  C65  1  0.50377362  0.84976010  0.90103375  1  0  -0.074974  0  3.779172  0  0  -0.049463  0  4.017956  0  0  -0.059558  0  4.041741  0  0  -0.019704  -0.04291  0  4.001802  0
C  C66  1  0.48240360  0.61816563  0.31227565  1  0  -0.052453  0  3.68159  0  0  -0.090677  0  3.928309  0  0  -0.08669  0  3.945145  0  0  -0.071134  -0.09285  0  3.916897  0
C  C67  1  0.51759670  0.11816451  0.18772386  1  0  -0.052455  0  3.681699  0  0  -0.090621  0  3.928408  0  0  -0.086635  0  3.945245  0  0  -0.07112  -0.092796  0  3.916996  0
C  C68  1  0.51759669  0.38183566  0.68772417  1  0  -0.052564  0  3.681771  0  0  -0.090728  0  3.928466  0  0  -0.08674  0  3.945303  0  0  -0.071166  -0.092901  0  3.917049  0
C  C69  1  0.48240567  0.88183484  0.81227603  1  0  -0.052472  0  3.681549  0  0  -0.090659  0  3.928305  0  0  -0.086669  0  3.945141  0  0  -0.071155  -0.092832  0  3.916887  0
C  C70  1  0.25946487  0.52732074  0.34294382  1  0  -0.055713  0  3.721739  0  0  -0.082704  0  3.969233  0  0  -0.080002  0  3.988342  0  0  -0.084826  -0.084025  0  3.956067  0
C  C71  1  0.74053426  0.02731985  0.15705691  1  0  -0.055678  0  3.721651  0  0  -0.082645  0  3.969138  0  0  -0.079946  0  3.988254  0  0  -0.084833  -0.083965  0  3.955971  0
C  C72  1  0.74053542  0.47267958  0.65705666  1  0  -0.055626  0  3.721701  0  0  -0.082622  0  3.969173  0  0  -0.079922  0  3.988287  0  0  -0.084815  -0.083943  0  3.956004  0
C  C73  1  0.25946811  0.97268047  0.84294298  1  0  -0.055677  0  3.721597  0  0  -0.082633  0  3.969126  0  0  -0.079933  0  3.988242  0  0  -0.084844  -0.083954  0  3.955957  0
C  C74  1  0.28239778  0.55590982  0.43186380  1  0  -0.085055  0  3.77179  0  0  -0.095771  0  4.029378  0  0  -0.10083  0  4.050871  0  0  -0.098395  -0.092492  0  4.014665  0
C  C75  1  0.71760346  0.05590880  0.06813767  1  0  -0.085157  0  3.771822  0  0  -0.095875  0  4.029418  0  0  -0.100938  0  4.050915  0  0  -0.098421  -0.092597  0  4.014706  0
C  C76  1  0.71760355  0.44409050  0.56813605  1  0  -0.085185  0  3.771774  0  0  -0.095926  0  4.029374  0  0  -0.100986  0  4.050868  0  0  -0.098423  -0.092648  0  4.014664  0
C  C77  1  0.28239787  0.94409249  0.93186284  1  0  -0.085122  0  3.771808  0  0  -0.09585  0  4.029402  0  0  -0.100913  0  4.0509  0  0  -0.098403  -0.092573  0  4.014689  0
C  C78  1  0.40263027  0.62101369  0.46086929  1  0  -0.06003  0  3.724577  0  0  -0.091685  0  3.982517  0  0  -0.089822  0  4.002858  0  0  -0.082562  -0.092613  0  3.9685  0
C  C79  1  0.59736899  0.12101445  0.03913084  1  0  -0.059916  0  3.724433  0  0  -0.09156  0  3.982358  0  0  -0.089695  0  4.002704  0  0  -0.082516  -0.092489  0  3.968342  0
C  C80  1  0.59736899  0.37898566  0.53913050  1  0  -0.059941  0  3.724467  0  0  -0.091594  0  3.982416  0  0  -0.089732  0  4.002759  0  0  -0.082524  -0.09253  0  3.968406  0
C  C81  1  0.40263234  0.87898684  0.96086967  1  0  -0.059868  0  3.724446  0  0  -0.09152  0  3.982382  0  0  -0.089656  0  4.002723  0  0  -0.082518  -0.092448  0  3.968366  0
C  C82  1  0.63382939  0.71733527  0.43082329  1  0  0.664455  0  3.873461  0  0  0.612576  0  4.159324  0  0  0.647738  0  4.153327  0  0  0.204066  0.588772  0  4.162371  0
C  C83  1  0.36617105  0.21733483  0.06917562  1  0  0.664416  0  3.873472  0  0  0.612536  0  4.159345  0  0  0.647701  0  4.153345  0  0  0.204094  0.588731  0  4.162394  0
C  C84  1  0.36617091  0.28266505  0.56917653  1  0  0.664349  0  3.873592  0  0  0.612467  0  4.159458  0  0  0.64763  0  4.153461  0  0  0.204051  0.588663  0  4.162503  0
C  C85  1  0.63382925  0.78266452  0.93082355  1  0  0.66438  0  3.873527  0  0  0.612523  0  4.159359  0  0  0.647686  0  4.153359  0  0  0.20407  0.588719  0  4.162407  0
C  C86  1  0.33154764  0.53008039  0.18629220  1  0  0.669543  0  3.901385  0  0  0.617049  0  4.193838  0  0  0.653039  0  4.186837  0  0  0.207792  0.592867  0  4.197462  0
C  C87  1  0.66845045  0.03008347  0.31370916  1  0  0.669535  0  3.901532  0  0  0.61707  0  4.193942  0  0  0.653061  0  4.186939  0  0  0.207824  0.592886  0  4.197569  0
C  C88  1  0.66845264  0.46991798  0.81370893  1  0  0.669604  0  3.901344  0  0  0.617093  0  4.193792  0  0  0.653085  0  4.18679  0  0  0.20783  0.592911  0  4.197416  0
C  C89  1  0.33155088  0.96991491  0.68629136  1  0  0.66947  0  3.901637  0  0  0.617009  0  4.194073  0  0  0.653002  0  4.187073  0  0  0.207804  0.592825  0  4.197693  0
C  C90  1  0.35855869  0.55979840  0.28236389  1  0  -0.069568  0  3.742445  0  0  -0.041575  0  3.973289  0  0  -0.051739  0  3.99679  0  0  -0.0192  -0.035367  0  3.957472  0
C  C91  1  0.64143946  0.05979940  0.21763617  1  0  -0.069533  0  3.742405  0  0  -0.04156  0  3.973235  0  0  -0.051721  0  3.996732  0  0  -0.019179  -0.035351  0  3.957417  0
C  C92  1  0.64144057  0.44020192  0.71763590  1  0  -0.069603  0  3.742583  0  0  -0.041563  0  3.973341  0  0  -0.051727  0  3.996839  0  0  -0.019195  -0.035356  0  3.957519  0
C  C93  1  0.35856084  0.94020189  0.78236299  1  0  -0.069548  0  3.742313  0  0  -0.041627  0  3.973254  0  0  -0.051794  0  3.996757  0  0  -0.019184  -0.035417  0  3.95743  0
N  N94  1  0.91869720  0.38702396  0.10203974  1  0  -0.310886  0  3.145749  0  0  -0.254091  0  3.429187  0  0  -0.270029  0  3.445805  0  0  -0.227102  -0.243315  0  3.417747  0
N  N95  1  0.08130140  0.88702374  0.39795984  1  0  -0.310824  0  3.145683  0  0  -0.254058  0  3.429118  0  0  -0.269996  0  3.445739  0  0  -0.227098  -0.243284  0  3.417679  0
N  N96  1  0.08130309  0.61297636  0.89796074  1  0  -0.310809  0  3.145654  0  0  -0.254031  0  3.429096  0  0  -0.269969  0  3.445717  0  0  -0.22708  -0.243256  0  3.417656  0
N  N97  1  0.91869787  0.11297658  0.60203929  1  0  -0.310781  0  3.145706  0  0  -0.253988  0  3.429169  0  0  -0.269923  0  3.445786  0  0  -0.227108  -0.243213  0  3.41773  0
N  N98  1  0.82136957  0.43642856  0.04654447  1  0  -0.144881  0  3.185009  0  0  -0.106077  0  3.477365  0  0  -0.113536  0  3.495256  0  0  -0.121562  -0.100723  0  3.464915  0
N  N99  1  0.17863013  0.93642851  0.45345452  1  0  -0.144948  0  3.184988  0  0  -0.106152  0  3.477365  0  0  -0.113609  0  3.495258  0  0  -0.121582  -0.100796  0  3.464916  0
N  N100  1  0.17863073  0.56357176  0.95345535  1  0  -0.144928  0  3.185094  0  0  -0.10613  0  3.477462  0  0  -0.113586  0  3.495353  0  0  -0.121606  -0.100778  0  3.465013  0
N  N101  1  0.82137016  0.06357181  0.54654530  1  0  -0.145015  0  3.18491  0  0  -0.10622  0  3.477278  0  0  -0.113676  0  3.495167  0  0  -0.121618  -0.100866  0  3.46483  0
N  N102  1  0.70113983  0.43449003  0.08503378  1  0  -0.099843  0  3.174307  0  0  -0.052691  0  3.474179  0  0  -0.059538  0  3.488923  0  0  -0.096315  -0.048012  0  3.464279  0
N  N103  1  0.29885987  0.93449007  0.41496521  1  0  -0.099774  0  3.174294  0  0  -0.052612  0  3.474151  0  0  -0.059461  0  3.488898  0  0  -0.096267  -0.047934  0  3.464251  0
N  N104  1  0.29886046  0.56550932  0.91496670  1  0  -0.099781  0  3.174384  0  0  -0.0526  0  3.47422  0  0  -0.05945  0  3.488967  0  0  -0.096259  -0.047923  0  3.46432  0
N  N105  1  0.70113939  0.06551122  0.58503458  1  0  -0.09971  0  3.174093  0  0  -0.052538  0  3.473922  0  0  -0.059387  0  3.488667  0  0  -0.096219  -0.047859  0  3.464021  0
N  N106  1  0.71692382  0.38573382  0.16545911  1  0  -0.236128  0  2.889702  0  0  -0.228256  0  3.169831  0  0  -0.235554  0  3.18461  0  0  -0.191185  -0.223316  0  3.159965  0
N  N107  1  0.28307581  0.88573280  0.33453985  1  0  -0.236129  0  2.889752  0  0  -0.228286  0  3.169862  0  0  -0.235585  0  3.184644  0  0  -0.191194  -0.223347  0  3.159997  0
N  N108  1  0.28307544  0.61426747  0.83454068  1  0  -0.236163  0  2.889694  0  0  -0.228307  0  3.169808  0  0  -0.235606  0  3.184589  0  0  -0.191201  -0.223368  0  3.159941  0
N  N109  1  0.71692449  0.11426947  0.66545866  1  0  -0.23609  0  2.889738  0  0  -0.228214  0  3.169864  0  0  -0.235512  0  3.184644  0  0  -0.191176  -0.223275  0  3.159995  0
N  N110  1  0.03967998  0.21272109  0.41443945  1  0  -0.342556  0  3.271547  0  0  -0.265034  0  3.541996  0  0  -0.285823  0  3.561401  0  0  -0.332015  -0.250876  0  3.52843  0
N  N111  1  0.96031735  0.71272154  0.08556001  1  0  -0.34261  0  3.271437  0  0  -0.265102  0  3.541917  0  0  -0.28589  0  3.561314  0  0  -0.332049  -0.250943  0  3.528349  0
N  N112  1  0.96031928  0.78727826  0.58556034  1  0  -0.342646  0  3.271449  0  0  -0.265132  0  3.541934  0  0  -0.285921  0  3.561334  0  0  -0.332033  -0.250974  0  3.528367  0
N  N113  1  0.03968192  0.28727878  0.91443912  1  0  -0.342624  0  3.271518  0  0  -0.265112  0  3.541993  0  0  -0.285903  0  3.561395  0  0  -0.332037  -0.250954  0  3.528425  0
O  O114  1  0.62870282  0.80742390  0.48955592  1  0  -0.6837  0  2.045354  0  0  -0.603876  0  2.308955  0  0  -0.635777  0  2.2957  0  0  -0.34021  -0.581139  0  2.316573  0
O  O115  1  0.37129774  0.30742340  0.01044304  1  0  -0.683665  0  2.045371  0  0  -0.603853  0  2.308996  0  0  -0.635746  0  2.295722  0  0  -0.340249  -0.581121  0  2.316629  0
O  O116  1  0.37129747  0.19257739  0.51044390  1  0  -0.683687  0  2.045454  0  0  -0.603863  0  2.309064  0  0  -0.635761  0  2.295806  0  0  -0.340214  -0.581133  0  2.3167  0
O  O117  1  0.62870153  0.69257595  0.98955609  1  0  -0.683681  0  2.045399  0  0  -0.603863  0  2.308991  0  0  -0.635771  0  2.295751  0  0  -0.340214  -0.581131  0  2.31662  0
O  O118  1  0.74700238  0.68632634  0.39747153  1  0  -0.618183  0  1.934545  0  0  -0.556723  0  2.164331  0  0  -0.584263  0  2.154892  0  0  -0.325198  -0.537906  0  2.170675  0
O  O119  1  0.25299696  0.18632581  0.10252929  1  0  -0.618169  0  1.934507  0  0  -0.5567  0  2.164282  0  0  -0.584242  0  2.154842  0  0  -0.325196  -0.537883  0  2.170629  0
O  O120  1  0.25299687  0.31367301  0.60252957  1  0  -0.618128  0  1.934551  0  0  -0.556663  0  2.164337  0  0  -0.584204  0  2.1549  0  0  -0.325197  -0.537845  0  2.170683  0
O  O121  1  0.74700230  0.81367257  0.89747050  1  0  -0.618127  0  1.93456  0  0  -0.556677  0  2.164345  0  0  -0.584217  0  2.154907  0  0  -0.3252  -0.537861  0  2.17069  0
O  O122  1  0.42170019  0.56508090  0.13322515  1  0  -0.656012  0  2.015944  0  0  -0.592953  0  2.275478  0  0  -0.621738  0  2.262196  0  0  -0.335237  -0.572785  0  2.283662  0
O  O123  1  0.57829797  0.06508684  0.36677491  1  0  -0.655989  0  2.016045  0  0  -0.592935  0  2.275551  0  0  -0.621723  0  2.262274  0  0  -0.335227  -0.572768  0  2.283736  0
O  O124  1  0.57830011  0.43491748  0.86677467  1  0  -0.65603  0  2.015946  0  0  -0.592981  0  2.275498  0  0  -0.621757  0  2.262194  0  0  -0.335253  -0.572817  0  2.283681  0
O  O125  1  0.42170337  0.93491251  0.63322495  1  0  -0.655981  0  2.016091  0  0  -0.592925  0  2.275606  0  0  -0.621707  0  2.262318  0  0  -0.335236  -0.572757  0  2.283789  0
O  O126  1  0.21715063  0.47225386  0.16721933  1  0  -0.652227  0  2.071462  0  0  -0.583976  0  2.336272  0  0  -0.614885  0  2.327524  0  0  -0.339406  -0.562393  0  2.341213  0
O  O127  1  0.78284703  0.97225533  0.33278157  1  0  -0.652262  0  2.071522  0  0  -0.584031  0  2.336318  0  0  -0.614937  0  2.327571  0  0  -0.339458  -0.562449  0  2.341267  0
O  O128  1  0.78285173  0.52774355  0.83278122  1  0  -0.65225  0  2.071415  0  0  -0.584006  0  2.336236  0  0  -0.614915  0  2.327489  0  0  -0.339436  -0.562416  0  2.341158  0
O  O129  1  0.21715224  0.02774305  0.66721756  1  0  -0.652199  0  2.071485  0  0  -0.583955  0  2.336279  0  0  -0.614862  0  2.327533  0  0  -0.339417  -0.562378  0  2.341237  0
