# generated using pymatgen
data_ZnH18C26(NO3)2
_symmetry_space_group_name_H-M   'P 1'
_cell_length_a   9.76732652
_cell_length_b   10.91574257
_cell_length_c   28.14835070
_cell_angle_alpha   89.85611965
_cell_angle_beta   76.96136476
_cell_angle_gamma   87.25378181
_symmetry_Int_Tables_number   1
_chemical_formula_structural   ZnH18C26(NO3)2
_chemical_formula_sum   'Zn2 H36 C52 N4 O12'
_cell_volume   2920.27210919
_cell_formula_units_Z   2
loop_
 _symmetry_equiv_pos_site_id
 _symmetry_equiv_pos_as_xyz
  1  'x, y, z'
loop_
 _atom_site_type_symbol
 _atom_site_label
 _atom_site_symmetry_multiplicity
 _atom_site_fract_x
 _atom_site_fract_y
 _atom_site_fract_z
 _atom_site_occupancy
 _atom_site_pbe_bader_charge
 _atom_site_pbe_bader_spin_density
 _atom_site_pbe_cm5_charge
 _atom_site_pbe_ddec_charge
 _atom_site_pbe_ddec_spin_density
 _atom_site_pbe_ddec_sum_bond_order
 _atom_site_pbe_magmom
Zn  Zn0  1  0.63880600  0.51034276  0.48673120  1  1.289148  0  0.662978  0.83754  0  2.449662  0
Zn  Zn1  1  0.35374002  0.49542942  0.51488668  1  1.282658  0  0.664369  0.841695  0  2.451867  0
H  H2  1  0.25904365  0.48874509  0.36681346  1  0.097824  0  0.101441  0.09936  0  1.010755  0
H  H3  1  0.73271937  0.54290298  0.72302778  1  0.058819  0  0.110298  0.117784  0  0.978882  0
H  H4  1  0.52971247  0.80752995  0.11967587  1  0.115434  0  0.116431  0.121869  0  0.979515  0
H  H5  1  0.49950186  0.19370151  0.87861209  1  0.117345  0  0.117082  0.122769  0  0.980181  0
H  H6  1  0.29585085  0.45536556  0.66910183  1  0.10585  0  0.106845  0.110774  0  0.99729  0
H  H7  1  0.70604124  0.52341187  0.33084826  1  0.092464  0  0.106986  0.109751  0  1.003526  0
H  H8  1  0.29704040  0.45493421  0.75819038  1  0.073459  0  0.109389  0.115247  0  0.981874  0
H  H9  1  0.70474481  0.52471967  0.24172208  1  0.07036  0  0.109526  0.116108  0  0.980089  0
H  H10  1  0.51887422  0.80736075  0.87553027  1  0.125544  0  0.117075  0.122922  0  0.978923  0
H  H11  1  0.44144190  0.20123254  0.12727035  1  0.124633  0  0.117037  0.122539  0  0.979128  0
H  H12  1  0.51424526  0.81224348  0.96381952  1  0.069667  0  0.104803  0.10229  0  1.010186  0
H  H13  1  0.73074867  0.54198363  0.63404916  1  0.086553  0  0.102319  0.102916  0  1.003575  0
H  H14  1  0.45282746  0.19583359  0.03854453  1  0.082666  0  0.10462  0.10258  0  1.008996  0
H  H15  1  0.53363249  0.81052326  0.03142148  1  0.038973  0  0.104734  0.102665  0  1.009601  0
H  H16  1  0.48743136  0.19175426  0.96746280  1  0.055095  0  0.10405  0.101199  0  1.010727  0
H  H17  1  0.11492601  0.13674615  0.40095482  1  -0.007697  0  0.080071  0.101316  0  1.012905  0
H  H18  1  0.23741272  0.23020390  0.36273909  1  0.008423  0  0.08113  0.107309  0  1.019982  0
H  H19  1  0.19214133  0.08999814  0.33995892  1  0.038138  0  0.086435  0.113722  0  1.000571  0
H  H20  1  0.43001251  0.06925613  0.36068480  1  0.026781  0  0.088936  0.078341  0  0.976276  0
H  H21  1  0.31089555  0.97124648  0.39688252  1  0.003059  0  0.085525  0.073883  0  0.985766  0
H  H22  1  0.26015322  0.12566400  0.46471376  1  0.03022  0  0.094304  0.093827  0  0.96818  0
H  H23  1  0.37490449  0.22708328  0.42972290  1  0.074745  0  0.095056  0.108803  0  0.993796  0
H  H24  1  0.64221448  0.08409660  0.49301101  1  0.049817  0  0.102646  0.128253  0  1.002791  0
H  H25  1  0.80931434  0.69716562  0.38066413  1  0.019865  0  0.081591  0.107845  0  1.026538  0
H  H26  1  0.83983197  0.82307769  0.34053137  1  0.028215  0  0.087182  0.117155  0  0.995083  0
H  H27  1  0.95547082  0.79081815  0.37979546  1  0.015725  0  0.079866  0.100989  0  1.01598  0
H  H28  1  0.78738677  0.96815392  0.41401488  1  0.003827  0  0.086279  0.074024  0  0.987077  0
H  H29  1  0.75518259  0.84017113  0.45303409  1  0.021515  0  0.083245  0.074813  0  1.000947  0
H  H30  1  0.56803745  0.78044549  0.40836791  1  0.058733  0  0.094735  0.103212  0  0.993858  0
H  H31  1  0.58642766  0.92415949  0.37875450  1  0.031727  0  0.093869  0.089156  0  0.994611  0
H  H32  1  0.35180408  0.92231600  0.52370720  1  0.080211  0  0.104514  0.133448  0  0.99205  0
H  H33  1  0.87756466  0.41418767  0.52329313  1  0.151879  0  0.142811  0.109695  0  0.952034  0
H  H34  1  0.11851286  0.58994870  0.47461890  1  0.160411  0  0.142354  0.111424  0  0.953797  0
H  H35  1  0.89573681  0.61383886  0.45263401  1  0.436861  0  0.318649  0.288038  0  0.9179  0
H  H36  1  0.09627213  0.39172907  0.54582939  1  0.416181  0  0.326132  0.294658  0  0.895131  0
H  H37  1  0.25711334  0.48629544  0.27777987  1  0.077189  0  0.110342  0.117993  0  0.979276  0
C  C38  1  0.44145588  0.73864432  0.50073426  1  1.554702  0  0.213169  0.657788  0  4.16  0
C  C39  1  0.51321500  0.61246914  0.87195317  1  -0.022443  0  -0.010238  -0.068106  0  3.997616  0
C  C40  1  0.48271313  0.50679026  0.35391020  1  -0.000396  0  -0.013846  -0.029939  0  3.953757  0
C  C41  1  0.51320265  0.49777549  0.64640733  1  0.029051  0  -0.014555  -0.031692  0  3.952604  0
C  C42  1  0.50703852  0.61600525  0.97332974  1  -0.054261  0  0.005074  0.042217  0  3.974749  0
C  C43  1  0.48225901  0.38966621  0.02762477  1  -0.014726  0  0.00491  0.042186  0  3.974761  0
C  C44  1  0.49218547  0.38831484  0.97497546  1  -0.014047  0  0.003884  0.038409  0  3.97684  0
C  C45  1  0.50681922  0.61630288  0.02533302  1  -0.039709  0  0.004342  0.039755  0  3.975939  0
C  C46  1  0.50199445  0.50175920  0.94919508  1  -0.023732  0  0.005533  0.000566  0  3.913628  0
C  C47  1  0.49231801  0.50334651  0.05143925  1  -0.04755  0  0.003837  0.000132  0  3.912829  0
C  C48  1  0.51240653  0.72395793  0.94611443  1  -0.026947  0  -0.0837  -0.124684  0  3.975902  0
C  C49  1  0.54703275  0.26764224  0.48931682  1  1.52781  0  0.208384  0.656492  0  4.162392  0
C  C50  1  0.46332721  0.28311913  0.05570691  1  -0.016178  0  -0.083105  -0.123958  0  3.975851  0
C  C51  1  0.51500213  0.72265841  0.89629953  1  0.014004  0  -0.067369  -0.066888  0  3.971387  0
C  C52  1  0.45655072  0.28478431  0.10578937  1  -0.073113  0  -0.069126  -0.068014  0  3.976073  0
C  C53  1  0.48536986  0.50726816  0.40704377  1  1.567222  0  0.20982  0.583755  0  4.191176  0
C  C54  1  0.50988587  0.49819633  0.59331036  1  1.578059  0  0.216597  0.598126  0  4.167774  0
C  C55  1  0.52036557  0.72370202  0.05063516  1  0.05413  0  -0.084167  -0.124942  0  3.977957  0
C  C56  1  0.49238496  0.27942241  0.94875754  1  -0.040602  0  -0.082026  -0.121119  0  3.975717  0
C  C57  1  0.42690080  0.87315875  0.49455628  1  0.011768  0  -0.10728  -0.321795  0  3.893608  0
C  C58  1  0.55828616  0.13380217  0.48004383  1  0.001409  0  -0.109399  -0.32213  0  3.896376  0
C  C59  1  0.49620405  0.93517598  0.45570909  1  -0.08756  0  0.008293  0.123429  0  3.926657  0
C  C60  1  0.48783923  0.50406176  0.10262423  1  -0.010782  0  0.004685  0.037485  0  3.999807  0
C  C61  1  0.47493506  0.07158251  0.45729080  1  -0.039403  0  0.011567  0.129198  0  3.898719  0
C  C62  1  0.07018353  0.51687093  0.49861152  1  0.690688  0  0.120043  0.170481  0  3.877513  0
C  C63  1  0.92480414  0.48790151  0.49939300  1  0.689853  0  0.118406  0.166137  0  3.880676  0
C  C64  1  0.49957303  0.61813087  0.17930574  1  1.34663  0  0.240602  0.43215  0  4.109199  0
C  C65  1  0.51037696  0.38503492  0.82021397  1  1.339718  0  0.240674  0.430808  0  4.109525  0
C  C66  1  0.46446754  0.39205483  0.18236811  1  1.344147  0  0.241598  0.432434  0  4.108306  0
C  C67  1  0.51636930  0.61419894  0.81911659  1  1.331042  0  0.239721  0.42959  0  4.111844  0
C  C68  1  0.60767182  0.51626902  0.26935590  1  0.067892  0  -0.085348  -0.153533  0  3.978847  0
C  C69  1  0.39161959  0.47394898  0.73077794  1  0.034827  0  -0.084108  -0.152877  0  3.983619  0
C  C70  1  0.60842032  0.51628716  0.31870348  1  -0.049516  0  -0.078137  -0.073348  0  3.965738  0
C  C71  1  0.50688425  0.50092140  0.89797992  1  0.010001  0  0.003593  0.035719  0  3.998953  0
C  C72  1  0.39092227  0.47374381  0.68141798  1  -0.053686  0  -0.076842  -0.07011  0  3.965395  0
C  C73  1  0.35604946  0.49654562  0.33909953  1  -0.002326  0  -0.082143  -0.080404  0  3.984231  0
C  C74  1  0.63649042  0.52232064  0.66149490  1  -0.083527  0  -0.079992  -0.075389  0  3.973689  0
C  C75  1  0.35480069  0.49548531  0.28972377  1  -0.031214  0  -0.08368  -0.152995  0  3.977623  0
C  C76  1  0.63773012  0.52283246  0.71089625  1  0.069213  0  -0.084408  -0.153216  0  3.976129  0
C  C77  1  0.48078429  0.50577084  0.25520339  1  0.249116  0  0.092739  0.199325  0  4.011515  0
C  C78  1  0.51512042  0.49853478  0.74520325  1  0.260322  0  0.090706  0.196595  0  4.014661  0
C  C79  1  0.35837358  0.12908390  0.43608187  1  -0.028008  0  -0.161744  -0.198279  0  3.945465  0
C  C80  1  0.33365186  0.06836817  0.38988111  1  -0.01065  0  -0.164401  -0.089489  0  3.965837  0
C  C81  1  0.21282630  0.13471335  0.37238582  1  -0.034435  0  -0.245405  -0.350866  0  3.983095  0
C  C82  1  0.50162065  0.61515140  0.12660569  1  -0.045694  0  -0.01194  -0.071114  0  4.001964  0
C  C83  1  0.59610086  0.87557415  0.41226545  1  -0.021606  0  -0.161417  -0.198588  0  3.934564  0
C  C84  1  0.75059646  0.87409394  0.41656705  1  0.011297  0  -0.165988  -0.086887  0  3.951915  0
C  C85  1  0.84452871  0.79184575  0.37734956  1  -0.078494  0  -0.246977  -0.359307  0  3.986997  0
C  C86  1  0.50531327  0.38849497  0.87315866  1  -0.05673  0  -0.010796  -0.068796  0  3.997289  0
C  C87  1  0.51843594  0.72343210  0.10038450  1  -0.010089  0  -0.068366  -0.067712  0  3.97505  0
C  C88  1  0.49927464  0.27908863  0.89865282  1  0.042509  0  -0.069166  -0.069553  0  3.974161  0
C  C89  1  0.46966055  0.39369848  0.12941184  1  -0.015346  0  -0.012068  -0.0728  0  4.000654  0
N  N90  1  0.48077453  0.50536709  0.20393203  1  -1.1683  0  -0.232347  -0.211818  0  3.573704  0
N  N91  1  0.51494284  0.49922794  0.79651126  1  -1.173928  0  -0.228691  -0.208178  0  3.572102  0
N  N92  1  0.14495104  0.46056159  0.52449685  1  -1.153353  0  -0.425025  -0.36289  0  3.229456  0
N  N93  1  0.84848146  0.54467195  0.47417561  1  -1.1705  0  -0.424916  -0.361431  0  3.227835  0
O  O94  1  0.56511759  0.68834542  0.48823098  1  -1.164593  0  -0.31484  -0.553487  0  2.342788  0
O  O95  1  0.51038514  0.28882157  0.79758735  1  -1.098604  0  -0.279933  -0.43628  0  2.062986  0
O  O96  1  0.51934927  0.70965071  0.79570977  1  -1.098399  0  -0.27804  -0.434148  0  2.064512  0
O  O97  1  0.44814252  0.29805776  0.20677136  1  -1.106042  0  -0.281768  -0.43899  0  2.062379  0
O  O98  1  0.42387303  0.31963704  0.49779053  1  -1.161974  0  -0.319337  -0.562633  0  2.352001  0
O  O99  1  0.33004518  0.68235031  0.51872986  1  -1.156209  0  -0.332167  -0.558789  0  2.248524  0
O  O100  1  0.66012509  0.32231405  0.48903667  1  -1.166104  0  -0.332897  -0.563491  0  2.243124  0
O  O101  1  0.60659678  0.49846905  0.41699258  1  -1.164364  0  -0.319887  -0.552264  0  2.320524  0
O  O102  1  0.39121149  0.48181705  0.58315350  1  -1.164364  0  -0.321859  -0.549282  0  2.310933  0
O  O103  1  0.36797139  0.51625127  0.43792693  1  -1.182826  0  -0.320108  -0.570882  0  2.314508  0
O  O104  1  0.62453319  0.51512099  0.56241446  1  -1.178767  0  -0.321872  -0.567553  0  2.31175  0
O  O105  1  0.51315181  0.71269037  0.20112433  1  -1.096636  0  -0.28241  -0.440047  0  2.062998  0
