# generated using pymatgen
data_CoH20C20(N7O)2
_symmetry_space_group_name_H-M   'P 1'
_cell_length_a   7.60354277
_cell_length_b   8.51517376
_cell_length_c   9.63656751
_cell_angle_alpha   75.29362448
_cell_angle_beta   88.13194234
_cell_angle_gamma   78.35276311
_symmetry_Int_Tables_number   1
_chemical_formula_structural   CoH20C20(N7O)2
_chemical_formula_sum   'Co1 H20 C20 N14 O2'
_cell_volume   590.94334371
_cell_formula_units_Z   1
loop_
 _symmetry_equiv_pos_site_id
 _symmetry_equiv_pos_as_xyz
  1  'x, y, z'
loop_
 _atom_site_type_symbol
 _atom_site_label
 _atom_site_symmetry_multiplicity
 _atom_site_fract_x
 _atom_site_fract_y
 _atom_site_fract_z
 _atom_site_occupancy
 _atom_site_hle17_ddec_charge
 _atom_site_hle17_ddec_spin_density
 _atom_site_hle17_ddec_sum_bond_order
 _atom_site_hle17_magmom
 _atom_site_hse06_10hf_ddec_charge
 _atom_site_hse06_10hf_ddec_spin_density
 _atom_site_hse06_10hf_ddec_sum_bond_order
 _atom_site_hse06_10hf_magmom
 _atom_site_hse06_ddec_charge
 _atom_site_hse06_ddec_spin_density
 _atom_site_hse06_ddec_sum_bond_order
 _atom_site_hse06_magmom
 _atom_site_pbe_cm5_charge
 _atom_site_pbe_ddec_charge
 _atom_site_pbe_ddec_spin_density
 _atom_site_pbe_ddec_sum_bond_order
 _atom_site_pbe_magmom
Co  Co0  1  0.00000124  0.49999882  0.49999889  1  0.613456  1.092099  2.621258  1.014  0.594603  1.025014  3.048995  0.964  0.645087  1.024745  2.992216  0.972  0.710529  0.565633  1.018268  3.084864  0.95
H  H1  1  0.34628748  0.40230629  0.99294669  1  0.094229  -0.0  0.946819  0.0  0.104937  -4e-06  1.005794  0.0  0.108198  -1e-06  1.00417  0.0  0.10086  0.102567  -9e-06  1.007198  0.0
H  H2  1  0.65370603  0.59769828  0.00705672  1  0.094258  0.0  0.946772  0.0  0.104964  -4e-06  1.005754  0.0  0.108225  -1e-06  1.00413  0.0  0.100862  0.102594  -9e-06  1.007161  0.0
H  H3  1  0.50519190  0.28873184  0.23096315  1  0.089582  -1.4e-05  0.961708  0.0  0.098117  -1e-06  1.028676  0.0  0.101011  3e-06  1.026961  0.0  0.098338  0.097076  -1e-05  1.028435  0.0
H  H4  1  0.49481531  0.71127018  0.76904035  1  0.089634  -1.4e-05  0.961736  0.0  0.098153  -1e-06  1.028728  0.0  0.101046  3e-06  1.027013  0.0  0.098316  0.09711  -1e-05  1.02849  0.0
H  H5  1  0.86828348  0.93074560  0.05905392  1  0.096852  5e-06  0.947688  0.0  0.106818  3.1e-05  1.010498  0.0  0.109932  2e-05  1.008887  0.0  0.101893  0.104496  4.5e-05  1.011844  0.0
H  H6  1  0.13171157  0.06925150  0.94094914  1  0.09684  6e-06  0.947744  0.0  0.106805  3.1e-05  1.010554  0.0  0.109919  2e-05  1.008946  0.0  0.101896  0.104483  4.5e-05  1.011898  0.0
H  H7  1  0.71839190  0.04763270  0.82198598  1  0.097888  1e-06  0.984978  0.0  0.097851  2.2e-05  1.064104  0.0  0.101743  1.3e-05  1.061335  0.0  0.097222  0.094987  2.8e-05  1.066257  0.0
H  H8  1  0.28159812  0.95236317  0.17801654  1  0.097863  1e-06  0.985158  0.0  0.097907  2.2e-05  1.064196  0.0  0.101803  1.3e-05  1.061419  0.0  0.097263  0.09503  2.8e-05  1.066361  0.0
H  H9  1  0.68816358  0.01029126  0.39225213  1  0.100018  -2.3e-05  0.898486  0.0  0.11651  -2.1e-05  0.955275  0.0  0.117208  -1.2e-05  0.955149  0.0  0.122149  0.11577  -3.3e-05  0.955802  0.0
H  H10  1  0.31183904  0.98971313  0.60774371  1  0.099989  -2.3e-05  0.898428  0.0  0.116497  -2.1e-05  0.955198  0.0  0.117197  -1.2e-05  0.955073  0.0  0.122152  0.115756  -3.3e-05  0.955729  0.0
H  H11  1  0.87229740  0.90455661  0.31002084  1  0.111427  -7.9e-05  0.929643  0.0  0.119787  -7.7e-05  1.000041  0.0  0.121444  -7.4e-05  0.998827  0.0  0.121418  0.118508  -7.7e-05  1.000962  0.0
H  H12  1  0.12770076  0.09545030  0.68997561  1  0.111392  -7.9e-05  0.929591  0.0  0.119742  -7.7e-05  1.000006  0.0  0.121398  -7.4e-05  0.998791  0.0  0.121402  0.118461  -7.7e-05  1.000932  0.0
H  H13  1  0.74196287  0.24925323  0.48944164  1  0.117082  4e-06  0.970136  0.0  0.116038  -8.6e-05  1.048715  0.0  0.120396  -5.1e-05  1.042765  0.0  0.141407  0.112452  -0.000121  1.053793  0.0
H  H14  1  0.25804030  0.75074872  0.51055684  1  0.117  4e-06  0.97022  0.0  0.11596  -8.6e-05  1.048795  0.0  0.120317  -5.1e-05  1.042846  0.0  0.141374  0.112371  -0.000121  1.05388  0.0
H  H15  1  0.24027632  0.29629175  0.29534553  1  0.086982  -7.4e-05  0.971527  0.0  0.090212  -0.000117  1.044863  0.0  0.092769  -9.2e-05  1.040745  0.0  0.130827  0.088359  -0.000141  1.047688  0.0
H  H16  1  0.75972620  0.70371253  0.70464411  1  0.08705  -7.4e-05  0.971603  0.0  0.090253  -0.000117  1.044943  0.0  0.09281  -9.2e-05  1.040831  0.0  0.130841  0.088402  -0.000141  1.047768  0.0
H  H17  1  0.91479399  0.35838377  0.78772781  1  0.420009  0.000253  0.819876  0.0  0.402489  0.000661  0.878715  0.001  0.411206  0.000409  0.868158  0.001  0.32176  0.396472  0.000919  0.885981  0.001
H  H18  1  0.08520465  0.64161444  0.21226863  1  0.419991  0.000253  0.819832  0.0  0.402478  0.000662  0.878661  0.001  0.411196  0.000409  0.868103  0.001  0.321768  0.396459  0.00092  0.885929  0.001
H  H19  1  0.74905536  0.35012423  0.69527102  1  0.405942  0.000224  0.875852  0.001  0.374247  0.000538  0.963026  0.001  0.382834  0.000351  0.950502  0.001  0.302  0.368354  0.00074  0.970612  0.001
H  H20  1  0.25094769  0.64987140  0.30472172  1  0.405991  0.000225  0.875742  0.001  0.374298  0.000538  0.962937  0.001  0.382883  0.000351  0.950417  0.001  0.302016  0.368406  0.000741  0.970499  0.001
C  C21  1  0.42796056  0.29408896  0.75242459  1  0.24307  -0.000139  3.841552  0.0  0.226927  -0.000297  4.108699  0.0  0.235318  -0.000202  4.125404  0.0  0.202694  0.221535  -0.000367  4.097234  0.0
C  C22  1  0.57203133  0.70591064  0.24757799  1  0.243111  -0.00014  3.841531  0.0  0.227015  -0.000298  4.108601  0.0  0.235405  -0.000201  4.125308  0.0  0.202756  0.221621  -0.000366  4.097138  0.0
C  C23  1  0.52074079  0.23226857  0.89201697  1  -0.005553  0.000254  3.820591  0.0  0.01538  0.000405  4.043457  0.0  0.013132  0.000314  4.067375  0.0  -0.010666  0.016736  0.00034  4.02731  0.0
C  C24  1  0.47925027  0.76772852  0.10798417  1  -0.005622  0.000245  3.820531  0.0  0.015326  0.000405  4.043377  0.0  0.01308  0.000314  4.067294  0.0  -0.01066  0.016687  0.00034  4.027216  0.0
C  C25  1  0.46122915  0.29938812  0.00833860  1  -0.086082  -0.000516  3.744879  0.0  -0.106966  -0.000249  3.990109  0.0  -0.108912  -0.000223  4.011832  0.0  -0.088249  -0.105686  -0.000288  3.975925  0.0
C  C26  1  0.53876387  0.70061280  0.99166881  1  -0.086064  -0.000496  3.744817  0.0  -0.106963  -0.000249  3.990033  0.0  -0.108909  -0.000223  4.011755  0.0  -0.088262  -0.105684  -0.000288  3.975846  0.0
C  C27  1  0.54907884  0.23457884  0.14120357  1  -0.121237  0.000382  3.748381  0.001  -0.139433  0.000307  3.996047  0.0  -0.143025  0.000231  4.018865  0.0  -0.094786  -0.137468  0.000255  3.980479  0.0
C  C28  1  0.45092201  0.76542195  0.85879839  1  -0.121364  0.000373  3.748348  0.001  -0.139539  0.000307  3.996016  0.0  -0.14313  0.000231  4.018833  0.0  -0.094788  -0.137574  0.000255  3.980449  0.0
C  C29  1  0.75570971  0.03583645  0.04461131  1  -0.103397  0.000114  3.741885  0.0  -0.124029  0.000156  3.992146  0.0  -0.127023  0.000137  4.013411  0.0  -0.089064  -0.121875  0.000341  3.977487  0.0
C  C30  1  0.24428638  0.96416187  0.95539039  1  -0.103474  0.000102  3.741935  0.0  -0.124096  0.000157  3.992242  0.0  -0.127091  0.000137  4.013511  0.0  -0.089103  -0.121941  0.000341  3.977578  0.0
C  C31  1  0.67044321  0.10129588  0.91087322  1  -0.095581  -0.000289  3.747229  0.0  -0.114184  -8.6e-05  3.991904  0.0  -0.115862  -0.000114  4.012638  0.0  -0.089417  -0.112828  9.4e-05  3.977786  0.0
C  C32  1  0.32954744  0.89870382  0.08913458  1  -0.095469  -0.000267  3.747283  0.0  -0.114149  -8.5e-05  3.991904  0.0  -0.11582  -0.000114  4.01262  0.0  -0.089454  -0.112785  9.4e-05  3.977796  0.0
C  C33  1  0.69502727  0.10033566  0.16115276  1  0.073518  -0.000673  3.746888  0.0  0.089338  -0.000421  3.992263  0.0  0.089275  -0.000327  4.016625  0.0  -0.014418  0.089771  -0.000501  3.975632  0.0
C  C34  1  0.30497813  0.89966889  0.83885228  1  0.073559  -0.000651  3.746841  0.0  0.089332  -0.000425  3.992228  0.0  0.089269  -0.000328  4.016591  0.0  -0.014395  0.089763  -0.000501  3.975596  0.0
C  C35  1  0.78644676  0.02566101  0.30625862  1  -0.058751  7e-06  3.629617  0.0  -0.137572  1e-06  3.881298  0.0  -0.133593  -3e-06  3.890958  0.0  -0.042842  -0.13999  -1e-06  3.874819  0.0
C  C36  1  0.21355164  0.97433845  0.69373856  1  -0.058668  7e-06  3.629447  0.0  -0.137409  1e-06  3.881099  0.0  -0.133431  -4e-06  3.890761  0.0  -0.042797  -0.139829  -1e-06  3.874621  0.0
C  C37  1  0.86147655  0.23678945  0.42417377  1  0.171892  -0.01048  3.561734  -0.007  0.096292  -0.004293  3.83317  -0.003  0.113134  -0.003219  3.841412  -0.002  0.162982  0.085352  -0.005141  3.828018  -0.003
C  C38  1  0.13853319  0.76321244  0.57582344  1  0.172043  -0.010474  3.561477  -0.007  0.096463  -0.004292  3.832936  -0.003  0.113308  -0.003217  3.841173  -0.002  0.16315  0.085525  -0.005141  3.827788  -0.003
C  C39  1  0.11397231  0.25736377  0.32291945  1  0.179969  -0.006193  3.712564  -0.004  0.129387  -0.002847  4.00567  -0.002  0.142569  -0.002369  4.0166  -0.002  0.143192  0.120651  -0.003157  3.998672  -0.002
C  C40  1  0.88602895  0.74263441  0.67707586  1  0.17986  -0.006179  3.712605  -0.004  0.129324  -0.002848  4.005668  -0.002  0.142501  -0.002372  4.016602  -0.002  0.143227  0.120587  -0.003157  3.998674  -0.002
N  N41  1  0.22851044  0.39723422  0.58929508  1  -0.047618  -0.013852  3.377981  -0.008  -0.019528  -0.008362  3.699201  -0.006  -0.033664  -0.008085  3.715164  -0.006  -0.142941  -0.011067  -0.007744  3.689143  -0.005
N  N42  1  0.77149088  0.60276403  0.41070436  1  -0.047629  -0.013849  3.377992  -0.008  -0.019381  -0.008363  3.699042  -0.006  -0.033513  -0.008085  3.715006  -0.006  -0.142873  -0.010922  -0.007744  3.688983  -0.005
N  N43  1  0.37928878  0.34725774  0.52483723  1  -0.112878  -0.010565  2.938756  -0.009  -0.110008  -0.004922  3.24366  -0.004  -0.106973  -0.003971  3.254691  -0.003  -0.112356  -0.112506  -0.005423  3.235952  -0.004
N  N44  1  0.62071836  0.65274421  0.47516214  1  -0.11292  -0.010568  2.938791  -0.009  -0.110079  -0.00492  3.243652  -0.004  -0.10705  -0.003969  3.254686  -0.003  -0.112449  -0.112577  -0.005422  3.235944  -0.004
N  N45  1  0.50766258  0.28114673  0.62659408  1  -0.334184  -0.004747  3.009466  -0.003  -0.304395  -0.002092  3.295141  -0.001  -0.316181  -0.00165  3.307089  -0.001  -0.227369  -0.296069  -0.002248  3.28703  -0.001
N  N46  1  0.49234380  0.71885279  0.37340798  1  -0.334161  -0.004745  3.009549  -0.003  -0.304422  -0.002089  3.295259  -0.001  -0.316207  -0.00165  3.307206  -0.001  -0.227391  -0.296095  -0.002247  3.287144  -0.001
N  N47  1  0.25345079  0.36725442  0.73166860  1  -0.311641  -0.00656  2.902397  -0.005  -0.295574  -0.003065  3.179426  -0.002  -0.30209  -0.002319  3.191697  -0.002  -0.23132  -0.291772  -0.003593  3.171945  -0.003
N  N48  1  0.74654322  0.63274147  0.26833583  1  -0.311681  -0.006561  2.902569  -0.005  -0.295674  -0.003064  3.179536  -0.002  -0.302195  -0.002321  3.19181  -0.002  -0.231321  -0.291871  -0.003593  3.172056  -0.003
N  N49  1  0.89984538  0.13110110  0.34014837  1  0.048074  -0.000473  3.564658  0.0  0.164813  -0.000709  3.756645  0.0  0.153764  -0.000465  3.781147  0.0  -0.13101  0.170966  -0.000881  3.742093  -0.001
N  N50  1  0.10015807  0.86889963  0.65985143  1  0.048058  -0.000474  3.5647  0.0  0.164676  -0.000707  3.756813  0.0  0.153626  -0.000462  3.781316  0.0  -0.131087  0.170848  -0.000881  3.742222  -0.001
N  N51  1  0.05937475  0.14258741  0.27402294  1  -0.260095  -0.000109  2.852148  0.001  -0.256409  -0.00037  3.113677  0.0  -0.265446  -0.000204  3.127698  0.0  -0.217148  -0.250063  -0.000442  3.104508  0.0
N  N52  1  0.94062837  0.85741449  0.72597245  1  -0.260079  -0.000114  2.852044  0.001  -0.256356  -0.00037  3.11356  0.0  -0.265389  -0.000204  3.127584  0.0  -0.217149  -0.250014  -0.000442  3.104393  0.0
N  N53  1  0.99617984  0.31908868  0.41537506  1  -0.327698  -0.010747  3.382523  -0.006  -0.290182  -0.006439  3.697676  -0.005  -0.316881  -0.006889  3.711749  -0.005  -0.358817  -0.273415  -0.005137  3.688044  -0.004
N  N54  1  0.00382885  0.68091199  0.58462249  1  -0.32773  -0.010753  3.382367  -0.006  -0.290225  -0.00644  3.697522  -0.005  -0.316922  -0.006891  3.711595  -0.005  -0.358923  -0.273469  -0.005138  3.687902  -0.004
O  O55  1  0.87774434  0.35112100  0.69429159  1  -0.778526  0.018216  1.973389  0.032  -0.748181  0.019828  2.194116  0.032  -0.766846  0.016418  2.165526  0.027  -0.551612  -0.734143  0.023417  2.212352  0.037
O  O56  1  0.12225851  0.64886975  0.30570647  1  -0.778526  0.018215  1.973248  0.032  -0.748185  0.019827  2.194005  0.032  -0.766849  0.016418  2.165412  0.027  -0.551628  -0.734147  0.023416  2.212224  0.037
