# generated using pymatgen
data_Co2H28C52N4(O3F4)3
_symmetry_space_group_name_H-M   'P 1'
_cell_length_a   7.11524171
_cell_length_b   16.14770666
_cell_length_c   22.50740133
_cell_angle_alpha   102.65459022
_cell_angle_beta   89.99966136
_cell_angle_gamma   90.00050683
_symmetry_Int_Tables_number   1
_chemical_formula_structural   Co2H28C52N4(O3F4)3
_chemical_formula_sum   'Co4 H56 C104 N8 O18 F24'
_cell_volume   2523.16668969
_cell_formula_units_Z   2
loop_
 _symmetry_equiv_pos_site_id
 _symmetry_equiv_pos_as_xyz
  1  'x, y, z'
loop_
 _atom_site_type_symbol
 _atom_site_label
 _atom_site_symmetry_multiplicity
 _atom_site_fract_x
 _atom_site_fract_y
 _atom_site_fract_z
 _atom_site_occupancy
 _atom_site_pbe_bader_charge
 _atom_site_pbe_bader_spin_density
 _atom_site_pbe_cm5_charge
 _atom_site_pbe_ddec_charge
 _atom_site_pbe_ddec_spin_density
 _atom_site_pbe_ddec_sum_bond_order
 _atom_site_pbe_magmom
Co  Co0  1  0.12856234  0.46265256  0.01285263  1  1.198289  2.611319  0.617248  0.775481  2.82767  2.698847  2.596
Co  Co1  1  0.12874614  0.03738963  0.48713253  1  1.199457  2.611204  0.617446  0.775686  2.827388  2.70047  2.596
Co  Co2  1  0.87119907  0.53742917  0.98713278  1  1.200203  2.611245  0.617437  0.775441  2.82729  2.700509  2.596
Co  Co3  1  0.87141722  0.96262389  0.51285613  1  1.198801  2.611323  0.617285  0.775438  2.827598  2.699908  2.596
H  H4  1  0.14953270  0.28836487  0.13822078  1  0.09433  2.1e-05  0.10612  0.120097  -8e-06  1.027161  0.0
H  H5  1  0.89919474  0.31406598  0.06703319  1  0.134508  -2e-05  0.10811  0.12624  -0.000107  1.041623  0.0
H  H6  1  0.46559580  0.27471174  0.19216594  1  0.111884  1.2e-05  0.107  0.123615  5e-06  0.999568  0.0
H  H7  1  0.51761775  0.44367974  0.09316190  1  0.163152  0.000308  0.136351  0.108917  -2.3e-05  1.033922  0.0
H  H8  1  0.17842844  0.25228513  0.98942240  1  0.102833  0.000563  0.114549  0.107658  0.00016  1.043147  0.001
H  H9  1  0.44459897  0.17660147  0.05159511  1  0.145685  0.000443  0.116351  0.125778  0.000181  1.023188  0.0
H  H10  1  0.54845374  0.66638190  0.09859036  1  0.133556  0.000479  0.107917  0.117254  0.000255  1.035215  0.0
H  H11  1  0.68146633  0.80669422  0.14749124  1  0.08314  0.000131  0.10447  0.112716  5.2e-05  0.991168  0.0
H  H12  1  0.20307118  0.92882905  0.08500097  1  0.106688  0.000119  0.091308  0.100273  6.8e-05  1.043435  0.0
H  H13  1  0.06631306  0.78981860  0.04261120  1  0.074851  0.000193  0.101736  0.102875  0.0001  1.034942  0.0
H  H14  1  0.02978709  0.03038917  0.29487369  1  0.083905  0.000398  0.103889  0.112075  0.000221  1.00699  0.0
H  H15  1  0.90056799  0.02643815  0.19300191  1  0.097513  0.000124  0.090654  0.099659  6.9e-05  1.048954  0.0
H  H16  1  0.39979363  0.90459091  0.24097668  1  0.084826  0.000122  0.104247  0.114034  5.3e-05  0.993617  0.0
H  H17  1  0.52689877  0.91429671  0.34417486  1  0.099534  0.000416  0.108422  0.113864  0.000215  1.022168  0.0
H  H18  1  0.14955371  0.21164441  0.36175838  1  0.094211  2.1e-05  0.106134  0.120185  -8e-06  1.027062  0.0
H  H19  1  0.89924762  0.18595839  0.43295775  1  0.134492  -2e-05  0.108261  0.126262  -0.000107  1.041521  0.0
H  H20  1  0.46561108  0.22529315  0.30783189  1  0.111546  1.2e-05  0.106959  0.12349  5e-06  0.999625  0.0
H  H21  1  0.51768539  0.05634302  0.40684238  1  0.163583  0.000309  0.136345  0.108894  -2.2e-05  1.033797  0.0
H  H22  1  0.17850178  0.24773130  0.51058814  1  0.103037  0.000563  0.114542  0.107577  0.00016  1.043184  0.001
H  H23  1  0.44462620  0.32342056  0.44840162  1  0.145782  0.000442  0.116336  0.125687  0.000181  1.022932  0.0
H  H24  1  0.54856077  0.83359959  0.40141382  1  0.133383  0.00048  0.107938  0.117461  0.000255  1.035156  0.0
H  H25  1  0.68150120  0.69327493  0.35251595  1  0.083091  0.000131  0.104439  0.112658  5.2e-05  0.991279  0.0
H  H26  1  0.20305042  0.57117860  0.41500379  1  0.106234  0.000119  0.091289  0.100272  6.8e-05  1.043364  0.0
H  H27  1  0.06636597  0.71020067  0.45739443  1  0.075034  0.000193  0.101729  0.102747  0.000101  1.035159  0.0
H  H28  1  0.02973050  0.46958560  0.20512125  1  0.083924  0.000397  0.103867  0.112071  0.000222  1.00684  0.0
H  H29  1  0.90053063  0.47353637  0.30699802  1  0.097281  0.000124  0.090696  0.099733  6.9e-05  1.048882  0.0
H  H30  1  0.39976225  0.59539866  0.25904246  1  0.084321  0.000122  0.104279  0.114035  5.3e-05  0.993381  0.0
H  H31  1  0.52684525  0.58570289  0.15584305  1  0.099034  0.000415  0.108412  0.113871  0.000215  1.022313  0.0
H  H32  1  0.85054353  0.71160638  0.86174880  1  0.095224  2.1e-05  0.106239  0.120179  -8e-06  1.02694  0.0
H  H33  1  0.10085198  0.68588424  0.93293687  1  0.134922  -2.2e-05  0.108147  0.126186  -0.000108  1.041456  0.0
H  H34  1  0.53451275  0.72525840  0.80782612  1  0.110817  1.3e-05  0.107189  0.123959  5e-06  0.999585  0.0
H  H35  1  0.48244161  0.55626049  0.90682916  1  0.162567  0.00031  0.136434  0.109126  -2.2e-05  1.033531  0.0
H  H36  1  0.82164217  0.74764916  0.01057877  1  0.103425  0.000563  0.114665  0.107849  0.00016  1.04287  0.001
H  H37  1  0.55549412  0.82332787  0.94839901  1  0.147058  0.000442  0.116399  0.126123  0.000181  1.023041  0.0
H  H38  1  0.45174336  0.33362959  0.90146549  1  0.13422  0.000481  0.10793  0.117326  0.000256  1.035167  0.0
H  H39  1  0.31856493  0.19335840  0.85254661  1  0.083046  0.000131  0.104529  0.112795  5.2e-05  0.991382  0.0
H  H40  1  0.79684061  0.07107966  0.91500525  1  0.106178  0.00012  0.091211  0.100105  6.8e-05  1.043401  0.0
H  H41  1  0.93370695  0.21006541  0.95741932  1  0.074514  0.000194  0.101682  0.102843  0.000101  1.035294  0.0
H  H42  1  0.97033130  0.96968372  0.70504669  1  0.084097  0.000398  0.103808  0.111918  0.000222  1.007194  0.0
H  H43  1  0.09934099  0.97363169  0.80694285  1  0.095665  0.000124  0.090648  0.099484  6.9e-05  1.049157  0.0
H  H44  1  0.60025308  0.09548490  0.75907883  1  0.084223  0.000122  0.104476  0.114205  5.3e-05  0.992929  0.0
H  H45  1  0.47334611  0.08580003  0.65585438  1  0.099357  0.000414  0.108432  0.113783  0.000214  1.022457  0.0
H  H46  1  0.85057312  0.78839656  0.63822731  1  0.095185  2.1e-05  0.106166  0.120199  -8e-06  1.026888  0.0
H  H47  1  0.10090732  0.81412925  0.56704953  1  0.134714  -2.1e-05  0.108093  0.126253  -0.000107  1.041449  0.0
H  H48  1  0.53452699  0.77474305  0.69216855  1  0.110747  1.2e-05  0.107188  0.124039  5e-06  0.999545  0.0
H  H49  1  0.48249625  0.94375396  0.59317490  1  0.162323  0.000309  0.136412  0.108952  -2.2e-05  1.033805  0.0
H  H50  1  0.82171920  0.75237525  0.48942852  1  0.10303  0.000563  0.114707  0.107944  0.00016  1.042704  0.001
H  H51  1  0.55553716  0.67668837  0.55159233  1  0.146815  0.000442  0.116312  0.126213  0.000181  1.023158  0.0
H  H52  1  0.45185276  0.16635552  0.59853529  1  0.134826  0.000482  0.10795  0.117437  0.000256  1.034937  0.0
H  H53  1  0.31861016  0.30661608  0.64745309  1  0.083373  0.000131  0.104619  0.112954  5.2e-05  0.991472  0.0
H  H54  1  0.79683326  0.42894102  0.58499684  1  0.105851  0.000119  0.091236  0.100175  6.8e-05  1.043256  0.0
H  H55  1  0.93375664  0.28996589  0.54258473  1  0.074085  0.000193  0.101632  0.102869  0.000101  1.035245  0.0
H  H56  1  0.97027405  0.53029652  0.79493828  1  0.083992  0.000397  0.103839  0.11199  0.000222  1.007317  0.0
H  H57  1  0.09931088  0.52634669  0.69304701  1  0.096245  0.000124  0.090707  0.099392  6.9e-05  1.04931  0.0
H  H58  1  0.60020857  0.40450191  0.74092641  1  0.084532  0.000122  0.104394  0.114111  5.3e-05  0.99275  0.0
H  H59  1  0.47327736  0.41419151  0.84414700  1  0.099232  0.000415  0.108449  0.113855  0.000214  1.022414  0.0
C  C60  1  0.75365729  0.26116076  0.22063302  1  0.007337  8.2e-05  -0.023679  -0.019188  3.8e-05  4.061688  0.0
C  C61  1  0.94443387  0.26628378  0.20466098  1  0.371058  0.000246  0.082535  0.200515  0.000122  3.998715  0.0
C  C62  1  0.00199856  0.28517061  0.15025960  1  0.055614  7e-05  -0.094252  -0.167127  2.4e-05  3.991615  0.0
C  C63  1  0.86102541  0.29931953  0.11041405  1  -0.002261  0.000529  -0.083397  -0.132565  0.000205  3.949943  0.0
C  C64  1  0.67075762  0.29568596  0.12611679  1  0.320971  0.000551  0.081051  0.137836  0.000313  4.03028  0.0
C  C65  1  0.61419243  0.27713687  0.18103685  1  -0.012719  0.000439  -0.085335  -0.173952  0.000232  3.962294  0.0
C  C66  1  0.45926231  0.38195133  0.07316147  1  0.978402  0.002405  0.147508  0.108573  0.001482  3.857866  0.003
C  C67  1  0.28767239  0.28052920  0.02064302  1  0.475768  -0.000427  9.7e-05  -0.021171  -0.001108  4.006362  0.0
C  C68  1  0.41745228  0.24229664  0.05084463  1  0.250156  0.00292  -0.005696  -0.119682  0.001487  3.938556  0.002
C  C69  1  0.20402996  0.63565325  0.04278226  1  1.502994  -0.010665  0.211912  0.552647  -0.013794  4.17804  -0.01
C  C70  1  0.29457701  0.71878721  0.06952073  1  -0.016686  0.010313  -0.014224  -0.024503  0.005479  3.966236  0.008
C  C71  1  0.46993555  0.72421486  0.09828169  1  -0.032655  -0.002365  -0.076728  -0.076686  -0.002819  3.941034  -0.001
C  C72  1  0.54596022  0.80335796  0.12448700  1  0.021831  0.00166  -0.089967  -0.128219  0.000674  3.965515  0.001
C  C73  1  0.45134159  0.87835622  0.12091163  1  -0.086682  -0.004273  -0.019294  0.077229  -0.004556  3.967719  -0.003
C  C74  1  0.27923664  0.87253386  0.09012417  1  -0.100154  0.001587  -0.102554  -0.144386  0.00065  4.006812  0.001
C  C75  1  0.20133430  0.79367777  0.06558119  1  0.031189  -0.002686  -0.085675  -0.079714  -0.003033  3.970428  -0.002
C  C76  1  0.54469251  0.96428636  0.14759856  1  0.03607  -7.2e-05  -0.010837  -0.270587  -0.000325  3.853758  0.0
C  C77  1  0.64014055  0.96474044  0.20906206  1  -0.024091  -0.004612  -0.017286  0.082994  -0.004921  3.952136  -0.003
C  C78  1  0.86478212  0.98084594  0.38911544  1  1.551369  -0.011717  0.210885  0.551026  -0.015221  4.18405  -0.01
C  C79  1  0.78835936  0.97232046  0.32618709  1  -0.019567  0.010434  -0.017468  -0.033596  0.005536  3.974911  0.008
C  C80  1  0.89177592  0.00283960  0.28262859  1  -0.011932  -0.002839  -0.081179  -0.072982  -0.003215  3.955704  -0.002
C  C81  1  0.81782814  0.00004743  0.22494266  1  -0.076224  0.001664  -0.100013  -0.142743  0.00067  3.984256  0.001
C  C82  1  0.53793247  0.93265677  0.25242744  1  -0.100136  0.001721  -0.0925  -0.128318  0.000701  3.969257  0.001
C  C83  1  0.61028791  0.93706855  0.31044392  1  0.025177  -0.002539  -0.081708  -0.087469  -0.002923  3.957656  -0.001
C  C84  1  0.68524072  0.98089773  0.09824663  1  1.712352  -0.000245  0.302719  0.676506  -0.000286  3.966898  0.0
C  C85  1  0.39872179  0.03849702  0.16075147  1  1.715219  -0.00027  0.304045  0.675573  -0.000312  3.96237  0.0
C  C86  1  0.75366916  0.23884337  0.27935747  1  -0.043634  8.2e-05  -0.023652  -0.018943  3.8e-05  4.061694  0.0
C  C87  1  0.94444252  0.23371854  0.29532619  1  0.416338  0.000245  0.082568  0.200425  0.000122  3.999126  0.0
C  C88  1  0.00202548  0.21483863  0.34972695  1  0.009714  7.1e-05  -0.094149  -0.167064  2.4e-05  3.991466  0.0
C  C89  1  0.86106816  0.20069642  0.38957733  1  -0.001643  0.000528  -0.083699  -0.132755  0.000205  3.949898  0.0
C  C90  1  0.67079793  0.20432988  0.37387849  1  0.320985  0.000551  0.081193  0.138131  0.000313  4.030414  0.0
C  C91  1  0.61421307  0.22287178  0.31895822  1  -0.013577  0.000439  -0.085269  -0.173793  0.000233  3.962186  0.0
C  C92  1  0.45932800  0.11806673  0.42684480  1  0.979691  0.002423  0.147547  0.108613  0.001498  3.857353  0.003
C  C93  1  0.28773350  0.21948507  0.47936383  1  0.476643  -0.000427  -6.3e-05  -0.021396  -0.001108  4.00593  0.0
C  C94  1  0.41749926  0.25772200  0.44915737  1  0.248607  0.002925  -0.005487  -0.119178  0.00149  3.937489  0.002
C  C95  1  0.20414639  0.86436584  0.45722441  1  1.503035  -0.010684  0.211795  0.552367  -0.013818  4.177745  -0.01
C  C96  1  0.29465011  0.78121947  0.43048547  1  -0.017106  0.010317  -0.014235  -0.024174  0.005481  3.965786  0.008
C  C97  1  0.46999785  0.77577714  0.40172439  1  -0.032825  -0.002371  -0.076716  -0.077193  -0.002824  3.941673  -0.001
C  C98  1  0.54599472  0.69662602  0.37551937  1  0.022982  0.00166  -0.089878  -0.127979  0.000674  3.96584  0.001
C  C99  1  0.45134923  0.62163445  0.37909383  1  -0.086807  -0.004277  -0.019393  0.076954  -0.004561  3.967938  -0.003
C  C100  1  0.27923819  0.62747400  0.40988359  1  -0.099737  0.001588  -0.102564  -0.14449  0.00065  4.006788  0.001
C  C101  1  0.20137491  0.70633552  0.43442763  1  0.030948  -0.002686  -0.085498  -0.079306  -0.003033  3.969955  -0.002
C  C102  1  0.54467363  0.53569371  0.35241161  1  0.036133  -7.2e-05  -0.010739  -0.270355  -0.000325  3.853234  0.0
C  C103  1  0.64011580  0.53524066  0.29094543  1  -0.023824  -0.004609  -0.01725  0.083062  -0.004917  3.951936  -0.003
C  C104  1  0.86467190  0.51915514  0.11088743  1  1.553185  -0.0117  0.210934  0.551193  -0.01521  4.184211  -0.01
C  C105  1  0.78828467  0.52766629  0.17381885  1  -0.019819  0.010434  -0.017491  -0.033869  0.005536  3.974843  0.008
C  C106  1  0.89172527  0.49714185  0.21737341  1  -0.013145  -0.002835  -0.081003  -0.072589  -0.00321  3.955444  -0.002
C  C107  1  0.81779332  0.49993054  0.27506066  1  -0.074982  0.001664  -0.10017  -0.143126  0.00067  3.984742  0.001
C  C108  1  0.53789793  0.56733278  0.24758566  1  -0.099144  0.001719  -0.092563  -0.128219  0.0007  3.968865  0.001
C  C109  1  0.61023470  0.56292192  0.18956742  1  0.025366  -0.002537  -0.081551  -0.087349  -0.002922  3.957889  -0.001
C  C110  1  0.68520371  0.51907783  0.40175897  1  1.712321  -0.000245  0.302521  0.676069  -0.000287  3.967302  0.0
C  C111  1  0.39867375  0.46149411  0.33925352  1  1.714641  -0.00027  0.304221  0.675711  -0.000311  3.962004  0.0
C  C112  1  0.24645407  0.73882226  0.77935186  1  -0.043747  8.3e-05  -0.023417  -0.018114  3.8e-05  4.060039  0.0
C  C113  1  0.05567469  0.73369619  0.79531762  1  0.372046  0.000246  0.082639  0.200429  0.000122  3.998598  0.0
C  C114  1  0.99809172  0.71479295  0.84971225  1  0.055266  7e-05  -0.094538  -0.167622  2.4e-05  3.992034  0.0
C  C115  1  0.13905222  0.70063440  0.88956152  1  -0.002635  0.000527  -0.083413  -0.132498  0.000205  3.950113  0.0
C  C116  1  0.32933125  0.70426201  0.87386934  1  0.319304  0.000553  0.081279  0.138159  0.000314  4.030283  0.0
C  C117  1  0.38590347  0.72282192  0.81895020  1  -0.012421  0.00044  -0.085764  -0.174999  0.000233  3.962358  0.0
C  C118  1  0.54079565  0.61798583  0.92682418  1  0.979429  0.002449  0.147531  0.108085  0.001517  3.857622  0.003
C  C119  1  0.71239540  0.71941340  0.97935643  1  0.474691  -0.00043  0.00035  -0.021031  -0.001113  4.006373  0.0
C  C120  1  0.58263379  0.75763715  0.94914979  1  0.249991  0.002931  -0.005742  -0.120019  0.001494  3.938462  0.002
C  C121  1  0.79602238  0.36432834  0.95724104  1  1.513736  -0.010673  0.212158  0.552846  -0.013841  4.176544  -0.01
C  C122  1  0.70548938  0.28117071  0.93050794  1  -0.014524  0.010316  -0.014709  -0.024765  0.005483  3.965565  0.008
C  C123  1  0.53015051  0.27576462  0.90175104  1  -0.034026  -0.002368  -0.076303  -0.076217  -0.002822  3.941629  -0.001
C  C124  1  0.45406401  0.19664132  0.87554281  1  0.023481  0.00166  -0.089997  -0.128502  0.000674  3.966732  0.001
C  C125  1  0.54860674  0.12162658  0.87911454  1  -0.085251  -0.004275  -0.019437  0.07741  -0.00456  3.967996  -0.003
C  C126  1  0.72073418  0.12741392  0.90990192  1  -0.101839  0.001589  -0.102477  -0.144513  0.00065  4.00611  0.001
C  C127  1  0.79869836  0.20626291  0.93444948  1  0.031922  -0.002685  -0.085303  -0.079192  -0.003033  3.96953  -0.002
C  C128  1  0.45511950  0.03573934  0.85241657  1  0.0335  -7.2e-05  -0.010716  -0.270749  -0.000326  3.85519  0.0
C  C129  1  0.35981621  0.03532516  0.79093353  1  -0.025776  -0.004618  -0.01731  0.083278  -0.004927  3.952263  -0.003
C  C130  1  0.13545152  0.01919079  0.61085933  1  1.555492  -0.011715  0.211212  0.551428  -0.015231  4.183893  -0.01
C  C131  1  0.21180119  0.02773339  0.67379187  1  -0.021463  0.010437  -0.017333  -0.033043  0.005537  3.974941  0.008
C  C132  1  0.10830031  0.99722918  0.71733643  1  -0.011543  -0.002839  -0.081136  -0.073  -0.003213  3.956718  -0.002
C  C133  1  0.18214812  0.00002510  0.77502545  1  -0.072071  0.001665  -0.100025  -0.142492  0.000671  3.985221  0.001
C  C134  1  0.46211424  0.06741919  0.74759033  1  -0.098737  0.001722  -0.092797  -0.128426  0.000701  3.96869  0.001
C  C135  1  0.38984173  0.06300457  0.68955737  1  0.023951  -0.002544  -0.081756  -0.087948  -0.002931  3.958995  -0.001
C  C136  1  0.31438717  0.01917202  0.90173277  1  1.711649  -0.000246  0.302107  0.674877  -0.000287  3.969239  0.0
C  C137  1  0.60090188  0.96145552  0.83929097  1  1.716334  -0.00027  0.304209  0.67533  -0.000312  3.961525  0.0
C  C138  1  0.24646188  0.76117769  0.72063600  1  0.008302  8.2e-05  -0.023533  -0.01863  3.8e-05  4.060546  0.0
C  C139  1  0.05568852  0.76630379  0.70466749  1  0.37157  0.000246  0.082669  0.200655  0.000122  3.998719  0.0
C  C140  1  0.99812383  0.78521227  0.65027107  1  0.026334  7.1e-05  -0.094429  -0.167577  2.4e-05  3.99207  0.0
C  C141  1  0.13909661  0.79937349  0.61042521  1  0.026103  0.000527  -0.083453  -0.132661  0.000205  3.950291  0.0
C  C142  1  0.32937246  0.79574450  0.62612346  1  0.319613  0.000552  0.081281  0.138335  0.000314  4.030492  0.0
C  C143  1  0.38592219  0.77718225  0.68104210  1  -0.011633  0.000439  -0.085683  -0.175006  0.000233  3.962431  0.0
C  C144  1  0.54085083  0.88202754  0.57318048  1  0.980668  0.002427  0.147477  0.108297  0.001501  3.85785  0.003
C  C145  1  0.71245797  0.78060695  0.52064729  1  0.474661  -0.000429  0.000195  -0.021189  -0.001111  4.006625  0.0
C  C146  1  0.58269080  0.74237777  0.55084838  1  0.250625  0.002922  -0.005702  -0.120315  0.001489  3.938747  0.002
C  C147  1  0.79615049  0.13569494  0.54275793  1  1.51437  -0.010659  0.2126  0.55389  -0.013827  4.175692  -0.01
C  C148  1  0.70558633  0.21883628  0.56949381  1  -0.015705  0.010315  -0.014579  -0.024916  0.005482  3.965659  0.008
C  C149  1  0.53023859  0.22422964  0.59825158  1  -0.034036  -0.002367  -0.076337  -0.076083  -0.00282  3.9411  -0.001
C  C150  1  0.45410961  0.30334635  0.62445751  1  0.023433  0.00166  -0.090162  -0.128935  0.000674  3.96717  0.001
C  C151  1  0.54862440  0.37836967  0.62088748  1  -0.085078  -0.004274  -0.019374  0.077631  -0.004559  3.967787  -0.003
C  C152  1  0.72075090  0.37259757  0.59010055  1  -0.101993  0.001588  -0.102506  -0.144653  0.00065  4.005818  0.001
C  C153  1  0.79874489  0.29375205  0.56555253  1  0.032751  -0.002686  -0.085402  -0.079315  -0.003036  3.969877  -0.002
C  C154  1  0.45510886  0.46425217  0.64758350  1  0.033558  -7.2e-05  -0.010844  -0.270871  -0.000325  3.855194  0.0
C  C155  1  0.35978616  0.46466039  0.70906172  1  -0.025468  -0.004614  -0.017261  0.083504  -0.004923  3.951682  -0.003
C  C156  1  0.13535373  0.48081505  0.88913308  1  1.554779  -0.011713  0.211078  0.551457  -0.015221  4.183805  -0.01
C  C157  1  0.21172550  0.47225617  0.82619989  1  -0.020715  0.010438  -0.017364  -0.033474  0.005537  3.975213  0.008
C  C158  1  0.10824414  0.50275432  0.78265382  1  -0.011805  -0.002839  -0.081017  -0.072894  -0.003213  3.957305  -0.002
C  C159  1  0.18211144  0.49995419  0.72496554  1  -0.07301  0.001663  -0.100167  -0.142454  0.00067  3.985395  0.001
C  C160  1  0.46206867  0.43256664  0.75240834  1  -0.09866  0.001722  -0.092653  -0.128394  0.000701  3.96826  0.001
C  C161  1  0.38977968  0.43698106  0.81043873  1  0.023384  -0.00254  -0.081832  -0.087886  -0.002926  3.958553  -0.001
C  C162  1  0.31439045  0.48080578  0.59825994  1  1.712111  -0.000246  0.302166  0.67478  -0.000286  3.969637  0.0
C  C163  1  0.60087684  0.53853891  0.66071574  1  1.716514  -0.00027  0.304209  0.675504  -0.000312  3.961949  0.0
N  N164  1  0.31420912  0.36731483  0.03507238  1  -1.244509  0.049083  -0.336318  -0.252045  0.027827  3.46473  0.038
N  N165  1  0.52659578  0.30743328  0.08407872  1  -1.257162  0.002772  -0.228857  -0.002988  0.00116  3.807489  0.002
N  N166  1  0.31428422  0.13270143  0.46493519  1  -1.245103  0.049102  -0.336294  -0.251782  0.027835  3.464822  0.038
N  N167  1  0.52664631  0.19258322  0.41592227  1  -1.257275  0.002782  -0.229002  -0.0035  0.001164  3.80767  0.002
N  N168  1  0.68582354  0.63263366  0.96491961  1  -1.246487  0.049174  -0.336843  -0.251609  0.027874  3.465938  0.038
N  N169  1  0.47348607  0.69250319  0.91590949  1  -1.255876  0.002801  -0.228705  -0.002748  0.001172  3.807189  0.002
N  N170  1  0.68589039  0.86738528  0.53508615  1  -1.246442  0.049124  -0.336551  -0.25153  0.027853  3.465456  0.038
N  N171  1  0.47353533  0.80750690  0.58408853  1  -1.25734  0.002789  -0.22881  -0.002894  0.001167  3.807624  0.002
O  O172  1  0.28734616  0.56670873  0.04538220  1  -1.112663  0.092754  -0.29328  -0.481556  0.048487  2.320077  0.08
O  O173  1  0.76806935  0.95071677  0.42739930  1  -1.120917  0.087294  -0.296409  -0.510453  0.045432  2.371889  0.077
O  O174  1  0.02043422  0.01970135  0.40182317  1  -1.131134  0.086489  -0.300014  -0.516074  0.04473  2.391897  0.078
O  O175  1  0.04248125  0.63897850  0.01842352  1  -1.14325  0.074991  -0.300797  -0.53993  0.038549  2.448974  0.071
O  O176  1  0.28736283  0.93332531  0.45462370  1  -1.1132  0.092769  -0.293268  -0.481318  0.048496  2.320425  0.08
O  O177  1  0.76800403  0.54926890  0.07259362  1  -1.121986  0.087249  -0.296459  -0.510678  0.04541  2.372705  0.077
O  O178  1  0.02036019  0.48030782  0.09820021  1  -1.131499  0.086555  -0.300202  -0.516113  0.044769  2.391522  0.078
O  O179  1  0.04259996  0.86103021  0.48159594  1  -1.142463  0.075144  -0.300825  -0.540061  0.038617  2.448817  0.071
O  O180  1  0.71276942  0.43329104  0.95462459  1  -1.123753  0.092752  -0.293491  -0.481845  0.048492  2.320043  0.08
O  O181  1  0.23207012  0.04929295  0.57255762  1  -1.123319  0.087271  -0.296449  -0.510661  0.045432  2.374118  0.077
O  O182  1  0.97977412  0.98030681  0.59817792  1  -1.131873  0.086582  -0.300306  -0.516416  0.044783  2.391122  0.078
O  O183  1  0.95755844  0.36099972  0.98160899  1  -1.142897  0.075223  -0.300905  -0.539954  0.038661  2.44876  0.071
O  O184  1  0.71283426  0.06674264  0.54538117  1  -1.123498  0.092767  -0.293784  -0.482492  0.0485  2.319204  0.08
O  O185  1  0.23203987  0.45069638  0.92741807  1  -1.122163  0.087306  -0.296292  -0.510462  0.045444  2.372708  0.077
O  O186  1  0.97971182  0.51970605  0.90183250  1  -1.132726  0.086464  -0.300379  -0.516652  0.044721  2.3917  0.078
O  O187  1  0.95767443  0.13899485  0.51838931  1  -1.143948  0.075092  -0.301106  -0.540541  0.038608  2.449161  0.071
O  O188  1  0.06205707  0.25000061  0.24999210  1  -1.065436  0.000179  -0.141076  -0.18504  8.5e-05  2.472882  0.0
O  O189  1  0.93806695  0.74999901  0.74999112  1  -1.065492  0.000179  -0.141066  -0.184959  8.5e-05  2.472233  0.0
F  F190  1  0.33048307  0.06034852  0.10944522  1  -0.613071  -3.7e-05  -0.097694  -0.210822  -3.5e-05  1.331705  0.0
F  F191  1  0.47408997  0.11008023  0.19555310  1  -0.630375  -5.6e-05  -0.087134  -0.2003  -4.8e-05  1.40932  0.0
F  F192  1  0.24765545  0.01815925  0.19193399  1  -0.623169  -2e-06  -0.082544  -0.191337  1e-06  1.363181  0.0
F  F193  1  0.75438576  0.06172994  0.10996525  1  -0.615475  -4.7e-05  -0.098105  -0.20631  -3.9e-05  1.322041  0.0
F  F194  1  0.60462404  0.96731923  0.04218790  1  -0.613493  -4.1e-05  -0.098809  -0.202807  -3.4e-05  1.359474  0.0
F  F195  1  0.83549936  0.92725854  0.09332010  1  -0.62448  -6e-06  -0.08712  -0.193909  -0.0  1.338908  0.0
F  F196  1  0.33042941  0.43963733  0.39055723  1  -0.61337  -3.7e-05  -0.097898  -0.211018  -3.5e-05  1.331664  0.0
F  F197  1  0.47402569  0.38990608  0.30445182  1  -0.629786  -5.6e-05  -0.087133  -0.200293  -4.8e-05  1.409294  0.0
F  F198  1  0.24761543  0.48184019  0.30807533  1  -0.623327  -2e-06  -0.082541  -0.191302  1e-06  1.363026  0.0
F  F199  1  0.75433910  0.43824196  0.39004429  1  -0.615275  -4.7e-05  -0.098081  -0.2063  -3.9e-05  1.322263  0.0
F  F200  1  0.60458343  0.53265160  0.45781750  1  -0.613717  -4.1e-05  -0.098862  -0.2028  -3.4e-05  1.359643  0.0
F  F201  1  0.83547316  0.57270914  0.40669189  1  -0.624551  -6e-06  -0.086977  -0.193613  -0.0  1.338786  0.0
F  F202  1  0.66898741  0.93960315  0.89060818  1  -0.612653  -3.7e-05  -0.097715  -0.210747  -3.5e-05  1.33179  0.0
F  F203  1  0.52533273  0.88990825  0.80450646  1  -0.630197  -5.6e-05  -0.086891  -0.19996  -4.8e-05  1.409203  0.0
F  F204  1  0.75207785  0.98168203  0.80809916  1  -0.6237  -2e-06  -0.082938  -0.191342  1e-06  1.361666  0.0
F  F205  1  0.24511424  0.93836940  0.89000000  1  -0.615921  -4.7e-05  -0.098086  -0.206061  -3.9e-05  1.322851  0.0
F  F206  1  0.39482958  0.03273214  0.95781819  1  -0.613396  -4.1e-05  -0.098871  -0.202831  -3.4e-05  1.359408  0.0
F  F207  1  0.16421006  0.07285483  0.90661372  1  -0.623961  -6e-06  -0.086482  -0.192781  -0.0  1.33944  0.0
F  F208  1  0.66897502  0.56039151  0.60939888  1  -0.612864  -3.7e-05  -0.097779  -0.210768  -3.5e-05  1.331842  0.0
F  F209  1  0.52530004  0.61008143  0.69550137  1  -0.630098  -5.6e-05  -0.086871  -0.200053  -4.8e-05  1.409286  0.0
F  F210  1  0.75205322  0.51831224  0.69190946  1  -0.623634  -2e-06  -0.082856  -0.191361  1e-06  1.361812  0.0
F  F211  1  0.24511030  0.56160571  0.60998815  1  -0.615918  -4.7e-05  -0.097938  -0.205944  -3.9e-05  1.323169  0.0
F  F212  1  0.39484771  0.46723570  0.54217714  1  -0.613644  -4.1e-05  -0.098937  -0.202792  -3.4e-05  1.359559  0.0
F  F213  1  0.16422500  0.42711609  0.59337812  1  -0.62407  -6e-06  -0.086561  -0.192824  -0.0  1.339461  0.0
