# generated using pymatgen
data_CdH18C18(N2O3)2
_symmetry_space_group_name_H-M   'P 1'
_cell_length_a   8.37366658
_cell_length_b   9.59529373
_cell_length_c   11.70757950
_cell_angle_alpha   90.00006279
_cell_angle_beta   89.99991914
_cell_angle_gamma   95.63204064
_symmetry_Int_Tables_number   1
_chemical_formula_structural   CdH18C18(N2O3)2
_chemical_formula_sum   'Cd2 H36 C36 N8 O12'
_cell_volume   936.13718494
_cell_formula_units_Z   2
loop_
 _symmetry_equiv_pos_site_id
 _symmetry_equiv_pos_as_xyz
  1  'x, y, z'
loop_
 _atom_site_type_symbol
 _atom_site_label
 _atom_site_symmetry_multiplicity
 _atom_site_fract_x
 _atom_site_fract_y
 _atom_site_fract_z
 _atom_site_occupancy
 _atom_site_hle17_bader_spin_density
 _atom_site_hle17_ddec_charge
 _atom_site_hle17_ddec_spin_density
 _atom_site_hle17_ddec_sum_bond_order
 _atom_site_hle17_magmom
 _atom_site_hse06_10hf_bader_spin_density
 _atom_site_hse06_10hf_ddec_charge
 _atom_site_hse06_10hf_ddec_spin_density
 _atom_site_hse06_10hf_ddec_sum_bond_order
 _atom_site_hse06_10hf_magmom
 _atom_site_hse06_bader_spin_density
 _atom_site_hse06_ddec_charge
 _atom_site_hse06_ddec_spin_density
 _atom_site_hse06_ddec_sum_bond_order
 _atom_site_hse06_magmom
 _atom_site_pbe_bader_spin_density
 _atom_site_pbe_cm5_charge
 _atom_site_pbe_ddec_charge
 _atom_site_pbe_ddec_spin_density
 _atom_site_pbe_ddec_sum_bond_order
 _atom_site_pbe_magmom
Cd  Cd0  1  0.00000000  0.00000000  0.00000000  1  0  1.143071  0  1.680146  0  0  0.960038  0  2.124291  0  0  1.011934  0  2.073419  0  0  0.768303  0.922377  0  2.160705  0
Cd  Cd1  1  0.50000038  0.00000000  0.49999977  1  0  1.143106  0  1.680092  0  0  0.960057  0  2.124247  0  0  1.011954  0  2.073375  0  0  0.768322  0.922391  0  2.160669  0
H  H2  1  0.13950056  0.87441144  0.73662825  1  0  0.104559  0  0.984115  0  0  0.111405  0  1.052717  0  0  0.114464  0  1.049029  0  0  0.133358  0.108971  0  1.055789  0
H  H3  1  0.36049937  0.12558819  0.23662949  1  0  0.10458  0  0.98409  0  0  0.111444  0  1.052665  0  0  0.1145  0  1.048978  0  0  0.133358  0.109004  0  1.055742  0
H  H4  1  0.86049898  0.12558791  0.26337088  1  0  0.104583  0  0.98408  0  0  0.11145  0  1.05265  0  0  0.114508  0  1.048961  0  0  0.13336  0.109012  0  1.055725  0
H  H5  1  0.63950159  0.87441326  0.76337050  1  0  0.104558  0  0.984065  0  0  0.111375  0  1.05269  0  0  0.114432  0  1.049003  0  0  0.133335  0.108939  0  1.055764  0
H  H6  1  0.15118640  0.73308860  0.47730728  1  0  0.094992  0  0.986908  0  0  0.105872  0  1.050245  0  0  0.107738  0  1.050206  0  0  0.10132  0.104753  0  1.049372  0
H  H7  1  0.34881178  0.26691027  0.97730699  1  0  0.09498  0  0.986942  0  0  0.105862  0  1.05027  0  0  0.107729  0  1.05023  0  0  0.101327  0.104742  0  1.049399  0
H  H8  1  0.84881326  0.26691180  0.52269270  1  0  0.094976  0  0.986937  0  0  0.105858  0  1.050272  0  0  0.107725  0  1.050231  0  0  0.101321  0.104737  0  1.049397  0
H  H9  1  0.65118634  0.73308699  0.02269299  1  0  0.095002  0  0.986919  0  0  0.105868  0  1.05027  0  0  0.107734  0  1.050231  0  0  0.101335  0.104747  0  1.049399  0
H  H10  1  0.30844610  0.52961768  0.69732953  1  0  0.085129  0  0.917773  0  0  0.100298  0  0.979311  0  0  0.101233  0  0.978923  0  0  0.113324  0.099644  0  0.979684  0
H  H11  1  0.19155140  0.47038085  0.19733040  1  0  0.085102  0  0.917763  0  0  0.100266  0  0.9793  0  0  0.101201  0  0.978914  0  0  0.113315  0.099612  0  0.979675  0
H  H12  1  0.69155225  0.47038167  0.30266960  1  0  0.085122  0  0.917778  0  0  0.100281  0  0.97932  0  0  0.101217  0  0.978933  0  0  0.113321  0.099628  0  0.979695  0
H  H13  1  0.80844695  0.52961849  0.80266959  1  0  0.085134  0  0.917759  0  0  0.10029  0  0.979301  0  0  0.101226  0  0.978914  0  0  0.11333  0.099639  0  0.979676  0
H  H14  1  0.30487502  0.69840378  0.63681839  1  0  0.091671  0  0.955935  0  0  0.102553  0  1.023939  0  0  0.103369  0  1.024371  0  0  0.11489  0.101718  0  1.024025  0
H  H15  1  0.19512497  0.30159469  0.13681995  1  0  0.09175  0  0.955989  0  0  0.102592  0  1.024013  0  0  0.103407  0  1.024448  0  0  0.114914  0.101754  0  1.024103  0
H  H16  1  0.69512452  0.30159557  0.36318075  1  0  0.091736  0  0.95591  0  0  0.102581  0  1.02394  0  0  0.103397  0  1.024372  0  0  0.114899  0.101746  0  1.024027  0
H  H17  1  0.80487326  0.69840361  0.86318089  1  0  0.091666  0  0.955929  0  0  0.102544  0  1.023928  0  0  0.10336  0  1.024359  0  0  0.114874  0.10171  0  1.024019  0
H  H18  1  0.06011152  0.66045204  0.04961855  1  0  0.104085  0  0.961316  0  0  0.114978  0  1.020264  0  0  0.117384  0  1.019124  0  0  0.115345  0.11323  0  1.021295  0
H  H19  1  0.43989005  0.33954842  0.54961909  1  0  0.104075  0  0.961373  0  0  0.114975  0  1.020322  0  0  0.117375  0  1.019178  0  0  0.115355  0.113228  0  1.021358  0
H  H20  1  0.93988944  0.33954941  0.95038058  1  0  0.10408  0  0.961364  0  0  0.114977  0  1.020319  0  0  0.117377  0  1.019176  0  0  0.115357  0.113227  0  1.021355  0
H  H21  1  0.56011079  0.66045198  0.45038090  1  0  0.104071  0  0.961328  0  0  0.114964  0  1.020278  0  0  0.11737  0  1.019137  0  0  0.115336  0.113213  0  1.021312  0
H  H22  1  0.17122622  0.47795174  0.88750638  1  0  0.113821  0  0.974174  0  0  0.123791  0  1.036704  0  0  0.126288  0  1.035668  0  0  0.120236  0.120941  0  1.039464  0
H  H23  1  0.32877462  0.52204808  0.38750630  1  0  0.113823  0  0.974207  0  0  0.123791  0  1.036737  0  0  0.126291  0  1.035693  0  0  0.120232  0.120941  0  1.039489  0
H  H24  1  0.82877462  0.52204867  0.11249361  1  0  0.113815  0  0.974173  0  0  0.123783  0  1.036703  0  0  0.126281  0  1.035664  0  0  0.120224  0.12093  0  1.039461  0
H  H25  1  0.67122503  0.47795232  0.61249369  1  0  0.11383  0  0.97418  0  0  0.123798  0  1.036707  0  0  0.126297  0  1.035666  0  0  0.120237  0.120945  0  1.039467  0
H  H26  1  0.95996561  0.64455395  0.32749363  1  0  0.097602  0  0.951636  0  0  0.109472  0  1.011588  0  0  0.112749  0  1.009527  0  0  0.101014  0.106721  0  1.013876  0
H  H27  1  0.54003343  0.35544520  0.82749373  1  0  0.097617  0  0.95162  0  0  0.109459  0  1.011603  0  0  0.112736  0  1.009543  0  0  0.10101  0.106705  0  1.013897  0
H  H28  1  0.04003393  0.35544540  0.67250550  1  0  0.097607  0  0.951621  0  0  0.109479  0  1.01157  0  0  0.112755  0  1.009509  0  0  0.101017  0.106723  0  1.013861  0
H  H29  1  0.45996480  0.64455310  0.17250625  1  0  0.097589  0  0.951644  0  0  0.109458  0  1.0116  0  0  0.112734  0  1.009539  0  0  0.101008  0.106701  0  1.013889  0
H  H30  1  0.02679098  0.11728344  0.77795845  1  0  0.414558  0  0.894149  0  0  0.379549  0  0.964467  0  0  0.391473  0  0.947285  0  0  0.279933  0.371122  0  0.976602  0
H  H31  1  0.47320898  0.88271729  0.27795855  1  0  0.414552  0  0.894161  0  0  0.379538  0  0.964486  0  0  0.391463  0  0.947303  0  0  0.279941  0.371114  0  0.976616  0
H  H32  1  0.97320987  0.88271696  0.22204239  1  0  0.414546  0  0.894164  0  0  0.379536  0  0.964483  0  0  0.391462  0  0.947298  0  0  0.279932  0.371112  0  0.976614  0
H  H33  1  0.52679067  0.11728311  0.72204229  1  0  0.414518  0  0.894207  0  0  0.379505  0  0.964528  0  0  0.39143  0  0.947346  0  0  0.279922  0.37108  0  0.976663  0
H  H34  1  0.20601903  0.12108701  0.82959329  1  0  0.410017  0  0.898691  0  0  0.375042  0  0.969713  0  0  0.386844  0  0.952568  0  0  0.279825  0.36664  0  0.981956  0
H  H35  1  0.29398072  0.87891273  0.32959357  1  0  0.410003  0  0.898712  0  0  0.375029  0  0.96973  0  0  0.386831  0  0.952585  0  0  0.279826  0.366628  0  0.981971  0
H  H36  1  0.79398182  0.87891339  0.17040755  1  0  0.410014  0  0.898696  0  0  0.375037  0  0.969721  0  0  0.38684  0  0.952576  0  0  0.279828  0.366635  0  0.981962  0
H  H37  1  0.70601882  0.12108662  0.67040727  1  0  0.410009  0  0.898699  0  0  0.375034  0  0.969721  0  0  0.386836  0  0.952576  0  0  0.27983  0.366637  0  0.981954  0
C  C38  1  0.45440268  0.03319911  0.92269008  1  0  0.179384  0  3.879032  0  0  0.153251  0  4.161605  0  0  0.16494  0  4.175656  0  0  0.090627  0.145838  0  4.149729  0
C  C39  1  0.04559907  0.96679866  0.42268642  1  0  0.179406  0  3.879321  0  0  0.153253  0  4.161926  0  0  0.164941  0  4.175985  0  0  0.090584  0.145828  0  4.150051  0
C  C40  1  0.54559806  0.96680025  0.07730905  1  0  0.179345  0  3.879062  0  0  0.153216  0  4.16163  0  0  0.164904  0  4.175681  0  0  0.09061  0.145797  0  4.149753  0
C  C41  1  0.95440178  0.03320174  0.57731442  1  0  0.179367  0  3.879282  0  0  0.153233  0  4.161865  0  0  0.164919  0  4.175923  0  0  0.090597  0.14581  0  4.149988  0
C  C42  1  0.38881750  0.00765515  0.03895235  1  0  0.183184  0  3.900213  0  0  0.160694  0  4.187087  0  0  0.173532  0  4.199898  0  0  0.088209  0.152332  0  4.176159  0
C  C43  1  0.11119126  0.99234533  0.53895723  1  0  0.183048  0  3.900436  0  0  0.160576  0  4.187298  0  0  0.17341  0  4.200116  0  0  0.088161  0.152212  0  4.176377  0
C  C44  1  0.61118454  0.99234526  0.96104678  1  0  0.183195  0  3.900235  0  0  0.160714  0  4.187086  0  0  0.173554  0  4.199898  0  0  0.088208  0.152353  0  4.176159  0
C  C45  1  0.88881197  0.00765508  0.46104447  1  0  0.183006  0  3.900472  0  0  0.160533  0  4.187346  0  0  0.173366  0  4.200164  0  0  0.088149  0.152183  0  4.176403  0
C  C46  1  0.12484779  0.79201664  0.80046635  1  0  0.165612  0  3.633519  0  0  0.103535  0  3.897676  0  0  0.117633  0  3.910218  0  0  0.139674  0.094208  0  3.889381  0
C  C47  1  0.37515321  0.20798307  0.30046679  1  0  0.165589  0  3.633558  0  0  0.103529  0  3.897704  0  0  0.117629  0  3.910246  0  0  0.139678  0.094207  0  3.889401  0
C  C48  1  0.87515306  0.20798376  0.19953364  1  0  0.165578  0  3.633548  0  0  0.103497  0  3.897688  0  0  0.117596  0  3.910231  0  0  0.13967  0.094171  0  3.889388  0
C  C49  1  0.62484763  0.79201733  0.69953319  1  0  0.165632  0  3.633577  0  0  0.103617  0  3.89774  0  0  0.117718  0  3.91028  0  0  0.139719  0.094287  0  3.889446  0
C  C50  1  0.08349490  0.63116962  0.48782183  1  0  -0.118067  0  3.757677  0  0  -0.1377  0  4.005146  0  0  -0.140963  0  4.029055  0  0  -0.093423  -0.135188  0  3.987399  0
C  C51  1  0.41650325  0.36882926  0.98782242  1  0  -0.118058  0  3.757734  0  0  -0.137682  0  4.005187  0  0  -0.140945  0  4.029094  0  0  -0.093455  -0.135166  0  3.987431  0
C  C52  1  0.91650344  0.36882973  0.51217730  1  0  -0.118067  0  3.757749  0  0  -0.137701  0  4.005209  0  0  -0.140963  0  4.029115  0  0  -0.093418  -0.135188  0  3.987458  0
C  C53  1  0.58349498  0.63116904  0.01217757  1  0  -0.118062  0  3.757683  0  0  -0.13768  0  4.00515  0  0  -0.140944  0  4.02906  0  0  -0.093408  -0.135171  0  3.987404  0
C  C54  1  0.22966244  0.60991436  0.67367997  1  0  -0.045264  0  3.639178  0  0  -0.11084  0  3.885656  0  0  -0.106296  0  3.895927  0  0  -0.047621  -0.113982  0  3.879003  0
C  C55  1  0.27033629  0.39008415  0.17368069  1  0  -0.045283  0  3.639237  0  0  -0.110788  0  3.885702  0  0  -0.106248  0  3.895983  0  0  -0.047628  -0.11393  0  3.879052  0
C  C56  1  0.77033710  0.39008499  0.32632001  1  0  -0.045293  0  3.639175  0  0  -0.110836  0  3.885655  0  0  -0.106295  0  3.895931  0  0  -0.047615  -0.113982  0  3.879012  0
C  C57  1  0.72966205  0.60991520  0.82631930  1  0  -0.045263  0  3.639169  0  0  -0.110789  0  3.885639  0  0  -0.106248  0  3.895918  0  0  -0.047611  -0.113933  0  3.878995  0
C  C58  1  0.09020062  0.67648194  0.96034565  1  0  -0.005201  0  3.768461  0  0  -0.037941  0  4.033219  0  0  -0.036553  0  4.054792  0  0  -0.007257  -0.038791  0  4.017825  0
C  C59  1  0.40980020  0.32351900  0.46034701  1  0  -0.005158  0  3.768545  0  0  -0.03791  0  4.033288  0  0  -0.036512  0  4.054849  0  0  -0.007278  -0.038771  0  4.017915  0
C  C60  1  0.90980034  0.32351951  0.03965348  1  0  -0.005119  0  3.768525  0  0  -0.037866  0  4.033274  0  0  -0.036467  0  4.054837  0  0  -0.007249  -0.038721  0  4.01789  0
C  C61  1  0.59020065  0.67648140  0.53965383  1  0  -0.005194  0  3.768471  0  0  -0.037936  0  4.033226  0  0  -0.036549  0  4.054799  0  0  -0.007264  -0.038789  0  4.017835  0
C  C62  1  0.14283868  0.58536626  0.88139075  1  0  -0.077726  0  3.694563  0  0  -0.118382  0  3.954182  0  0  -0.116985  0  3.974016  0  0  -0.003246  -0.118742  0  3.941023  0
C  C63  1  0.35716109  0.41463459  0.38139139  1  0  -0.077734  0  3.694588  0  0  -0.118352  0  3.95421  0  0  -0.116953  0  3.974041  0  0  -0.003237  -0.118707  0  3.941048  0
C  C64  1  0.85716097  0.41463414  0.11860839  1  0  -0.077714  0  3.694525  0  0  -0.118357  0  3.954134  0  0  -0.116961  0  3.973967  0  0  -0.003223  -0.118712  0  3.940977  0
C  C65  1  0.64283868  0.58536686  0.61860859  1  0  -0.077723  0  3.694588  0  0  -0.118345  0  3.954215  0  0  -0.116947  0  3.974049  0  0  -0.003238  -0.118698  0  3.941056  0
C  C66  1  0.97748818  0.57970290  0.40232289  1  0  -0.110319  0  3.741776  0  0  -0.130639  0  3.991231  0  0  -0.133105  0  4.01249  0  0  -0.091674  -0.129345  0  3.977004  0
C  C67  1  0.52251072  0.42029634  0.90232307  1  0  -0.110291  0  3.741788  0  0  -0.130587  0  3.991243  0  0  -0.133052  0  4.0125  0  0  -0.09163  -0.129297  0  3.977023  0
C  C68  1  0.02251136  0.42029645  0.59767624  1  0  -0.11033  0  3.741782  0  0  -0.130648  0  3.991244  0  0  -0.133113  0  4.012501  0  0  -0.091695  -0.12935  0  3.977015  0
C  C69  1  0.47748751  0.57970196  0.09767691  1  0  -0.110277  0  3.741788  0  0  -0.130592  0  3.99124  0  0  -0.133055  0  4.012497  0  0  -0.091665  -0.129293  0  3.977007  0
C  C70  1  0.10707792  0.55288864  0.58631951  1  0  0.062786  0  3.750062  0  0  0.081637  0  3.990644  0  0  0.080688  0  4.015318  0  0  -0.015783  0.082453  0  3.973916  0
C  C71  1  0.39292108  0.44711082  0.08632015  1  0  0.062708  0  3.750076  0  0  0.081553  0  3.990655  0  0  0.080605  0  4.015329  0  0  -0.015811  0.082375  0  3.973916  0
C  C72  1  0.89292173  0.44711176  0.41368048  1  0  0.062783  0  3.750055  0  0  0.081642  0  3.990613  0  0  0.080693  0  4.015288  0  0  -0.015791  0.08246  0  3.973884  0
C  C73  1  0.60707596  0.55288748  0.91367984  1  0  0.062743  0  3.750087  0  0  0.081591  0  3.990649  0  0  0.080643  0  4.015324  0  0  -0.015836  0.082411  0  3.973918  0
N  N74  1  0.07879529  0.80457323  0.90864758  1  0  -0.39914  0  3.265517  0  0  -0.320851  0  3.544291  0  0  -0.342609  0  3.562609  0  0  -0.359399  -0.305544  0  3.531572  0
N  N75  1  0.42120562  0.19542766  0.40864882  1  0  -0.399177  0  3.265542  0  0  -0.32087  0  3.544293  0  0  -0.342628  0  3.562606  0  0  -0.359415  -0.305566  0  3.531579  0
N  N76  1  0.92120567  0.19542822  0.09135241  1  0  -0.399211  0  3.265597  0  0  -0.32092  0  3.544371  0  0  -0.342678  0  3.562684  0  0  -0.35943  -0.305612  0  3.531648  0
N  N77  1  0.57879534  0.80457379  0.59135202  1  0  -0.399173  0  3.265554  0  0  -0.320889  0  3.544315  0  0  -0.342646  0  3.562629  0  0  -0.359424  -0.305579  0  3.531591  0
N  N78  1  0.16416034  0.66006042  0.78076280  1  0  -0.054106  0  3.552779  0  0  0.040013  0  3.772457  0  0  0.025312  0  3.797852  0  0  -0.241368  0.049831  0  3.754837  0
N  N79  1  0.33583939  0.33993822  0.28076340  1  0  -0.054114  0  3.552918  0  0  0.039914  0  3.77269  0  0  0.025212  0  3.798087  0  0  -0.241359  0.049731  0  3.755067  0
N  N80  1  0.83584040  0.33993894  0.21923719  1  0  -0.054123  0  3.552802  0  0  0.039982  0  3.772494  0  0  0.025281  0  3.797892  0  0  -0.241384  0.049797  0  3.754876  0
N  N81  1  0.66416026  0.66006218  0.71923744  1  0  -0.054077  0  3.552896  0  0  0.039952  0  3.772654  0  0  0.02525  0  3.798052  0  0  -0.241349  0.049767  0  3.755038  0
O  O82  1  0.09527736  0.14653641  0.84595285  1  0  -0.847539  0  1.837682  0  0  -0.785827  0  2.033548  0  0  -0.807525  0  1.997439  0  0  -0.597604  -0.770055  0  2.060087  0
O  O83  1  0.40472236  0.85346335  0.34595299  1  0  -0.847518  0  1.837706  0  0  -0.785795  0  2.03358  0  0  -0.807495  0  1.997472  0  0  -0.597615  -0.770025  0  2.060108  0
O  O84  1  0.90472337  0.85346295  0.15404714  1  0  -0.847507  0  1.837677  0  0  -0.785793  0  2.033549  0  0  -0.807494  0  1.99744  0  0  -0.597602  -0.770028  0  2.060091  0
O  O85  1  0.59527610  0.14653704  0.65404785  1  0  -0.847506  0  1.837727  0  0  -0.785787  0  2.033598  0  0  -0.807486  0  1.99749  0  0  -0.597604  -0.77001  0  2.06011  0
O  O86  1  0.25706017  0.01878088  0.08870395  1  0  -0.514789  0  2.103847  0  0  -0.458234  0  2.352154  0  0  -0.481039  0  2.346668  0  0  -0.315444  -0.442318  0  2.355461  0
O  O87  1  0.24293536  0.98121960  0.58870271  1  0  -0.514762  0  2.104261  0  0  -0.458197  0  2.35255  0  0  -0.481003  0  2.347077  0  0  -0.315443  -0.442283  0  2.355863  0
O  O88  1  0.74294176  0.98121848  0.91129518  1  0  -0.514814  0  2.103892  0  0  -0.458253  0  2.352191  0  0  -0.481048  0  2.346681  0  0  -0.315447  -0.442342  0  2.355503  0
O  O89  1  0.75706538  0.01877975  0.41129728  1  0  -0.514727  0  2.104236  0  0  -0.458164  0  2.352521  0  0  -0.480969  0  2.347047  0  0  -0.315413  -0.442246  0  2.355819  0
O  O90  1  0.40010643  0.07534370  0.82941807  1  0  -0.506753  0  2.120458  0  0  -0.441677  0  2.334278  0  0  -0.464528  0  2.330787  0  0  -0.289057  -0.425603  0  2.33608  0
O  O91  1  0.09989115  0.92465813  0.32942286  1  0  -0.50668  0  2.120935  0  0  -0.441617  0  2.334786  0  0  -0.464456  0  2.331276  0  0  -0.288992  -0.425532  0  2.336581  0
O  O92  1  0.59989453  0.92465775  0.17058191  1  0  -0.506753  0  2.120456  0  0  -0.44168  0  2.33427  0  0  -0.464532  0  2.330778  0  0  -0.289054  -0.425601  0  2.336067  0
O  O93  1  0.90010992  0.07534437  0.67057798  1  0  -0.506701  0  2.120837  0  0  -0.441633  0  2.334678  0  0  -0.464484  0  2.331192  0  0  -0.289041  -0.425551  0  2.336473  0
