# generated using pymatgen
data_ErH13(C4O3)4
_symmetry_space_group_name_H-M   'P 1'
_cell_length_a   8.80507951
_cell_length_b   9.68950281
_cell_length_c   12.15560469
_cell_angle_alpha   101.18101560
_cell_angle_beta   103.81513932
_cell_angle_gamma   108.47843512
_symmetry_Int_Tables_number   1
_chemical_formula_structural   ErH13(C4O3)4
_chemical_formula_sum   'Er2 H26 C32 O24'
_cell_volume   913.31822114
_cell_formula_units_Z   2
loop_
 _symmetry_equiv_pos_site_id
 _symmetry_equiv_pos_as_xyz
  1  'x, y, z'
loop_
 _atom_site_type_symbol
 _atom_site_label
 _atom_site_symmetry_multiplicity
 _atom_site_fract_x
 _atom_site_fract_y
 _atom_site_fract_z
 _atom_site_occupancy
 _atom_site_hle17_bader_spin_density
 _atom_site_hle17_ddec_charge
 _atom_site_hle17_ddec_spin_density
 _atom_site_hle17_ddec_sum_bond_order
 _atom_site_hle17_magmom
 _atom_site_hse06_10hf_bader_spin_density
 _atom_site_hse06_10hf_ddec_charge
 _atom_site_hse06_10hf_ddec_spin_density
 _atom_site_hse06_10hf_ddec_sum_bond_order
 _atom_site_hse06_10hf_magmom
 _atom_site_hse06_bader_spin_density
 _atom_site_hse06_ddec_charge
 _atom_site_hse06_ddec_spin_density
 _atom_site_hse06_ddec_sum_bond_order
 _atom_site_hse06_magmom
 _atom_site_pbe_bader_spin_density
 _atom_site_pbe_cm5_charge
 _atom_site_pbe_ddec_charge
 _atom_site_pbe_ddec_spin_density
 _atom_site_pbe_ddec_sum_bond_order
 _atom_site_pbe_magmom
Er  Er0  1  0.77341810  0.03794950  0.96247837  1  0  2.274836  0  1.590154  0  0  2.127326  0  2.063518  0  0  2.264831  0  1.858116  0  0  1.495053  2.090248  0  2.093446  0
Er  Er1  1  0.22658853  0.96205432  0.03752198  1  0  2.274802  0  1.590184  0  0  2.127271  0  2.063589  0  0  2.264806  0  1.858139  0  0  1.495052  2.090222  0  2.093489  0
H  H2  1  0.18248337  0.43122404  0.32239870  1  0  0.103429  0  0.956287  0  0  0.111247  0  1.022716  0  0  0.115893  0  1.018061  0  0  0.104236  0.107863  0  1.02611  0
H  H3  1  0.81751160  0.56877987  0.67759970  1  0  0.103438  0  0.95625  0  0  0.111231  0  1.02271  0  0  0.115882  0  1.018052  0  0  0.104226  0.107844  0  1.026107  0
H  H4  1  0.18798001  0.46012655  0.68232304  1  0  0.114001  0  0.989453  0  0  0.119229  0  1.060006  0  0  0.121466  0  1.060668  0  0  0.105019  0.11758  0  1.059702  0
H  H5  1  0.81201154  0.53986935  0.31767595  1  0  0.113941  0  0.989504  0  0  0.119207  0  1.060012  0  0  0.121444  0  1.060675  0  0  0.10501  0.117557  0  1.059711  0
H  H6  1  0.77936437  0.10660374  0.39042571  1  0  0.128742  0  0.926125  0  0  0.139303  0  0.984241  0  0  0.143891  0  0.980425  0  0  0.115356  0.136027  0  0.986746  0
H  H7  1  0.22063065  0.89339224  0.60956647  1  0  0.128776  0  0.926082  0  0  0.139333  0  0.984199  0  0  0.143928  0  0.980383  0  0  0.115376  0.13606  0  0.986701  0
H  H8  1  0.84376250  0.49084913  0.04713644  1  0  0.128532  0  0.929582  0  0  0.136667  0  0.990922  0  0  0.141627  0  0.986487  0  0  0.114158  0.133087  0  0.994114  0
H  H9  1  0.15624678  0.50915807  0.95286655  1  0  0.128447  0  0.929612  0  0  0.13662  0  0.990922  0  0  0.141577  0  0.98649  0  0  0.114126  0.133041  0  0.99412  0
H  H10  1  0.40188854  0.40490166  0.15666682  1  0  0.121946  0  0.941832  0  0  0.131577  0  1.004338  0  0  0.135688  0  1.000897  0  0  0.113754  0.128522  0  1.006951  0
H  H11  1  0.59811963  0.59509758  0.84333385  1  0  0.121963  0  0.941797  0  0  0.131585  0  1.004321  0  0  0.135711  0  1.000862  0  0  0.113779  0.128533  0  1.006925  0
H  H12  1  0.72473086  0.86700315  0.20251544  1  0  0.13286  0  0.970844  0  0  0.141658  0  1.031733  0  0  0.145812  0  1.029207  0  0  0.115181  0.138837  0  1.033353  0
H  H13  1  0.27527200  0.13299719  0.79749028  1  0  0.132927  0  0.970793  0  0  0.141708  0  1.031711  0  0  0.145861  0  1.029186  0  0  0.115206  0.138888  0  1.03333  0
H  H14  1  0.52436784  0.73219991  0.50701821  1  0  0.421063  0  0.772119  0  0  0.408266  0  0.819076  0  0  0.417654  0  0.809446  0  0  0.356646  0.40147  0  0.826216  0
H  H15  1  0.47564497  0.26778551  0.49298757  1  0  0.421072  0  0.772063  0  0  0.408283  0  0.819008  0  0  0.417667  0  0.809384  0  0  0.356653  0.401488  0  0.826153  0
H  H16  1  0.95224326  0.26646943  0.70036851  1  0  0.38512  0  0.849173  0  0  0.361654  0  0.921966  0  0  0.370149  0  0.912339  0  0  0.316633  0.355679  0  0.928615  0
H  H17  1  0.04774312  0.73352541  0.29962614  1  0  0.385145  0  0.849135  0  0  0.361688  0  0.921963  0  0  0.37018  0  0.912337  0  0  0.316625  0.35571  0  0.928618  0
H  H18  1  0.37311460  0.62542247  0.25726255  1  0  0.398453  0  0.809314  0  0  0.383109  0  0.862303  0  0  0.390848  0  0.853711  0  0  0.340257  0.37754  0  0.868553  0
H  H19  1  0.62689261  0.37457443  0.74274170  1  0  0.398495  0  0.809245  0  0  0.383147  0  0.862241  0  0  0.390884  0  0.853653  0  0  0.340246  0.377573  0  0.868492  0
H  H20  1  0.65057262  0.79805244  0.74395026  1  0  0.435281  0  0.861173  0  0  0.404614  0  0.925214  0  0  0.415489  0  0.909123  0  0  0.29793  0.396946  0  0.936704  0
H  H21  1  0.34942128  0.20194342  0.25605157  1  0  0.43527  0  0.861205  0  0  0.404618  0  0.925237  0  0  0.415495  0  0.909144  0  0  0.297913  0.396949  0  0.936731  0
H  H22  1  0.56206200  0.11490484  0.77878702  1  0  0.431011  0  0.858901  0  0  0.403586  0  0.915727  0  0  0.413467  0  0.901395  0  0  0.304148  0.396687  0  0.925896  0
H  H23  1  0.43793801  0.88509443  0.22121393  1  0  0.431022  0  0.858887  0  0  0.403608  0  0.915693  0  0  0.413484  0  0.901368  0  0  0.304155  0.396705  0  0.925869  0
H  H24  1  0.43917363  0.97133694  0.79848206  1  0  0.435468  0  0.862641  0  0  0.404373  0  0.92773  0  0  0.415079  0  0.912256  0  0  0.300282  0.396784  0  0.938912  0
H  H25  1  0.56082307  0.02866007  0.20151797  1  0  0.435439  0  0.862664  0  0  0.404339  0  0.927772  0  0  0.415039  0  0.912306  0  0  0.30025  0.396751  0  0.938953  0
H  H26  1  0.84086896  0.81204583  0.80892659  1  0  0.428095  0  0.879994  0  0  0.398017  0  0.943334  0  0  0.408498  0  0.928303  0  0  0.296492  0.390651  0  0.954107  0
H  H27  1  0.15912609  0.18795005  0.19107297  1  0  0.428115  0  0.879969  0  0  0.39803  0  0.94332  0  0  0.408518  0  0.928278  0  0  0.296482  0.390669  0  0.954087  0
C  C28  1  0.89789876  0.18497751  0.21322649  1  0  0.660182  0  3.879714  0  0  0.611653  0  4.164731  0  0  0.644778  0  4.164126  0  0  0.209685  0.588871  0  4.169353  0
C  C29  1  0.10209873  0.81502411  0.78677113  1  0  0.660151  0  3.879747  0  0  0.611552  0  4.164765  0  0  0.644681  0  4.164167  0  0  0.209629  0.588782  0  4.169364  0
C  C30  1  0.97449707  0.26095176  0.34342108  1  0  -0.040146  0  3.771262  0  0  -0.014997  0  4.010188  0  0  -0.02142  0  4.031063  0  0  -0.015201  -0.010627  0  3.995137  0
C  C31  1  0.02549710  0.73904760  0.65657479  1  0  -0.04031  0  3.7715  0  0  -0.014935  0  4.010142  0  0  -0.021358  0  4.031018  0  0  -0.015137  -0.010568  0  3.995084  0
C  C32  1  0.12628786  0.38811061  0.38538587  1  0  -0.085455  0  3.714423  0  0  -0.131463  0  3.974926  0  0  -0.129267  0  3.99258  0  0  -0.090158  -0.132529  0  3.962478  0
C  C33  1  0.87370545  0.61189219  0.61461043  1  0  -0.085455  0  3.714307  0  0  -0.131502  0  3.974757  0  0  -0.129311  0  3.992413  0  0  -0.090209  -0.132557  0  3.962288  0
C  C34  1  0.20249050  0.45864493  0.50725748  1  0  -0.065394  0  3.82142  0  0  -0.042043  0  4.063417  0  0  -0.050912  0  4.088832  0  0  -0.02265  -0.036552  0  4.046576  0
C  C35  1  0.79750018  0.54135444  0.49273945  1  0  -0.065287  0  3.821287  0  0  -0.042051  0  4.063235  0  0  -0.050927  0  4.088657  0  0  -0.022619  -0.036549  0  4.046385  0
C  C36  1  0.12734018  0.40287734  0.58767372  1  0  -0.189147  0  3.693301  0  0  -0.222347  0  3.941701  0  0  -0.224803  0  3.964076  0  0  -0.090355  -0.220377  0  3.92663  0
C  C37  1  0.87264866  0.59712318  0.41232309  1  0  -0.189072  0  3.693239  0  0  -0.222323  0  3.941565  0  0  -0.22478  0  3.963946  0  0  -0.090348  -0.220364  0  3.926509  0
C  C38  1  0.97444766  0.27580712  0.54510802  1  0  0.325337  0  3.831187  0  0  0.322332  0  4.09725  0  0  0.330454  0  4.114824  0  0  0.084475  0.316574  0  4.084465  0
C  C39  1  0.02554621  0.72418880  0.45488889  1  0  0.325183  0  3.831134  0  0  0.322335  0  4.096978  0  0  0.330461  0  4.114555  0  0  0.084505  0.316581  0  4.084201  0
C  C40  1  0.89842551  0.20503055  0.42272196  1  0  -0.146689  0  3.628593  0  0  -0.184324  0  3.878563  0  0  -0.185051  0  3.89442  0  0  -0.081619  -0.182889  0  3.866226  0
C  C41  1  0.10156732  0.79497109  0.57727489  1  0  -0.146581  0  3.628615  0  0  -0.184337  0  3.878479  0  0  -0.18507  0  3.894338  0  0  -0.081664  -0.182898  0  3.866136  0
C  C42  1  0.36303741  0.59398088  0.55404903  1  0  0.649587  0  3.793356  0  0  0.597749  0  4.097188  0  0  0.630641  0  4.088613  0  0  0.237214  0.575293  0  4.102674  0
C  C43  1  0.63695993  0.40602290  0.44595797  1  0  0.649191  0  3.793458  0  0  0.597756  0  4.096769  0  0  0.630653  0  4.088193  0  0  0.237091  0.575293  0  4.102274  0
C  C44  1  0.94441570  0.79635641  0.09927486  1  0  0.689643  0  3.869829  0  0  0.64511  0  4.153344  0  0  0.679859  0  4.151829  0  0  0.215589  0.621247  0  4.160204  0
C  C45  1  0.05558812  0.20364625  0.90072729  1  0  0.689464  0  3.870147  0  0  0.644948  0  4.153658  0  0  0.679688  0  4.152157  0  0  0.215516  0.621087  0  4.160501  0
C  C46  1  0.79932663  0.69069206  0.12292286  1  0  -0.057115  0  3.802313  0  0  -0.031258  0  4.040482  0  0  -0.036628  0  4.059204  0  0  -0.018219  -0.02746  0  4.027229  0
C  C47  1  0.20067417  0.30931180  0.87707651  1  0  -0.057058  0  3.802038  0  0  -0.031203  0  4.040229  0  0  -0.036568  0  4.058946  0  0  -0.018248  -0.027401  0  4.026969  0
C  C48  1  0.76401749  0.53458580  0.08746041  1  0  -0.109057  0  3.708208  0  0  -0.150009  0  3.963404  0  0  -0.148577  0  3.979056  0  0  -0.08813  -0.150699  0  3.952413  0
C  C49  1  0.23599394  0.46542366  0.91254413  1  0  -0.108886  0  3.708025  0  0  -0.149879  0  3.963236  0  0  -0.148445  0  3.978889  0  0  -0.088069  -0.150578  0  3.952261  0
C  C50  1  0.61889580  0.43228139  0.09818372  1  0  -0.04594  0  3.755052  0  0  -0.020496  0  3.986816  0  0  -0.027072  0  4.007572  0  0  -0.014539  -0.016082  0  3.971576  0
C  C51  1  0.38111300  0.56772465  0.90182146  1  0  -0.04589  0  3.75503  0  0  -0.020425  0  3.98681  0  0  -0.027004  0  4.00757  0  0  -0.014498  -0.016022  0  3.971578  0
C  C52  1  0.51493597  0.48628017  0.14988056  1  0  -0.179591  0  3.712615  0  0  -0.215274  0  3.968861  0  0  -0.216351  0  3.986191  0  0  -0.08854  -0.213784  0  3.956417  0
C  C53  1  0.48507104  0.51371908  0.85011992  1  0  -0.179679  0  3.712547  0  0  -0.215385  0  3.96882  0  0  -0.216481  0  3.986173  0  0  -0.08858  -0.213892  0  3.956361  0
C  C54  1  0.55787603  0.64294209  0.19180969  1  0  0.318231  0  3.814365  0  0  0.311108  0  4.086712  0  0  0.319016  0  4.103335  0  0  0.080283  0.305473  0  4.075372  0
C  C55  1  0.44212780  0.35706055  0.80819493  1  0  0.318416  0  3.814121  0  0  0.311327  0  4.086445  0  0  0.319229  0  4.103074  0  0  0.08034  0.30569  0  4.075096  0
C  C56  1  0.69724231  0.74547030  0.17589989  1  0  -0.170951  0  3.662105  0  0  -0.206576  0  3.913502  0  0  -0.207934  0  3.929582  0  0  -0.091327  -0.205983  0  3.902816  0
C  C57  1  0.30275589  0.25453005  0.82410670  1  0  -0.171129  0  3.662119  0  0  -0.206787  0  3.9136  0  0  -0.208143  0  3.929683  0  0  -0.091389  -0.206194  0  3.902894  0
C  C58  1  0.57610193  0.26460448  0.05165300  1  0  0.735094  0  3.844682  0  0  0.68829  0  4.131251  0  0  0.724988  0  4.123524  0  0  0.235499  0.664117  0  4.138242  0
C  C59  1  0.42390568  0.73540164  0.94834624  1  0  0.735105  0  3.844676  0  0  0.688274  0  4.131302  0  0  0.724982  0  4.123565  0  0  0.235504  0.664109  0  4.138277  0
O  O60  1  0.98378436  0.22642465  0.14536460  1  0  -0.69902  0  2.022697  0  0  -0.642616  0  2.250288  0  0  -0.676536  0  2.240749  0  0  -0.359664  -0.62488  0  2.255863  0
O  O61  1  0.01621915  0.77357463  0.85463447  1  0  -0.698992  0  2.022752  0  0  -0.642579  0  2.25036  0  0  -0.676512  0  2.240831  0  0  -0.359653  -0.624851  0  2.255924  0
O  O62  1  0.75217967  0.07809196  0.16979087  1  0  -0.685343  0  2.0791  0  0  -0.628388  0  2.313628  0  0  -0.662115  0  2.305834  0  0  -0.330324  -0.610642  0  2.318676  0
O  O63  1  0.24781917  0.92190733  0.83020907  1  0  -0.685323  0  2.079105  0  0  -0.628358  0  2.313635  0  0  -0.662092  0  2.30584  0  0  -0.330312  -0.610624  0  2.318675  0
O  O64  1  0.42206724  0.63941792  0.46804114  1  0  -0.548541  0  2.067966  0  0  -0.507508  0  2.281141  0  0  -0.526839  0  2.265388  0  0  -0.328591  -0.49393  0  2.291778  0
O  O65  1  0.57793985  0.36057327  0.53196297  1  0  -0.548498  0  2.068185  0  0  -0.507537  0  2.281197  0  0  -0.526862  0  2.265445  0  0  -0.328568  -0.49395  0  2.291829  0
O  O66  1  0.43869647  0.66072571  0.65969617  1  0  -0.528648  0  2.008199  0  0  -0.477531  0  2.226433  0  0  -0.498541  0  2.218831  0  0  -0.257694  -0.462996  0  2.231304  0
O  O67  1  0.56129073  0.33927364  0.34030347  1  0  -0.528265  0  2.007568  0  0  -0.477504  0  2.225822  0  0  -0.498524  0  2.218221  0  0  -0.257614  -0.462971  0  2.230706  0
O  O68  1  0.89063865  0.21547161  0.61587065  1  0  -0.498219  0  2.079974  0  0  -0.453147  0  2.273748  0  0  -0.4694  0  2.265134  0  0  -0.353025  -0.441346  0  2.278727  0
O  O69  1  0.10935074  0.78452208  0.38412350  1  0  -0.498193  0  2.079937  0  0  -0.453199  0  2.273599  0  0  -0.469461  0  2.264991  0  0  -0.353004  -0.441391  0  2.278588  0
O  O70  1  0.92764485  0.90161293  0.05364128  1  0  -0.78676  0  2.122188  0  0  -0.728485  0  2.377495  0  0  -0.774805  0  2.368605  0  0  -0.398352  -0.70911  0  2.382224  0
O  O71  1  0.07235798  0.09838749  0.94635869  1  0  -0.786698  0  2.122243  0  0  -0.728438  0  2.377558  0  0  -0.774755  0  2.368667  0  0  -0.398313  -0.709065  0  2.382276  0
O  O72  1  0.08378671  0.77735085  0.12243633  1  0  -0.673048  0  1.925587  0  0  -0.626183  0  2.1553  0  0  -0.658861  0  2.141903  0  0  -0.365884  -0.610015  0  2.162445  0
O  O73  1  0.91621992  0.22265299  0.87756237  1  0  -0.673034  0  1.92577  0  0  -0.626163  0  2.155446  0  0  -0.65884  0  2.142052  0  0  -0.36588  -0.609999  0  2.162594  0
O  O74  1  0.67604727  0.22591622  0.00501925  1  0  -0.742711  0  2.12364  0  0  -0.693891  0  2.387403  0  0  -0.732006  0  2.373074  0  0  -0.400196  -0.675965  0  2.394161  0
O  O75  1  0.32396221  0.77408867  0.99498586  1  0  -0.742641  0  2.123575  0  0  -0.693853  0  2.387384  0  0  -0.731978  0  2.373047  0  0  -0.400168  -0.675938  0  2.394137  0
O  O76  1  0.44392541  0.17255738  0.06114419  1  0  -0.755896  0  2.10954  0  0  -0.706277  0  2.385533  0  0  -0.745777  0  2.368458  0  0  -0.418893  -0.688068  0  2.393425  0
O  O77  1  0.55608693  0.82744070  0.93885617  1  0  -0.755989  0  2.109629  0  0  -0.706352  0  2.385654  0  0  -0.745863  0  2.36859  0  0  -0.418959  -0.688144  0  2.393543  0
O  O78  1  0.46506651  0.70463986  0.24721548  1  0  -0.513571  0  2.114623  0  0  -0.458172  0  2.311704  0  0  -0.474082  0  2.300914  0  0  -0.340222  -0.446453  0  2.318715  0
O  O79  1  0.53493487  0.29535710  0.75278697  1  0  -0.513696  0  2.114461  0  0  -0.45829  0  2.311533  0  0  -0.474198  0  2.300745  0  0  -0.340249  -0.446574  0  2.318537  0
O  O80  1  0.55115487  0.01386307  0.78757801  1  0  -0.880134  0  1.863348  0  0  -0.834568  0  2.046477  0  0  -0.862716  0  2.010228  0  0  -0.630272  -0.821091  0  2.06782  0
O  O81  1  0.44884234  0.98613503  0.21242639  1  0  -0.880112  0  1.863343  0  0  -0.834523  0  2.046404  0  0  -0.86266  0  2.010157  0  0  -0.630234  -0.821039  0  2.06774  0
O  O82  1  0.76652034  0.86912309  0.79209807  1  0  -0.915514  0  1.90544  0  0  -0.871249  0  2.096809  0  0  -0.900359  0  2.058792  0  0  -0.654007  -0.857969  0  2.118667  0
O  O83  1  0.23347703  0.13087281  0.20789942  1  0  -0.915595  0  1.905451  0  0  -0.871297  0  2.096752  0  0  -0.90041  0  2.058724  0  0  -0.653999  -0.858013  0  2.118603  0
