# generated using pymatgen
data_CdH18C14(NCl)2
_symmetry_space_group_name_H-M   'P 1'
_cell_length_a   3.84767108
_cell_length_b   14.00129368
_cell_length_c   14.00105095
_cell_angle_alpha   90.00056411
_cell_angle_beta   90.00052757
_cell_angle_gamma   90.00058121
_symmetry_Int_Tables_number   1
_chemical_formula_structural   CdH18C14(NCl)2
_chemical_formula_sum   'Cd2 H36 C28 N4 Cl4'
_cell_volume   754.26983699
_cell_formula_units_Z   2
loop_
 _symmetry_equiv_pos_site_id
 _symmetry_equiv_pos_as_xyz
  1  'x, y, z'
loop_
 _atom_site_type_symbol
 _atom_site_label
 _atom_site_symmetry_multiplicity
 _atom_site_fract_x
 _atom_site_fract_y
 _atom_site_fract_z
 _atom_site_occupancy
 _atom_site_hle17_bader_spin_density
 _atom_site_hle17_ddec_charge
 _atom_site_hle17_ddec_spin_density
 _atom_site_hle17_ddec_sum_bond_order
 _atom_site_hle17_magmom
 _atom_site_hse06_10hf_bader_spin_density
 _atom_site_hse06_10hf_ddec_charge
 _atom_site_hse06_10hf_ddec_spin_density
 _atom_site_hse06_10hf_ddec_sum_bond_order
 _atom_site_hse06_10hf_magmom
 _atom_site_hse06_bader_spin_density
 _atom_site_hse06_ddec_charge
 _atom_site_hse06_ddec_spin_density
 _atom_site_hse06_ddec_sum_bond_order
 _atom_site_hse06_magmom
 _atom_site_pbe_bader_spin_density
 _atom_site_pbe_cm5_charge
 _atom_site_pbe_ddec_charge
 _atom_site_pbe_ddec_spin_density
 _atom_site_pbe_ddec_sum_bond_order
 _atom_site_pbe_magmom
Cd  Cd0  1  0.49997899  0.49999880  0.00000026  1  0  0.930352  0  1.961017  0  0  0.760879  0  2.41511  0  0  0.807035  0  2.377026  0  0  0.600245  0.728421  0  2.441075  0
Cd  Cd1  1  0.50000400  0.00000032  0.50000098  1  0  0.93028  0  1.96102  0  0  0.760809  0  2.415101  0  0  0.806963  0  2.377025  0  0  0.60021  0.728351  0  2.441061  0
H  H2  1  0.72839128  0.52824901  0.21690156  1  0  0.075544  0  0.972349  0  0  0.083017  0  1.043696  0  0  0.08547  0  1.041538  0  0  0.099543  0.081141  0  1.045388  0
H  H3  1  0.72846954  0.47175559  0.78310735  1  0  0.075452  0  0.97243  0  0  0.082921  0  1.043805  0  0  0.085395  0  1.041591  0  0  0.099502  0.08104  0  1.045508  0
H  H4  1  0.27155757  0.21689338  0.47175387  1  0  0.075414  0  0.972615  0  0  0.082915  0  1.043927  0  0  0.085358  0  1.041778  0  0  0.099525  0.081041  0  1.045613  0
H  H5  1  0.27155310  0.78310491  0.52824813  1  0  0.07542  0  0.972721  0  0  0.082927  0  1.043994  0  0  0.085375  0  1.041839  0  0  0.099526  0.081055  0  1.045679  0
H  H6  1  0.72845610  0.02825339  0.28310842  1  0  0.075462  0  0.972549  0  0  0.082947  0  1.04388  0  0  0.085395  0  1.04172  0  0  0.099533  0.081073  0  1.045567  0
H  H7  1  0.72846710  0.97174263  0.71689479  1  0  0.07544  0  0.972549  0  0  0.082867  0  1.043949  0  0  0.085358  0  1.041734  0  0  0.099522  0.080999  0  1.045627  0
H  H8  1  0.27158286  0.71689142  0.02824462  1  0  0.075414  0  0.972787  0  0  0.082952  0  1.044026  0  0  0.085374  0  1.041895  0  0  0.099567  0.081077  0  1.045719  0
H  H9  1  0.27158500  0.28310687  0.97175023  1  0  0.075486  0  0.972709  0  0  0.083011  0  1.043966  0  0  0.085436  0  1.041832  0  0  0.099563  0.081139  0  1.045651  0
H  H10  1  0.49998190  0.81384920  0.31383539  1  0  0.108217  0  0.982052  0  0  0.118984  0  1.044678  0  0  0.121856  0  1.042635  0  0  0.089039  0.116778  0  1.046343  0
H  H11  1  0.50002594  0.18616117  0.68615935  1  0  0.108258  0  0.981822  0  0  0.118991  0  1.044528  0  0  0.121878  0  1.042461  0  0  0.089002  0.116784  0  1.046194  0
H  H12  1  0.49998642  0.31383620  0.18615680  1  0  0.108317  0  0.981599  0  0  0.119038  0  1.044344  0  0  0.121929  0  1.042284  0  0  0.089022  0.116832  0  1.046012  0
H  H13  1  0.50001882  0.68615417  0.81384151  1  0  0.108263  0  0.981572  0  0  0.118957  0  1.044368  0  0  0.121829  0  1.042338  0  0  0.088951  0.116749  0  1.046035  0
H  H14  1  0.55618308  0.62240252  0.42600539  1  0  0.100246  0  0.954906  0  0  0.123472  0  1.016574  0  0  0.124009  0  1.01712  0  0  0.088696  0.123053  0  1.016183  0
H  H15  1  0.55625381  0.37760230  0.57400022  1  0  0.100339  0  0.954972  0  0  0.123554  0  1.01662  0  0  0.124092  0  1.01716  0  0  0.088711  0.123134  0  1.016234  0
H  H16  1  0.44378609  0.42599098  0.37760576  1  0  0.100276  0  0.955057  0  0  0.123499  0  1.016718  0  0  0.124041  0  1.017254  0  0  0.088678  0.123078  0  1.01633  0
H  H17  1  0.44376671  0.57399994  0.62239240  1  0  0.100325  0  0.955048  0  0  0.123527  0  1.016708  0  0  0.124067  0  1.017247  0  0  0.088689  0.123107  0  1.01632  0
H  H18  1  0.55622038  0.12239485  0.07399864  1  0  0.10034  0  0.955063  0  0  0.123549  0  1.016733  0  0  0.124091  0  1.017273  0  0  0.088715  0.123129  0  1.016346  0
H  H19  1  0.55622950  0.87760283  0.92599911  1  0  0.100303  0  0.955193  0  0  0.123534  0  1.016826  0  0  0.124076  0  1.017365  0  0  0.088702  0.123112  0  1.01644  0
H  H20  1  0.44375723  0.92599495  0.12238881  1  0  0.100345  0  0.955255  0  0  0.123562  0  1.016878  0  0  0.124106  0  1.017411  0  0  0.088694  0.123141  0  1.016495  0
H  H21  1  0.44377478  0.07400383  0.87759935  1  0  0.100333  0  0.955158  0  0  0.12356  0  1.016785  0  0  0.124102  0  1.017324  0  0  0.088722  0.123136  0  1.016401  0
H  H22  1  0.89581054  0.70603091  0.40913751  1  0  0.114922  0  0.965703  0  0  0.133227  0  1.03352  0  0  0.134679  0  1.033102  0  0  0.087044  0.132081  0  1.033922  0
H  H23  1  0.89587620  0.29397631  0.59086684  1  0  0.114861  0  0.965797  0  0  0.133141  0  1.033624  0  0  0.134585  0  1.033203  0  0  0.087027  0.131995  0  1.034028  0
H  H24  1  0.10415822  0.40913093  0.29397865  1  0  0.114826  0  0.965917  0  0  0.133154  0  1.033661  0  0  0.134591  0  1.033264  0  0  0.087013  0.132009  0  1.034064  0
H  H25  1  0.10416292  0.59086902  0.70601933  1  0  0.114831  0  0.966007  0  0  0.133173  0  1.033722  0  0  0.13461  0  1.033329  0  0  0.087013  0.132028  0  1.034123  0
H  H26  1  0.89583799  0.20601912  0.09086609  1  0  0.114807  0  0.966017  0  0  0.133149  0  1.033749  0  0  0.134588  0  1.033355  0  0  0.087007  0.132004  0  1.034152  0
H  H27  1  0.89584615  0.79398024  0.90913827  1  0  0.114965  0  0.96581  0  0  0.133252  0  1.033615  0  0  0.134695  0  1.033214  0  0  0.087068  0.132107  0  1.034017  0
H  H28  1  0.10414244  0.90913358  0.20601343  1  0  0.114885  0  0.96602  0  0  0.133221  0  1.033734  0  0  0.134661  0  1.033335  0  0  0.087081  0.132075  0  1.03414  0
H  H29  1  0.10417091  0.09086852  0.79397455  1  0  0.114973  0  0.96583  0  0  0.133234  0  1.033652  0  0  0.134671  0  1.033265  0  0  0.087054  0.132088  0  1.034054  0
H  H30  1  0.95301121  0.58419993  0.37394392  1  0  0.102189  0  0.961015  0  0  0.125276  0  1.020707  0  0  0.12641  0  1.020977  0  0  0.088972  0.124416  0  1.020547  0
H  H31  1  0.95307980  0.41580745  0.62606416  1  0  0.1023  0  0.961099  0  0  0.125304  0  1.020955  0  0  0.126415  0  1.021253  0  0  0.088967  0.124458  0  1.020777  0
H  H32  1  0.04695351  0.37393899  0.41581212  1  0  0.102263  0  0.961148  0  0  0.125277  0  1.020977  0  0  0.126397  0  1.021264  0  0  0.088956  0.124416  0  1.020816  0
H  H33  1  0.04696077  0.62605938  0.58418786  1  0  0.102321  0  0.961129  0  0  0.125315  0  1.020967  0  0  0.126438  0  1.02125  0  0  0.088966  0.124455  0  1.020805  0
H  H34  1  0.95303979  0.08419420  0.12605935  1  0  0.102285  0  0.961178  0  0  0.125311  0  1.020985  0  0  0.12645  0  1.021251  0  0  0.088973  0.124452  0  1.02082  0
H  H35  1  0.95304342  0.91580389  0.87394444  1  0  0.102264  0  0.961254  0  0  0.125324  0  1.021007  0  0  0.126462  0  1.021273  0  0  0.088988  0.124463  0  1.020849  0
H  H36  1  0.04694681  0.87393972  0.08418519  1  0  0.102301  0  0.961237  0  0  0.12529  0  1.021091  0  0  0.126404  0  1.021387  0  0  0.088994  0.124448  0  1.020906  0
H  H37  1  0.04696487  0.12605793  0.91580408  1  0  0.102331  0  0.961187  0  0  0.125382  0  1.020928  0  0  0.126522  0  1.021192  0  0  0.088995  0.12452  0  1.02077  0
C  C38  1  0.62439964  0.60007217  0.20662612  1  0  0.051356  0  3.692684  0  0  0.008684  0  3.946738  0  0  0.014112  0  3.966041  0  0  0.032086  0.005265  0  3.933634  0
C  C39  1  0.62446523  0.39993213  0.79338323  1  0  0.051598  0  3.692393  0  0  0.008878  0  3.946399  0  0  0.014313  0  3.965713  0  0  0.03212  0.005458  0  3.933286  0
C  C40  1  0.37551782  0.20661698  0.39993649  1  0  0.051491  0  3.692948  0  0  0.00874  0  3.946965  0  0  0.014174  0  3.966266  0  0  0.031997  0.005322  0  3.933858  0
C  C41  1  0.37554462  0.79337946  0.60006078  1  0  0.05146  0  3.692995  0  0  0.008745  0  3.946976  0  0  0.014176  0  3.96628  0  0  0.032045  0.005328  0  3.933868  0
C  C42  1  0.62445699  0.10006523  0.29338215  1  0  0.051559  0  3.692965  0  0  0.00886  0  3.946947  0  0  0.014297  0  3.966243  0  0  0.032127  0.00544  0  3.933844  0
C  C43  1  0.62447806  0.89993192  0.70661935  1  0  0.051667  0  3.69287  0  0  0.009001  0  3.946882  0  0  0.014404  0  3.96618  0  0  0.032093  0.005582  0  3.93378  0
C  C44  1  0.37550643  0.70662073  0.10006003  1  0  0.05145  0  3.693108  0  0  0.008685  0  3.94708  0  0  0.014137  0  3.966395  0  0  0.031898  0.005268  0  3.933977  0
C  C45  1  0.37554562  0.29337786  0.89993867  1  0  0.05146  0  3.69314  0  0  0.008712  0  3.947121  0  0  0.014161  0  3.966438  0  0  0.032015  0.005293  0  3.934014  0
C  C46  1  0.62928291  0.66784913  0.27984382  1  0  0.104358  0  3.756561  0  0  0.137668  0  3.991773  0  0  0.134109  0  4.017966  0  0  -0.005607  0.139735  0  3.974122  0
C  C47  1  0.62935670  0.33215661  0.72016412  1  0  0.104194  0  3.756364  0  0  0.137634  0  3.991383  0  0  0.134069  0  4.017578  0  0  -0.005578  0.139701  0  3.973731  0
C  C48  1  0.37067097  0.27982559  0.33216265  1  0  0.104069  0  3.756442  0  0  0.137584  0  3.991372  0  0  0.134024  0  4.017566  0  0  -0.005613  0.139652  0  3.973721  0
C  C49  1  0.37071030  0.72016655  0.66783247  1  0  0.104233  0  3.756227  0  0  0.137722  0  3.991179  0  0  0.134162  0  4.017368  0  0  -0.005542  0.139791  0  3.973524  0
C  C50  1  0.62930412  0.16783504  0.22016870  1  0  0.104237  0  3.756144  0  0  0.13768  0  3.991166  0  0  0.134119  0  4.017364  0  0  -0.005586  0.139747  0  3.973519  0
C  C51  1  0.62933030  0.83216427  0.77983281  1  0  0.104094  0  3.75627  0  0  0.137522  0  3.991328  0  0  0.133958  0  4.017529  0  0  -0.005589  0.13959  0  3.973679  0
C  C52  1  0.37070334  0.77982858  0.16783316  1  0  0.104081  0  3.756042  0  0  0.137641  0  3.990883  0  0  0.134082  0  4.017063  0  0  -0.00559  0.139709  0  3.973238  0
C  C53  1  0.37072471  0.22017285  0.83216196  1  0  0.104193  0  3.756114  0  0  0.137677  0  3.991077  0  0  0.134114  0  4.01727  0  0  -0.005608  0.139745  0  3.973422  0
C  C54  1  0.49996443  0.75878830  0.25879640  1  0  -0.116837  0  3.627869  0  0  -0.146998  0  3.858551  0  0  -0.146854  0  3.878323  0  0  -0.073177  -0.146758  0  3.845283  0
C  C55  1  0.50001482  0.24121421  0.74120478  1  0  -0.116774  0  3.627556  0  0  -0.146918  0  3.858239  0  0  -0.146782  0  3.878007  0  0  -0.073114  -0.146678  0  3.844971  0
C  C56  1  0.49997852  0.25878370  0.24121025  1  0  -0.116754  0  3.627236  0  0  -0.14692  0  3.85794  0  0  -0.146794  0  3.877695  0  0  -0.073096  -0.146682  0  3.844678  0
C  C57  1  0.50001893  0.74121096  0.75878735  1  0  -0.116716  0  3.627247  0  0  -0.146858  0  3.857999  0  0  -0.14672  0  3.877758  0  0  -0.073056  -0.146619  0  3.844731  0
C  C58  1  0.76734938  0.64363776  0.37728586  1  0  -0.337573  0  3.73712  0  0  -0.419062  0  3.968815  0  0  -0.420987  0  3.979709  0  0  -0.240491  -0.417395  0  3.961372  0
C  C59  1  0.76742091  0.35637123  0.62271316  1  0  -0.337672  0  3.737127  0  0  -0.419117  0  3.968779  0  0  -0.421016  0  3.979689  0  0  -0.240512  -0.417462  0  3.961325  0
C  C60  1  0.23261038  0.37728365  0.35637613  1  0  -0.337531  0  3.737121  0  0  -0.419037  0  3.968745  0  0  -0.420946  0  3.979638  0  0  -0.240455  -0.417367  0  3.961304  0
C  C61  1  0.23260903  0.62271167  0.64362363  1  0  -0.337762  0  3.737246  0  0  -0.419201  0  3.968827  0  0  -0.421116  0  3.979726  0  0  -0.240529  -0.417531  0  3.961382  0
C  C62  1  0.76738305  0.14362485  0.12270893  1  0  -0.337694  0  3.737209  0  0  -0.419188  0  3.968816  0  0  -0.421119  0  3.979702  0  0  -0.240536  -0.417519  0  3.961379  0
C  C63  1  0.76739504  0.85637342  0.87729508  1  0  -0.337759  0  3.73722  0  0  -0.419254  0  3.968863  0  0  -0.421183  0  3.979745  0  0  -0.240617  -0.417585  0  3.961429  0
C  C64  1  0.23258479  0.87729497  0.14361884  1  0  -0.33765  0  3.737143  0  0  -0.419149  0  3.968714  0  0  -0.421055  0  3.979612  0  0  -0.240569  -0.417496  0  3.961271  0
C  C65  1  0.23262162  0.12271107  0.85637162  1  0  -0.337892  0  3.737168  0  0  -0.419347  0  3.968758  0  0  -0.421279  0  3.979643  0  0  -0.240621  -0.417675  0  3.961325  0
N  N66  1  0.49999345  0.61908266  0.11908048  1  0  -0.31291  0  3.346988  0  0  -0.232306  0  3.613552  0  0  -0.252689  0  3.637814  0  0  -0.334327  -0.218433  0  3.59674  0
N  N67  1  0.50001439  0.38091556  0.88092355  1  0  -0.313074  0  3.346951  0  0  -0.23246  0  3.613556  0  0  -0.252849  0  3.637821  0  0  -0.334419  -0.218588  0  3.596744  0
N  N68  1  0.50000163  0.11908158  0.38091836  1  0  -0.313011  0  3.34708  0  0  -0.232402  0  3.61364  0  0  -0.252784  0  3.63791  0  0  -0.33442  -0.218527  0  3.596823  0
N  N69  1  0.50001660  0.88091522  0.61908209  1  0  -0.312978  0  3.346951  0  0  -0.232386  0  3.613571  0  0  -0.252767  0  3.637843  0  0  -0.334385  -0.218519  0  3.596769  0
Cl  Cl70  1  0.99998256  0.40641862  0.09358558  1  0  -0.565562  0  1.021899  0  0  -0.504643  0  1.308948  0  0  -0.521367  0  1.288222  0  0  -0.281986  -0.492354  0  1.323172  0
Cl  Cl71  1  0.99998341  0.59358032  0.90641691  1  0  -0.565513  0  1.02192  0  0  -0.504565  0  1.308945  0  0  -0.521309  0  1.288253  0  0  -0.281938  -0.492274  0  1.323168  0
Cl  Cl72  1  0.00001123  0.09357999  0.59358804  1  0  -0.565513  0  1.021921  0  0  -0.504568  0  1.30895  0  0  -0.521306  0  1.288234  0  0  -0.281952  -0.492281  0  1.32317  0
Cl  Cl73  1  0.00000209  0.90641896  0.40641538  1  0  -0.565481  0  1.021886  0  0  -0.504555  0  1.308921  0  0  -0.5213  0  1.288229  0  0  -0.281942  -0.492268  0  1.323142  0
