# generated using pymatgen
data_CdH8(C2O3)2
_symmetry_space_group_name_H-M   'P 1'
_cell_length_a   7.69858276
_cell_length_b   7.96337239
_cell_length_c   12.20235194
_cell_angle_alpha   90.00009209
_cell_angle_beta   90.00064990
_cell_angle_gamma   91.11024750
_symmetry_Int_Tables_number   1
_chemical_formula_structural   CdH8(C2O3)2
_chemical_formula_sum   'Cd4 H32 C16 O24'
_cell_volume   747.94525907
_cell_formula_units_Z   4
loop_
 _symmetry_equiv_pos_site_id
 _symmetry_equiv_pos_as_xyz
  1  'x, y, z'
loop_
 _atom_site_type_symbol
 _atom_site_label
 _atom_site_symmetry_multiplicity
 _atom_site_fract_x
 _atom_site_fract_y
 _atom_site_fract_z
 _atom_site_occupancy
 _atom_site_hle17_bader_spin_density
 _atom_site_hle17_ddec_charge
 _atom_site_hle17_ddec_spin_density
 _atom_site_hle17_ddec_sum_bond_order
 _atom_site_hle17_magmom
 _atom_site_hse06_10hf_bader_spin_density
 _atom_site_hse06_10hf_ddec_charge
 _atom_site_hse06_10hf_ddec_spin_density
 _atom_site_hse06_10hf_ddec_sum_bond_order
 _atom_site_hse06_10hf_magmom
 _atom_site_hse06_bader_spin_density
 _atom_site_hse06_ddec_charge
 _atom_site_hse06_ddec_spin_density
 _atom_site_hse06_ddec_sum_bond_order
 _atom_site_hse06_magmom
 _atom_site_pbe_bader_spin_density
 _atom_site_pbe_cm5_charge
 _atom_site_pbe_ddec_charge
 _atom_site_pbe_ddec_spin_density
 _atom_site_pbe_ddec_sum_bond_order
 _atom_site_pbe_magmom
Cd  Cd0  1  0.82227222  0.91939119  0.41340323  1  0  1.248996  0  1.56898  0  0  1.069071  0  2.011316  0  0  1.130177  0  1.949997  0  0  0.767148  1.025187  0  2.053605  0
Cd  Cd1  1  0.17772931  0.58060956  0.91341009  1  0  1.248938  0  1.569021  0  0  1.069041  0  2.011343  0  0  1.130145  0  1.950031  0  0  0.767095  1.025152  0  2.053623  0
Cd  Cd2  1  0.17772759  0.08060913  0.58659415  1  0  1.248955  0  1.569015  0  0  1.069018  0  2.011346  0  0  1.130127  0  1.950027  0  0  0.767118  1.02514  0  2.053618  0
Cd  Cd3  1  0.82226797  0.41939210  0.08659467  1  0  1.248942  0  1.568971  0  0  1.069053  0  2.011276  0  0  1.130158  0  1.949962  0  0  0.767125  1.025155  0  2.053579  0
H  H4  1  0.35790346  0.52559001  0.38302443  1  0  0.119275  0  0.909497  0  0  0.137412  0  0.961857  0  0  0.139847  0  0.960733  0  0  0.10977  0.135603  0  0.962848  0
H  H5  1  0.64209576  0.97440191  0.88301945  1  0  0.119312  0  0.909576  0  0  0.137479  0  0.96191  0  0  0.139914  0  0.960785  0  0  0.109762  0.135668  0  0.962905  0
H  H6  1  0.64209641  0.47441157  0.61697786  1  0  0.1193  0  0.909517  0  0  0.137403  0  0.96189  0  0  0.139836  0  0.960769  0  0  0.109765  0.135598  0  0.962877  0
H  H7  1  0.35791177  0.02559692  0.11697465  1  0  0.119349  0  0.909511  0  0  0.137491  0  0.96184  0  0  0.139926  0  0.960718  0  0  0.109779  0.135682  0  0.96283  0
H  H8  1  0.24247091  0.71283655  0.38469920  1  0  0.102545  0  0.970029  0  0  0.116673  0  1.034582  0  0  0.118768  0  1.034171  0  0  0.105262  0.115122  0  1.035024  0
H  H9  1  0.75752548  0.78715043  0.88468503  1  0  0.102607  0  0.970039  0  0  0.116724  0  1.034631  0  0  0.118818  0  1.034222  0  0  0.105268  0.115175  0  1.035064  0
H  H10  1  0.75752637  0.28716511  0.61530473  1  0  0.102599  0  0.970082  0  0  0.116705  0  1.034619  0  0  0.118799  0  1.03421  0  0  0.105247  0.115157  0  1.035058  0
H  H11  1  0.24248074  0.21284844  0.11530908  1  0  0.102587  0  0.970097  0  0  0.116705  0  1.034653  0  0  0.118799  0  1.034246  0  0  0.105273  0.115155  0  1.035087  0
H  H12  1  0.40913169  0.56200804  0.17825919  1  0  0.108341  0  0.940921  0  0  0.122414  0  1.003366  0  0  0.124566  0  1.002724  0  0  0.1031  0.120871  0  1.003914  0
H  H13  1  0.59085276  0.93799495  0.67825053  1  0  0.108439  0  0.940843  0  0  0.122495  0  1.003243  0  0  0.124649  0  1.0026  0  0  0.103115  0.12095  0  1.003791  0
H  H14  1  0.59086019  0.43799002  0.82174474  1  0  0.108335  0  0.940857  0  0  0.122402  0  1.003245  0  0  0.124553  0  1.002603  0  0  0.10305  0.120861  0  1.003797  0
H  H15  1  0.40914562  0.06200290  0.32174439  1  0  0.108367  0  0.940795  0  0  0.122435  0  1.003219  0  0  0.124588  0  1.002576  0  0  0.103093  0.120893  0  1.003769  0
H  H16  1  0.30710038  0.75525090  0.18129768  1  0  0.114891  0  0.917239  0  0  0.13321  0  0.972029  0  0  0.134874  0  0.972027  0  0  0.108409  0.132006  0  0.972133  0
H  H17  1  0.69289191  0.74475186  0.68128710  1  0  0.114888  0  0.91718  0  0  0.13318  0  0.971971  0  0  0.134846  0  0.971965  0  0  0.108377  0.131974  0  0.972081  0
H  H18  1  0.69289683  0.24474950  0.81870216  1  0  0.11489  0  0.917251  0  0  0.133183  0  0.972036  0  0  0.134846  0  0.972036  0  0  0.10841  0.131984  0  0.972144  0
H  H19  1  0.30710510  0.25524478  0.31870700  1  0  0.114945  0  0.917191  0  0  0.133222  0  0.972014  0  0  0.134886  0  0.972013  0  0  0.108427  0.132024  0  0.972123  0
H  H20  1  0.03478334  0.67889208  0.51062334  1  0  0.430299  0  0.834843  0  0  0.403578  0  0.905385  0  0  0.413093  0  0.894148  0  0  0.303101  0.396732  0  0.913214  0
H  H21  1  0.96521912  0.82111481  0.01061495  1  0  0.430255  0  0.835025  0  0  0.403538  0  0.905557  0  0  0.413054  0  0.894228  0  0  0.303089  0.396687  0  0.913392  0
H  H22  1  0.96521796  0.32111197  0.48937731  1  0  0.430284  0  0.83495  0  0  0.403572  0  0.905472  0  0  0.413086  0  0.894178  0  0  0.303105  0.396725  0  0.913302  0
H  H23  1  0.03478172  0.17888045  0.98938571  1  0  0.430277  0  0.835014  0  0  0.403561  0  0.90554  0  0  0.413078  0  0.894197  0  0  0.303101  0.39671  0  0.913375  0
H  H24  1  0.97755423  0.60300467  0.39538824  1  0  0.430305  0  0.872001  0  0  0.397075  0  0.939531  0  0  0.408586  0  0.922784  0  0  0.288453  0.388877  0  0.951445  0
H  H25  1  0.02244431  0.89699486  0.89538038  1  0  0.430427  0  0.871836  0  0  0.397181  0  0.939398  0  0  0.408695  0  0.922646  0  0  0.288515  0.388982  0  0.951314  0
H  H26  1  0.02244571  0.39699817  0.60461159  1  0  0.430379  0  0.871912  0  0  0.397122  0  0.939493  0  0  0.408637  0  0.922737  0  0  0.288467  0.388924  0  0.951409  0
H  H27  1  0.97755399  0.10300174  0.10462191  1  0  0.430412  0  0.87186  0  0  0.397149  0  0.939455  0  0  0.408666  0  0.922697  0  0  0.288483  0.388951  0  0.951369  0
H  H28  1  0.63418792  0.20680102  0.45256595  1  0  0.417958  0  0.894188  0  0  0.384748  0  0.9621  0  0  0.396553  0  0.945248  0  0  0.282897  0.376381  0  0.974022  0
H  H29  1  0.36582200  0.29320102  0.95256700  1  0  0.418039  0  0.894063  0  0  0.384802  0  0.962037  0  0  0.396612  0  0.945176  0  0  0.282913  0.376435  0  0.973954  0
H  H30  1  0.36581584  0.79320044  0.54743307  1  0  0.418037  0  0.89408  0  0  0.384791  0  0.962061  0  0  0.3966  0  0.945205  0  0  0.282908  0.376423  0  0.973979  0
H  H31  1  0.63418183  0.70680170  0.04743365  1  0  0.41808  0  0.894017  0  0  0.384823  0  0.962027  0  0  0.396632  0  0.945168  0  0  0.282915  0.376456  0  0.973944  0
H  H32  1  0.70248559  0.22821641  0.33030371  1  0  0.435157  0  0.862557  0  0  0.402636  0  0.928234  0  0  0.414001  0  0.911791  0  0  0.290686  0.394575  0  0.939866  0
H  H33  1  0.29751365  0.27179685  0.83030179  1  0  0.435118  0  0.862608  0  0  0.402606  0  0.928268  0  0  0.413971  0  0.911827  0  0  0.290665  0.394542  0  0.939907  0
H  H34  1  0.29751182  0.77178776  0.66969613  1  0  0.43513  0  0.862592  0  0  0.402622  0  0.92825  0  0  0.413988  0  0.911806  0  0  0.29066  0.394559  0  0.939885  0
H  H35  1  0.70248525  0.72821104  0.16969804  1  0  0.435118  0  0.862594  0  0  0.4026  0  0.928264  0  0  0.413965  0  0.911822  0  0  0.290657  0.394539  0  0.939898  0
C  C36  1  0.51314235  0.74664604  0.36991697  1  0  0.707168  0  3.82015  0  0  0.656749  0  4.116026  0  0  0.690325  0  4.111368  0  0  0.211503  0.633949  0  4.118255  0
C  C37  1  0.48685650  0.75334333  0.86990656  1  0  0.70739  0  3.819795  0  0  0.656995  0  4.115661  0  0  0.690568  0  4.111003  0  0  0.211576  0.634193  0  4.11789  0
C  C38  1  0.48685746  0.25335429  0.63008614  1  0  0.707449  0  3.819915  0  0  0.656938  0  4.115902  0  0  0.690507  0  4.111243  0  0  0.211555  0.634139  0  4.118134  0
C  C39  1  0.51314466  0.24665821  0.13009574  1  0  0.707297  0  3.819904  0  0  0.656872  0  4.11581  0  0  0.690445  0  4.111153  0  0  0.211531  0.63407  0  4.118036  0
C  C40  1  0.34865352  0.64911946  0.34284368  1  0  -0.250756  0  3.703187  0  0  -0.290173  0  3.952233  0  0  -0.29584  0  3.960391  0  0  -0.166033  -0.2862  0  3.946456  0
C  C41  1  0.65133985  0.85087376  0.84283701  1  0  -0.250925  0  3.703334  0  0  -0.290414  0  3.952369  0  0  -0.296084  0  3.960531  0  0  -0.166027  -0.286442  0  3.94659  0
C  C42  1  0.65134499  0.35088090  0.65715943  1  0  -0.250944  0  3.70345  0  0  -0.290277  0  3.952395  0  0  -0.295943  0  3.960549  0  0  -0.166027  -0.286296  0  3.946618  0
C  C43  1  0.34866112  0.14912402  0.15715955  1  0  -0.25096  0  3.703366  0  0  -0.29036  0  3.952359  0  0  -0.296031  0  3.960517  0  0  -0.166056  -0.286391  0  3.946596  0
C  C44  1  0.30855068  0.63153459  0.22164886  1  0  -0.240005  0  3.683246  0  0  -0.280323  0  3.935978  0  0  -0.285367  0  3.944321  0  0  -0.16585  -0.276822  0  3.930161  0
C  C45  1  0.69144207  0.86846326  0.72163594  1  0  -0.240069  0  3.683032  0  0  -0.280296  0  3.935809  0  0  -0.285341  0  3.944147  0  0  -0.165825  -0.276788  0  3.929986  0
C  C46  1  0.69144516  0.36846460  0.77835343  1  0  -0.240035  0  3.683288  0  0  -0.280268  0  3.935951  0  0  -0.285313  0  3.944291  0  0  -0.165782  -0.276789  0  3.930165  0
C  C47  1  0.30855617  0.13153208  0.27835817  1  0  -0.24004  0  3.682994  0  0  -0.280306  0  3.935818  0  0  -0.285353  0  3.944156  0  0  -0.165814  -0.276818  0  3.93002  0
C  C48  1  0.13408887  0.54893507  0.19706277  1  0  0.718213  0  3.815749  0  0  0.668404  0  4.112235  0  0  0.702073  0  4.107292  0  0  0.212633  0.645454  0  4.114719  0
C  C49  1  0.86590630  0.95106766  0.69705692  1  0  0.718187  0  3.815923  0  0  0.668328  0  4.112431  0  0  0.701995  0  4.107493  0  0  0.2125  0.645375  0  4.114916  0
C  C50  1  0.86590542  0.45105914  0.80294117  1  0  0.718275  0  3.815779  0  0  0.668436  0  4.112277  0  0  0.702107  0  4.107334  0  0  0.212559  0.645489  0  4.114764  0
C  C51  1  0.13409590  0.04892882  0.30293965  1  0  0.718288  0  3.815629  0  0  0.668426  0  4.112186  0  0  0.702097  0  4.107239  0  0  0.212504  0.645474  0  4.114674  0
O  O52  1  0.53595940  0.79472757  0.46863985  1  0  -0.652689  0  1.99232  0  0  -0.588886  0  2.23026  0  0  -0.618421  0  2.22046  0  0  -0.317241  -0.56819  0  2.236247  0
O  O53  1  0.46404558  0.70527076  0.96863250  1  0  -0.652758  0  1.991916  0  0  -0.588996  0  2.229929  0  0  -0.618528  0  2.220116  0  0  -0.317293  -0.56831  0  2.235927  0
O  O54  1  0.46404456  0.20527766  0.53136409  1  0  -0.652756  0  1.992055  0  0  -0.588971  0  2.230054  0  0  -0.618516  0  2.220285  0  0  -0.317307  -0.568277  0  2.236039  0
O  O55  1  0.53596343  0.29473180  0.03136816  1  0  -0.652747  0  1.991898  0  0  -0.588977  0  2.229891  0  0  -0.618507  0  2.220072  0  0  -0.317303  -0.568291  0  2.235894  0
O  O56  1  0.62651166  0.78274124  0.29628077  1  0  -0.65707  0  1.993147  0  0  -0.578635  0  2.226869  0  0  -0.609578  0  2.215536  0  0  -0.314737  -0.557008  0  2.233952  0
O  O57  1  0.37348599  0.71725043  0.79626705  1  0  -0.657138  0  1.993089  0  0  -0.578699  0  2.226774  0  0  -0.60964  0  2.215442  0  0  -0.314741  -0.557069  0  2.233859  0
O  O58  1  0.37349366  0.21726520  0.70372316  1  0  -0.657158  0  1.993188  0  0  -0.578664  0  2.226898  0  0  -0.609604  0  2.215569  0  0  -0.314699  -0.557038  0  2.23398  0
O  O59  1  0.62651271  0.28275370  0.20373279  1  0  -0.657048  0  1.993182  0  0  -0.578618  0  2.226905  0  0  -0.609558  0  2.215574  0  0  -0.314716  -0.556986  0  2.233988  0
O  O60  1  0.01907806  0.52316564  0.26889112  1  0  -0.628565  0  1.923962  0  0  -0.564633  0  2.139704  0  0  -0.590562  0  2.129288  0  0  -0.309561  -0.546488  0  2.146365  0
O  O61  1  0.98091302  0.97683368  0.76888694  1  0  -0.62845  0  1.923975  0  0  -0.564538  0  2.139793  0  0  -0.590468  0  2.129377  0  0  -0.309434  -0.54639  0  2.146452  0
O  O62  1  0.98092707  0.47683704  0.73111445  1  0  -0.628569  0  1.923779  0  0  -0.564619  0  2.139529  0  0  -0.59055  0  2.12911  0  0  -0.309546  -0.546478  0  2.146192  0
O  O63  1  0.01909391  0.02315385  0.23110635  1  0  -0.628532  0  1.923879  0  0  -0.564575  0  2.139669  0  0  -0.590507  0  2.129249  0  0  -0.309467  -0.546426  0  2.146326  0
O  O64  1  0.10833238  0.50557976  0.09621980  1  0  -0.71711  0  2.110775  0  0  -0.63064  0  2.380831  0  0  -0.6667  0  2.370362  0  0  -0.344315  -0.605226  0  2.387057  0
O  O65  1  0.89165598  0.99442661  0.59621418  1  0  -0.717193  0  2.111013  0  0  -0.630635  0  2.380984  0  0  -0.666693  0  2.370511  0  0  -0.344299  -0.605221  0  2.387214  0
O  O66  1  0.89166729  0.49441806  0.90378250  1  0  -0.717124  0  2.110888  0  0  -0.630663  0  2.380954  0  0  -0.666723  0  2.370484  0  0  -0.344296  -0.605248  0  2.387177  0
O  O67  1  0.10834149  0.00557882  0.40378484  1  0  -0.71718  0  2.110763  0  0  -0.630661  0  2.380805  0  0  -0.66672  0  2.37033  0  0  -0.344258  -0.605245  0  2.387034  0
O  O68  1  0.93394488  0.66082404  0.46256123  1  0  -0.834066  0  1.85911  0  0  -0.773872  0  2.062099  0  0  -0.796899  0  2.03106  0  0  -0.584278  -0.757507  0  2.083457  0
O  O69  1  0.06605902  0.83918058  0.96255445  1  0  -0.834155  0  1.859163  0  0  -0.773948  0  2.06209  0  0  -0.796976  0  2.030971  0  0  -0.584328  -0.757585  0  2.083454  0
O  O70  1  0.06605635  0.33917876  0.53744024  1  0  -0.834135  0  1.859133  0  0  -0.773935  0  2.062099  0  0  -0.796962  0  2.031005  0  0  -0.584297  -0.757569  0  2.083457  0
O  O71  1  0.93394065  0.16081723  0.03744621  1  0  -0.834177  0  1.859106  0  0  -0.773962  0  2.062018  0  0  -0.796992  0  2.030886  0  0  -0.584332  -0.757597  0  2.083383  0
O  O72  1  0.74140286  0.19721432  0.40530413  1  0  -0.852891  0  1.855992  0  0  -0.784812  0  2.050312  0  0  -0.809497  0  2.013923  0  0  -0.580934  -0.767321  0  2.075611  0
O  O73  1  0.25860485  0.30278637  0.90530606  1  0  -0.85292  0  1.85596  0  0  -0.78483  0  2.050257  0  0  -0.809521  0  2.013857  0  0  -0.580925  -0.767306  0  2.075497  0
O  O74  1  0.25859830  0.80278722  0.59469407  1  0  -0.852906  0  1.855913  0  0  -0.784825  0  2.050239  0  0  -0.809518  0  2.013842  0  0  -0.580922  -0.767335  0  2.075552  0
O  O75  1  0.74139918  0.69722011  0.09469541  1  0  -0.85297  0  1.855912  0  0  -0.784856  0  2.050227  0  0  -0.809548  0  2.01383  0  0  -0.580923  -0.767338  0  2.075479  0
