# generated using pymatgen
data_ZnH8C11N4
_symmetry_space_group_name_H-M   'P 1'
_cell_length_a   15.41723515
_cell_length_b   18.22508977
_cell_length_c   19.68926824
_cell_angle_alpha   85.49918199
_cell_angle_beta   89.14170344
_cell_angle_gamma   87.90187660
_symmetry_Int_Tables_number   1
_chemical_formula_structural   ZnH8C11N4
_chemical_formula_sum   'Zn8 H64 C88 N32'
_cell_volume   5511.13546633
_cell_formula_units_Z   8
loop_
 _symmetry_equiv_pos_site_id
 _symmetry_equiv_pos_as_xyz
  1  'x, y, z'
loop_
 _atom_site_type_symbol
 _atom_site_label
 _atom_site_symmetry_multiplicity
 _atom_site_fract_x
 _atom_site_fract_y
 _atom_site_fract_z
 _atom_site_occupancy
 _atom_site_pbe_bader_charge
 _atom_site_pbe_bader_spin_density
 _atom_site_pbe_cm5_charge
 _atom_site_pbe_ddec_charge
 _atom_site_pbe_ddec_spin_density
 _atom_site_pbe_ddec_sum_bond_order
 _atom_site_pbe_magmom
Zn  Zn0  1  0.03019291  0.97086362  0.40886719  1  1.189016  0  0.744136  0.646498  0  2.338531  0
Zn  Zn1  1  0.99223574  0.06037587  0.54874265  1  1.172398  0  0.728926  0.571107  0  2.615007  0
Zn  Zn2  1  0.47774539  0.47096755  0.90717213  1  1.220687  0  0.719801  0.64205  0  2.334189  0
Zn  Zn3  1  0.52502920  0.50827439  0.10700851  1  1.21027  0  0.720288  0.567076  0  2.564399  0
Zn  Zn4  1  0.18241497  0.04493683  0.48902084  1  1.188007  0  0.764252  0.627069  0  2.45864  0
Zn  Zn5  1  0.83244784  0.94015947  0.53456654  1  1.208485  0  0.737669  0.639725  0  2.393856  0
Zn  Zn6  1  0.67812473  0.48987200  0.02667196  1  1.167131  0  0.742819  0.637719  0  2.348439  0
Zn  Zn7  1  0.36696845  0.55911814  0.99525366  1  1.171525  0  0.757677  0.622538  0  2.47924  0
H  H8  1  0.11723603  0.81442765  0.41175459  1  0.093547  0  0.119135  0.108372  0  1.012382  0
H  H9  1  0.73051796  0.04241710  0.41715309  1  0.106927  0  0.127137  0.113401  0  0.976983  0
H  H10  1  0.82621955  0.77474562  0.49574059  1  0.125746  0  0.12104  0.117622  0  1.008541  0
H  H11  1  0.26665641  0.20277859  0.54697896  1  0.109899  0  0.12043  0.110939  0  0.98876  0
H  H12  1  0.75664848  0.32225213  0.08109416  1  0.091273  0  0.118205  0.107119  0  0.997994  0
H  H13  1  0.21142444  0.66062193  0.90253749  1  0.060567  0  0.112498  0.102051  0  1.006964  0
H  H14  1  0.31430551  0.36609287  0.86662356  1  0.056754  0  0.101531  0.083235  0  1.046535  0
H  H15  1  0.84582873  0.55897916  0.12371353  1  0.087807  0  0.115033  0.105534  0  1.000943  0
H  H16  1  0.98156743  0.87839469  0.62068721  1  0.14147  0  0.114344  0.104816  0  1.033433  0
H  H17  1  0.97757144  0.14731459  0.39375710  1  0.119445  0  0.123815  0.1225  0  1.010292  0
H  H18  1  0.98082849  0.84751026  0.31935105  1  0.065057  0  0.114305  0.100458  0  1.006992  0
H  H19  1  0.91252536  0.16286693  0.66276678  1  0.061928  0  0.112151  0.092857  0  1.04231  0
H  H20  1  0.99432753  0.22085575  0.60017575  1  0.108821  0  0.119994  0.11121  0  1.012522  0
H  H21  1  0.56980085  0.37209689  0.23929709  1  0.110905  0  0.117177  0.103768  0  0.996663  0
H  H22  1  0.38060281  0.56429836  0.75277375  1  0.118884  0  0.117896  0.11064  0  1.01184  0
H  H23  1  0.44195684  0.43181906  0.67533309  1  0.088654  0  0.105609  0.090904  0  1.008158  0
H  H24  1  0.60912408  0.60759898  0.23534222  1  0.080318  0  0.112886  0.096969  0  1.014161  0
H  H25  1  0.61321402  0.91658976  0.58940194  1  0.077044  0  0.107561  0.096137  0  1.006506  0
H  H26  1  0.20323919  0.18208021  0.39514628  1  0.085777  0  0.117038  0.106012  0  1.004986  0
H  H27  1  0.35780115  0.92392787  0.43898683  1  0.101207  0  0.11921  0.109248  0  0.991095  0
H  H28  1  0.72138280  0.99399943  0.67464116  1  0.109292  0  0.112245  0.104428  0  1.031501  0
H  H29  1  0.27362855  0.40264526  0.96515668  1  0.086565  0  0.120731  0.113145  0  0.998644  0
H  H30  1  0.78993208  0.77241040  0.71143990  1  0.079994  0  0.111108  0.098605  0  0.995619  0
H  H31  1  0.65236420  0.65014610  0.03814545  1  0.131255  0  0.123491  0.119067  0  1.011851  0
H  H32  1  0.81834751  0.42801932  0.92372524  1  0.065242  0  0.113612  0.102328  0  0.9999  0
H  H33  1  0.24388281  0.65681094  0.09095474  1  0.086843  0  0.122556  0.113307  0  0.989524  0
H  H34  1  0.97637319  0.72712833  0.28221823  1  0.05796  0  0.093494  0.090394  0  1.014042  0
H  H35  1  0.11590912  0.24093461  0.72408680  1  0.036811  0  0.095045  0.094121  0  1.006815  0
H  H36  1  0.04458967  0.78884062  0.73185455  1  0.050735  0  0.100678  0.104204  0  0.994865  0
H  H37  1  0.91871990  0.18745141  0.27250486  1  0.054411  0  0.097646  0.097284  0  1.011025  0
H  H38  1  0.30864113  0.43416588  0.62388870  1  0.046728  0  0.098374  0.098503  0  1.006007  0
H  H39  1  0.69222731  0.61582514  0.33200881  1  0.085322  0  0.096362  0.093759  0  1.009741  0
H  H40  1  0.60176020  0.24549649  0.28428459  1  0.038546  0  0.097692  0.095119  0  1.00682  0
H  H41  1  0.08673405  0.06046386  0.24145423  1  0.125163  0  0.121899  0.112612  0  0.98618  0
H  H42  1  0.33726968  0.68272777  0.67949069  1  0.053125  0  0.098398  0.100083  0  1.001157  0
H  H43  1  0.21678557  0.36767843  0.54878864  1  0.042483  0  0.094754  0.092716  0  1.008652  0
H  H44  1  0.75153750  0.69613263  0.41243231  1  0.056174  0  0.101779  0.105271  0  0.993907  0
H  H45  1  0.67048426  0.16148956  0.37365482  1  0.047272  0  0.098664  0.095872  0  1.006681  0
H  H46  1  0.27134763  0.78114234  0.60197843  1  0.014411  0  0.095031  0.091787  0  1.017604  0
H  H47  1  0.91434865  0.65085838  0.19955794  1  0.057151  0  0.09499  0.094081  0  1.007008  0
H  H48  1  0.20982416  0.30506674  0.79886230  1  0.022847  0  0.095579  0.09639  0  1.005574  0
H  H49  1  0.10798999  0.68700956  0.80713856  1  0.044138  0  0.095221  0.093089  0  1.008541  0
H  H50  1  0.85053383  0.27535009  0.18538631  1  0.050543  0  0.099712  0.099677  0  1.000085  0
H  H51  1  0.17573906  0.17771972  0.14739452  1  0.06181  0  0.099651  0.103633  0  0.98502  0
H  H52  1  0.58112704  0.35241999  0.84321142  1  0.168402  0  0.122472  0.115406  0  1.033508  0
H  H53  1  0.70276485  0.81723498  0.80698948  1  0.030726  0  0.096799  0.095521  0  0.997182  0
H  H54  1  0.84979168  0.21245857  0.75541137  1  0.04631  0  0.092992  0.08922  0  1.002174  0
H  H55  1  0.20252417  0.76123085  0.32441097  1  0.063216  0  0.095762  0.09142  0  1.003313  0
H  H56  1  0.51806535  0.75691378  0.82930062  1  0.029305  0  0.100104  0.097502  0  0.988765  0
H  H57  1  0.31306760  0.28713425  0.18776120  1  0.023015  0  0.094504  0.088832  0  1.001616  0
H  H58  1  0.37755655  0.67367216  0.31077957  1  0.0629  0  0.099471  0.0973  0  0.989085  0
H  H59  1  0.66692936  0.23786821  0.81948085  1  0.066245  0  0.100346  0.103062  0  0.984266  0
H  H60  1  0.25220421  0.22823967  0.27839912  1  0.0252  0  0.094458  0.08912  0  1.002919  0
H  H61  1  0.54216603  0.82323849  0.71506075  1  0.072305  0  0.09646  0.095409  0  0.997281  0
H  H62  1  0.68369124  0.12315219  0.75482762  1  0.066722  0  0.098363  0.101639  0  0.992569  0
H  H63  1  0.44031036  0.58094828  0.23756473  1  0.100605  0  0.12256  0.109311  0  0.993434  0
H  H64  1  0.37290590  0.76697879  0.40325191  1  0.049596  0  0.100288  0.102023  0  0.991475  0
H  H65  1  0.68019360  0.75282666  0.91980825  1  0.078478  0  0.097628  0.101639  0  0.997464  0
H  H66  1  0.23404416  0.26913988  0.04777288  1  0.047697  0  0.09844  0.10151  0  0.995412  0
H  H67  1  0.21290161  0.70067053  0.22391731  1  0.051258  0  0.097999  0.097713  0  0.996747  0
H  H68  1  0.83899619  0.31826157  0.82450504  1  0.050079  0  0.094204  0.093585  0  1.001223  0
H  H69  1  0.44467006  0.34639636  0.13517694  1  0.088135  0  0.116235  0.101321  0  1.015424  0
H  H70  1  0.47543140  0.64038817  0.87152106  1  0.128148  0  0.12617  0.115739  0  1.023686  0
H  H71  1  0.25747321  0.91367739  0.59845353  1  0.042176  0  0.116056  0.101302  0  0.99906  0
C  C72  1  0.16828164  0.85222137  0.41983744  1  0.422949  0  0.013165  -0.040807  0  3.948386  0
C  C73  1  0.21080649  0.19406040  0.24999662  1  -0.041858  0  -0.098033  -0.123653  0  4.05085  0
C  C74  1  0.30519115  0.77923016  0.38942544  1  -0.027768  0  -0.096519  -0.127646  0  4.024543  0
C  C75  1  0.75004741  0.13847708  0.74117282  1  -0.077648  0  -0.099658  -0.132742  0  4.020417  0
C  C76  1  0.27702416  0.28984725  0.08505585  1  -0.041083  0  -0.101493  -0.140926  0  4.03382  0
C  C77  1  0.61572564  0.73820703  0.90412787  1  -0.103387  0  -0.109804  -0.158952  0  4.030428  0
C  C78  1  0.76978405  0.30906072  0.83349567  1  -0.065788  0  -0.101309  -0.135976  0  4.028691  0
C  C79  1  0.27740175  0.67735172  0.23721466  1  -0.017631  0  -0.1002  -0.136513  0  4.057783  0
C  C80  1  0.63501785  0.80962058  0.79405354  1  -0.013481  0  -0.109688  -0.116406  0  4.0957  0
C  C81  1  0.21517100  0.20750036  0.18109645  1  -0.080057  0  -0.106569  -0.107294  0  4.075587  0
C  C82  1  0.26874349  0.74398421  0.33941174  1  -0.07363  0  -0.105233  -0.100177  0  4.109351  0
C  C83  1  0.87303040  0.11579306  0.65715271  1  0.386257  0  0.00372  -0.056347  0  3.986969  0
C  C84  1  0.78253791  0.19848756  0.76789124  1  -0.035499  0  -0.108249  -0.103735  0  4.090377  0
C  C85  1  0.27171353  0.26290370  0.15125893  1  0.008566  0  -0.103562  -0.093539  0  4.094258  0
C  C86  1  0.58346029  0.77000939  0.84444347  1  0.026369  0  -0.096731  -0.076045  0  4.082113  0
C  C87  1  0.73550467  0.24855258  0.80908121  1  -0.050009  0  -0.103927  -0.097812  0  4.078837  0
C  C88  1  0.31186323  0.69369094  0.29701229  1  -0.125815  0  -0.102689  -0.094006  0  4.097274  0
C  C89  1  0.18704131  0.91667835  0.59756646  1  0.466223  0  0.006658  -0.039029  0  3.997071  0
C  C90  1  0.79707837  0.05943455  0.42010780  1  0.430639  0  0.029902  -0.015492  0  3.945597  0
C  C91  1  0.86758075  0.80222517  0.45728691  1  0.411908  0  0.01497  -0.035706  0  3.927352  0
C  C92  1  0.19717376  0.19636881  0.55332050  1  0.365873  0  0.010792  -0.054327  0  3.995517  0
C  C93  1  0.70482887  0.34367950  0.11278502  1  0.436337  0  0.005341  -0.053222  0  3.978583  0
C  C94  1  0.75939569  0.81096400  0.67334963  1  0.441225  0  0.000466  -0.046439  0  4.025687  0
C  C95  1  0.25935378  0.62972864  0.87427952  1  0.413337  0  -0.005297  -0.069556  0  4.023942  0
C  C96  1  0.35727296  0.38543560  0.82540209  1  0.365192  0  -0.014739  -0.06763  0  4.029744  0
C  C97  1  0.77991893  0.56629240  0.14293412  1  0.364812  0  0.000931  -0.060087  0  3.979908  0
C  C98  1  0.04620904  0.89868744  0.60980304  1  0.358778  0  0.00919  -0.036892  0  3.92431  0
C  C99  1  0.92309283  0.11276730  0.40676310  1  0.37919  0  0.006912  -0.045035  0  3.931059  0
C  C100  1  0.94709211  0.83916125  0.36804406  1  0.361957  0  -0.001154  -0.068878  0  4.019083  0
C  C101  1  0.05863400  0.20495706  0.58222298  1  0.373911  0  0.006289  -0.05813  0  3.975007  0
C  C102  1  0.60815753  0.36837796  0.19289543  1  0.404232  0  0.007795  -0.055215  0  3.987708  0
C  C103  1  0.34685402  0.58179363  0.79786641  1  0.431556  0  0.013204  -0.035539  0  3.938153  0
C  C104  1  0.42262735  0.42076537  0.72836898  1  0.398038  0  -0.008787  -0.062749  0  4.067794  0
C  C105  1  0.10977868  0.08238381  0.28734307  1  0.396741  0  0.014739  -0.039488  0  3.924289  0
C  C106  1  0.65905232  0.58979755  0.20011465  1  0.410846  0  0.004428  -0.050604  0  4.00318  0
C  C107  1  0.66705096  0.88267102  0.61091659  1  0.391423  0  -0.010604  -0.07334  0  4.021264  0
C  C108  1  0.16891329  0.14412451  0.36619046  1  0.379936  0  0.005608  -0.055811  0  3.982293  0
C  C109  1  0.29105979  0.90787287  0.43471356  1  0.420337  0  0.009806  -0.055423  0  3.984812  0
C  C110  1  0.77527291  0.02987698  0.66305786  1  0.380672  0  0.006143  -0.04868  0  3.924725  0
C  C111  1  0.32423861  0.39780008  0.00315896  1  0.387336  0  0.005594  -0.053773  0  3.92721  0
C  C112  1  0.60407180  0.63626776  0.00226892  1  0.325889  0  0.012553  -0.043178  0  3.899379  0
C  C113  1  0.75206424  0.41719894  0.91038627  1  0.373058  0  -0.001667  -0.069672  0  3.985373  0
C  C114  1  0.29894244  0.63143706  0.11873919  1  0.394501  0  0.009933  -0.062288  0  3.968844  0
C  C115  1  0.25893235  0.84031043  0.41799555  1  0.019309  0  -0.040101  0.007806  0  4.129192  0
C  C116  1  0.63073271  0.37722170  0.87135118  1  0.412732  0  0.021326  -0.019718  0  3.914892  0
C  C117  1  0.79625302  0.09567395  0.69199709  1  0.047264  0  -0.042737  0.005783  0  4.119574  0
C  C118  1  0.67328806  0.84160017  0.67419469  1  -0.038665  0  -0.05018  -0.011054  0  4.144465  0
C  C119  1  0.16299343  0.14301021  0.29496539  1  0.018274  0  -0.040215  0.008426  0  4.110232  0
C  C120  1  0.72143871  0.36380293  0.86987270  1  0.032173  0  -0.037898  0.016672  0  4.107553  0
C  C121  1  0.32152504  0.63589573  0.18705004  1  0.058091  0  -0.036902  0.016447  0  4.152905  0
C  C122  1  0.33413685  0.34818234  0.06051301  1  -0.005195  0  -0.034254  0.021105  0  4.097862  0
C  C123  1  0.57733604  0.67573660  0.94156710  1  0.038507  0  -0.030972  0.035042  0  4.103078  0
C  C124  1  0.12808261  0.86473045  0.62460364  1  0.004206  0  -0.031396  -0.029606  0  4.044134  0
C  C125  1  0.83869371  0.11765527  0.38248746  1  0.007293  0  -0.029416  -0.02811  0  4.079788  0
C  C126  1  0.89438704  0.78143185  0.39233087  1  0.035768  0  -0.038231  -0.043083  0  4.068298  0
C  C127  1  0.39953823  0.59341009  0.19340699  1  0.402458  0  0.017319  -0.044479  0  3.947808  0
C  C128  1  0.13689232  0.23993850  0.58813688  1  0.04046  0  -0.032685  -0.025901  0  4.099967  0
C  C129  1  0.68061633  0.32189776  0.18016067  1  -0.04431  0  -0.037017  -0.042888  0  4.103686  0
C  C130  1  0.27433184  0.63101181  0.80376547  1  -0.016798  0  -0.037827  -0.04394  0  4.076113  0
C  C131  1  0.34334123  0.39309579  0.75517274  1  0.020258  0  -0.050008  -0.062066  0  4.125235  0
C  C132  1  0.74988388  0.59537444  0.20362832  1  0.032951  0  -0.038786  -0.043539  0  4.075924  0
C  C133  1  0.91272844  0.70420459  0.29296022  1  -0.098346  0  -0.100273  -0.13793  0  4.010622  0
C  C134  1  0.15707585  0.28445615  0.70220592  1  -0.054389  0  -0.100193  -0.136878  0  4.032572  0
C  C135  1  0.10862488  0.76540204  0.71979523  1  -0.068795  0  -0.094381  -0.129596  0  3.999772  0
C  C136  1  0.84923962  0.20085893  0.27564665  1  0.037544  0  -0.094284  -0.128763  0  3.999323  0
C  C137  1  0.26696237  0.39122995  0.64589008  1  -0.069419  0  -0.099455  -0.136734  0  4.004202  0
C  C138  1  0.41101252  0.37099412  0.09051759  1  0.4693  0  0.019165  -0.019258  0  3.922619  0
C  C139  1  0.75396419  0.64145215  0.31970922  1  -0.018556  0  -0.097918  -0.134022  0  4.002325  0
C  C140  1  0.67154851  0.23355452  0.28209766  1  -0.09952  0  -0.096261  -0.133187  0  4.013296  0
C  C141  1  0.27264739  0.70522445  0.69118256  1  -0.085778  0  -0.09842  -0.136009  0  4.00606  0
C  C142  1  0.21495252  0.35448161  0.60380064  1  -0.036055  0  -0.102054  -0.141349  0  4.051388  0
C  C143  1  0.78811484  0.68637647  0.36592334  1  -0.11216  0  -0.094979  -0.131229  0  3.994492  0
C  C144  1  0.71007821  0.18557617  0.33186637  1  -0.054772  0  -0.09701  -0.134323  0  4.020109  0
C  C145  1  0.23592748  0.76153372  0.64788912  1  0.05142  0  -0.098205  -0.135283  0  4.007255  0
C  C146  1  0.87794467  0.66016632  0.24626115  1  -0.056255  0  -0.100451  -0.137659  0  4.015831  0
C  C147  1  0.21031832  0.32043113  0.74417470  1  -0.049019  0  -0.10036  -0.138858  0  4.003656  0
C  C148  1  0.14506382  0.70846969  0.76276253  1  -0.006393  0  -0.098872  -0.137793  0  4.005665  0
C  C149  1  0.51322519  0.63210964  0.91761591  1  0.398957  0  0.021273  -0.019535  0  3.887393  0
C  C150  1  0.81064998  0.24950589  0.22613136  1  -0.115246  0  -0.093653  -0.130592  0  3.997044  0
C  C151  1  0.16364725  0.29707115  0.63098358  1  0.035642  0  -0.025005  0.059986  0  4.071558  0
C  C152  1  0.86652673  0.72216970  0.35210897  1  0.043827  0  -0.011921  0.083789  0  4.036449  0
C  C153  1  0.79970325  0.16866379  0.32982726  1  0.004326  0  -0.015893  0.073598  0  4.061109  0
C  C154  1  0.15517639  0.79568818  0.66307533  1  0.022084  0  -0.012738  0.080229  0  4.035984  0
C  C155  1  0.79536762  0.63047621  0.25675402  1  -0.010876  0  -0.014239  0.079468  0  4.044854  0
C  C156  1  0.27150080  0.37012642  0.71613368  1  0.015682  0  -0.00982  0.097266  0  4.056839  0
C  C157  1  0.22973960  0.67975236  0.75160907  1  -0.032047  0  -0.012898  0.083103  0  4.044972  0
C  C158  1  0.72118158  0.26726363  0.22873169  1  0.086384  0  -0.010106  0.08675  0  4.058101  0
C  C159  1  0.61055521  0.82680440  0.72831177  1  -0.071553  0  -0.093198  -0.113262  0  4.028643  0
N  N160  1  0.14860605  0.92174114  0.43400969  1  -0.795438  0  -0.279212  -0.188618  0  3.58569  0
N  N161  1  0.85244895  0.02246592  0.46234319  1  -0.796642  0  -0.276346  -0.164385  0  3.594222  0
N  N162  1  0.90090707  0.86715436  0.47010488  1  -0.754641  0  -0.255179  -0.179534  0  3.461867  0
N  N163  1  0.15767464  0.13939892  0.52966138  1  -0.81065  0  -0.285723  -0.18154  0  3.647389  0
N  N164  1  0.65015430  0.39838756  0.08768702  1  -0.786611  0  -0.28566  -0.195078  0  3.556735  0
N  N165  1  0.31848762  0.58346466  0.90672214  1  -0.829853  0  -0.308643  -0.21175  0  3.714961  0
N  N166  1  0.43801132  0.40726723  0.83804530  1  -0.834339  0  -0.302873  -0.21048  0  3.646625  0
N  N167  1  0.71166571  0.54551726  0.10715716  1  -0.808148  0  -0.278893  -0.195081  0  3.581152  0
N  N168  1  0.05724528  0.96546429  0.57595243  1  -0.826801  0  -0.288479  -0.204084  0  3.614255  0
N  N169  1  0.93269555  0.05399042  0.45448293  1  -0.851427  0  -0.296769  -0.231264  0  3.570581  0
N  N170  1  0.94985647  0.89008609  0.41410804  1  -0.805174  0  -0.289834  -0.183813  0  3.643813  0
N  N171  1  0.89433444  0.06715035  0.61152294  1  -0.815942  0  -0.295311  -0.166996  0  3.675784  0
N  N172  1  0.07148587  0.14437085  0.54713880  1  -0.799726  0  -0.285397  -0.173023  0  3.571037  0
N  N173  1  0.59124347  0.41366654  0.13742918  1  -0.810524  0  -0.278365  -0.16289  0  3.619294  0
N  N174  1  0.37260903  0.55368623  0.85972709  1  -0.780458  0  -0.255912  -0.190408  0  3.445635  0
N  N175  1  0.47884184  0.42981824  0.77773416  1  -0.735163  0  -0.282025  -0.250465  0  3.271541  0
N  N176  1  0.63698882  0.56039652  0.14291752  1  -0.792401  0  -0.274098  -0.192306  0  3.542095  0
N  N177  1  0.74356224  0.87631650  0.57662170  1  -0.832694  0  -0.309684  -0.226659  0  3.622468  0
N  N178  1  0.12524516  0.08875657  0.39802427  1  -0.809588  0  -0.289122  -0.223172  0  3.608559  0
N  N179  1  0.22462729  0.95660275  0.44234053  1  -0.813102  0  -0.284555  -0.185918  0  3.591391  0
N  N180  1  0.83490440  0.01318670  0.61485473  1  -0.758161  0  -0.261966  -0.192315  0  3.48334  0
N  N181  1  0.38974329  0.44673349  0.99968518  1  -0.870303  0  -0.307194  -0.221087  0  3.61314  0
N  N182  1  0.80100362  0.83107676  0.61544175  1  -0.758659  0  -0.28049  -0.249087  0  3.29247  0
N  N183  1  0.56152395  0.57190267  0.01245569  1  -0.840364  0  -0.282906  -0.208561  0  3.524002  0
N  N184  1  0.68469304  0.45845941  0.93425794  1  -0.811437  0  -0.295906  -0.200778  0  3.591872  0
N  N185  1  0.35916020  0.58971553  0.08741910  1  -0.802068  0  -0.284953  -0.168896  0  3.627246  0
N  N186  1  0.08872411  0.05050863  0.34939932  1  -0.79684  0  -0.275717  -0.18572  0  3.588309  0
N  N187  1  0.60875001  0.43277178  0.90981796  1  -0.796696  0  -0.262255  -0.177091  0  3.474121  0
N  N188  1  0.42092306  0.56612539  0.13399041  1  -0.789427  0  -0.274992  -0.147673  0  3.615501  0
N  N189  1  0.44327981  0.42938835  0.05489186  1  -0.780236  0  -0.264673  -0.201413  0  3.446348  0
N  N190  1  0.50341689  0.57034474  0.95952120  1  -0.848192  0  -0.292387  -0.214695  0  3.576158  0
N  N191  1  0.14430974  0.97644562  0.56930331  1  -0.818383  0  -0.297163  -0.210911  0  3.629387  0
