# generated using pymatgen
data_ZnH19C17N3O4
_symmetry_space_group_name_H-M   'P 1'
_cell_length_a   9.30222848
_cell_length_b   9.30223699
_cell_length_c   11.15141044
_cell_angle_alpha   82.39631762
_cell_angle_beta   82.39639715
_cell_angle_gamma   65.99001321
_symmetry_Int_Tables_number   1
_chemical_formula_structural   ZnH19C17N3O4
_chemical_formula_sum   'Zn2 H38 C34 N6 O8'
_cell_volume   870.41744003
_cell_formula_units_Z   2
loop_
 _symmetry_equiv_pos_site_id
 _symmetry_equiv_pos_as_xyz
  1  'x, y, z'
loop_
 _atom_site_type_symbol
 _atom_site_label
 _atom_site_symmetry_multiplicity
 _atom_site_fract_x
 _atom_site_fract_y
 _atom_site_fract_z
 _atom_site_occupancy
 _atom_site_hle17_bader_spin_density
 _atom_site_hle17_ddec_charge
 _atom_site_hle17_ddec_spin_density
 _atom_site_hle17_ddec_sum_bond_order
 _atom_site_hle17_magmom
 _atom_site_hse06_10hf_bader_spin_density
 _atom_site_hse06_10hf_ddec_charge
 _atom_site_hse06_10hf_ddec_spin_density
 _atom_site_hse06_10hf_ddec_sum_bond_order
 _atom_site_hse06_10hf_magmom
 _atom_site_hse06_bader_spin_density
 _atom_site_hse06_ddec_charge
 _atom_site_hse06_ddec_spin_density
 _atom_site_hse06_ddec_sum_bond_order
 _atom_site_hse06_magmom
 _atom_site_pbe_bader_spin_density
 _atom_site_pbe_cm5_charge
 _atom_site_pbe_ddec_charge
 _atom_site_pbe_ddec_spin_density
 _atom_site_pbe_ddec_sum_bond_order
 _atom_site_pbe_magmom
Zn  Zn0  1  0.78306276  0.83593847  0.74711647  1  0  0.965118  0  1.881171  0  0  0.760853  0  2.360694  0  0  0.809113  0  2.307514  0  0  0.685855  0.728056  0  2.396286  0
Zn  Zn1  1  0.16406201  0.21693714  0.25288371  1  0  0.965055  0  1.881194  0  0  0.760799  0  2.36072  0  0  0.809053  0  2.307542  0  0  0.685837  0.727998  0  2.396308  0
H  H2  1  0.50628973  0.23269973  0.22527064  1  0  0.300946  0  0.919895  0  0  0.279918  0  0.989232  0  0  0.288656  0  0.982035  0  0  0.303989  0.273791  0  0.994067  0
H  H3  1  0.76730128  0.49370938  0.77472798  1  0  0.300983  0  0.919858  0  0  0.279941  0  0.989208  0  0  0.288681  0  0.982008  0  0  0.303999  0.273814  0  0.994045  0
H  H4  1  0.96882010  0.86060886  0.51416893  1  0  0.092617  0  0.952988  0  0  0.100597  0  1.015058  0  0  0.103225  0  1.012555  0  0  0.120624  0.09879  0  1.01659  0
H  H5  1  0.13939078  0.03117927  0.48583150  1  0  0.092601  0  0.953007  0  0  0.10058  0  1.01509  0  0  0.103205  0  1.012586  0  0  0.120615  0.098773  0  1.016621  0
H  H6  1  0.92275533  0.97343422  0.30550788  1  0  0.142157  0  0.973396  0  0  0.149327  0  1.034472  0  0  0.153688  0  1.032079  0  0  0.11344  0.146411  0  1.036069  0
H  H7  1  0.02656762  0.07724302  0.69449232  1  0  0.142137  0  0.973405  0  0  0.149314  0  1.034471  0  0  0.153676  0  1.032079  0  0  0.113439  0.146399  0  1.036067  0
H  H8  1  0.42366702  0.19391375  0.42414402  1  0  0.126599  0  0.942541  0  0  0.1367  0  1.001217  0  0  0.140195  0  1.000507  0  0  0.114775  0.134293  0  1.001751  0
H  H9  1  0.80608912  0.57633160  0.57585621  1  0  0.12665  0  0.942516  0  0  0.136744  0  1.001218  0  0  0.140216  0  1.000538  0  0  0.114798  0.134373  0  1.001712  0
H  H10  1  0.49338250  0.06642570  0.63210683  1  0  0.089758  0  0.969048  0  0  0.098718  0  1.030966  0  0  0.101571  0  1.028227  0  0  0.116896  0.096784  0  1.032435  0
H  H11  1  0.93357650  0.50661505  0.36789371  1  0  0.08968  0  0.969105  0  0  0.098685  0  1.030986  0  0  0.101541  0  1.02824  0  0  0.116881  0.096749  0  1.032453  0
H  H12  1  0.93993102  0.76171894  0.97840128  1  0  0.087696  0  0.92874  0  0  0.097039  0  0.989627  0  0  0.099374  0  0.987645  0  0  0.121471  0.095359  0  0.991068  0
H  H13  1  0.23828161  0.06006878  0.02159905  1  0  0.087665  0  0.928754  0  0  0.097008  0  0.989643  0  0  0.099342  0  0.987663  0  0  0.121458  0.095328  0  0.991082  0
H  H14  1  0.88241555  0.86430834  0.17598551  1  0  0.12771  0  0.97061  0  0  0.134654  0  1.034031  0  0  0.138581  0  1.032515  0  0  0.111327  0.131684  0  1.0356  0
H  H15  1  0.13569383  0.11758467  0.82401449  1  0  0.127688  0  0.97058  0  0  0.134633  0  1.034004  0  0  0.13856  0  1.032489  0  0  0.111324  0.131662  0  1.035572  0
H  H16  1  0.50317517  0.27697852  0.02439043  1  0  0.117829  0  0.962902  0  0  0.127833  0  1.023515  0  0  0.131068  0  1.023148  0  0  0.111153  0.125422  0  1.024161  0
H  H17  1  0.72302024  0.49682323  0.97560938  1  0  0.117826  0  0.962869  0  0  0.127809  0  1.023509  0  0  0.131044  0  1.023143  0  0  0.111147  0.1254  0  1.024153  0
H  H18  1  0.57785322  0.15195965  0.82952416  1  0  0.075374  0  0.946587  0  0  0.085442  0  1.009925  0  0  0.087912  0  1.006779  0  0  0.116844  0.083617  0  1.012285  0
H  H19  1  0.84803922  0.42214602  0.17047567  1  0  0.075376  0  0.946584  0  0  0.085444  0  1.009923  0  0  0.087913  0  1.006778  0  0  0.116847  0.083618  0  1.012285  0
H  H20  1  0.42544833  0.62836096  0.91079361  1  0  0.079713  0  0.962824  0  0  0.094798  0  1.029311  0  0  0.096566  0  1.028668  0  0  0.090416  0.093139  0  1.030548  0
H  H21  1  0.37163828  0.57455117  0.08920666  1  0  0.079724  0  0.962837  0  0  0.094815  0  1.029313  0  0  0.096579  0  1.02867  0  0  0.090428  0.093157  0  1.030551  0
H  H22  1  0.26846126  0.79848948  0.85169733  1  0  0.101302  0  0.936159  0  0  0.116785  0  0.99466  0  0  0.11878  0  0.994417  0  0  0.096905  0.115723  0  0.994653  0
H  H23  1  0.20151044  0.73153920  0.14830076  1  0  0.101264  0  0.936161  0  0  0.11675  0  0.994669  0  0  0.118743  0  0.994424  0  0  0.096884  0.115688  0  0.994663  0
H  H24  1  0.51072336  0.52520816  0.71134195  1  0  0.062817  0  0.939692  0  0  0.080485  0  1.001599  0  0  0.081709  0  1.001858  0  0  0.084948  0.07975  0  1.00098  0
H  H25  1  0.47479291  0.48927632  0.28865821  1  0  0.062822  0  0.939677  0  0  0.080493  0  1.001569  0  0  0.081718  0  1.001831  0  0  0.084961  0.079757  0  1.000954  0
H  H26  1  0.37953305  0.70304656  0.63939370  1  0  0.070363  0  0.94998  0  0  0.087637  0  1.010375  0  0  0.089064  0  1.009703  0  0  0.090074  0.086349  0  1.011169  0
H  H27  1  0.29695309  0.62046754  0.36060632  1  0  0.070313  0  0.949998  0  0  0.087597  0  1.01039  0  0  0.089026  0  1.009717  0  0  0.090058  0.086311  0  1.011182  0
H  H28  1  0.38500445  0.35941603  0.86364444  1  0  0.088121  0  0.985449  0  0  0.112912  0  1.045584  0  0  0.113623  0  1.046278  0  0  0.083208  0.112477  0  1.044923  0
H  H29  1  0.64058375  0.61499543  0.13635497  1  0  0.08813  0  0.985431  0  0  0.112919  0  1.045562  0  0  0.113628  0  1.046256  0  0  0.083207  0.112484  0  1.044902  0
H  H30  1  0.18165627  0.40131678  0.86027456  1  0  0.107468  0  0.981431  0  0  0.126949  0  1.044596  0  0  0.128254  0  1.045895  0  0  0.085318  0.125873  0  1.043985  0
H  H31  1  0.59868280  0.81834434  0.13972554  1  0  0.107485  0  0.98142  0  0  0.126968  0  1.044572  0  0  0.128274  0  1.045872  0  0  0.085335  0.125894  0  1.043959  0
H  H32  1  0.23834062  0.52455484  0.93399897  1  0  0.097421  0  0.962734  0  0  0.119304  0  1.025688  0  0  0.119945  0  1.026332  0  0  0.08517  0.118503  0  1.025829  0
H  H33  1  0.47544452  0.76166022  0.06600108  1  0  0.097393  0  0.962776  0  0  0.119273  0  1.025733  0  0  0.119915  0  1.026378  0  0  0.085161  0.118472  0  1.025875  0
H  H34  1  0.28817557  0.52295140  0.54109342  1  0  0.098971  0  0.963177  0  0  0.118968  0  1.026143  0  0  0.120385  0  1.026031  0  0  0.085651  0.117778  0  1.026459  0
H  H35  1  0.47704841  0.71182412  0.45890674  1  0  0.098992  0  0.963181  0  0  0.118992  0  1.026134  0  0  0.120408  0  1.026023  0  0  0.085664  0.117802  0  1.02645  0
H  H36  1  0.21201150  0.39671496  0.63731890  1  0  0.104345  0  0.957  0  0  0.123992  0  1.0189  0  0  0.125156  0  1.020365  0  0  0.085328  0.123095  0  1.017908  0
H  H37  1  0.60328504  0.78798850  0.36268124  1  0  0.10438  0  0.956954  0  0  0.12403  0  1.018845  0  0  0.125194  0  1.02031  0  0  0.085348  0.123133  0  1.017853  0
H  H38  1  0.41705981  0.35921573  0.62902696  1  0  0.090223  0  0.966402  0  0  0.11059  0  1.03161  0  0  0.111765  0  1.032121  0  0  0.082032  0.109642  0  1.031489  0
H  H39  1  0.64078437  0.58294113  0.37097322  1  0  0.090228  0  0.966428  0  0  0.110601  0  1.031625  0  0  0.111777  0  1.032135  0  0  0.082027  0.109653  0  1.031504  0
C  C40  1  0.84884810  0.93121336  0.49000947  1  0  0.147631  0  3.708698  0  0  0.114495  0  3.959299  0  0  0.123973  0  3.977136  0  0  0.04576  0.108879  0  3.946284  0
C  C41  1  0.06878540  0.15114999  0.50999108  1  0  0.147577  0  3.70873  0  0  0.114435  0  3.959334  0  0  0.123916  0  3.977169  0  0  0.045738  0.108818  0  3.946317  0
C  C42  1  0.82092981  0.99405056  0.37147959  1  0  -0.227848  0  3.681385  0  0  -0.243082  0  3.929564  0  0  -0.254379  0  3.949021  0  0  -0.092496  -0.236112  0  3.9163  0
C  C43  1  0.00594981  0.17906891  0.62852065  1  0  -0.227819  0  3.681363  0  0  -0.243075  0  3.929516  0  0  -0.254375  0  3.948975  0  0  -0.092526  -0.236107  0  3.916251  0
C  C44  1  0.66495544  0.08679083  0.34346990  1  0  0.306807  0  3.790129  0  0  0.293469  0  4.04032  0  0  0.30868  0  4.057594  0  0  0.123272  0.283516  0  4.028855  0
C  C45  1  0.91321001  0.33504213  0.65653089  1  0  0.306923  0  3.789993  0  0  0.293642  0  4.040086  0  0  0.308854  0  4.057352  0  0  0.123421  0.283688  0  4.02863  0
C  C46  1  0.54579794  0.11927640  0.44061972  1  0  -0.212853  0  3.697767  0  0  -0.229369  0  3.948723  0  0  -0.239796  0  3.968703  0  0  -0.088041  -0.223147  0  3.935963  0
C  C47  1  0.88072390  0.45420048  0.55938094  1  0  -0.213046  0  3.697817  0  0  -0.229596  0  3.948821  0  0  -0.240004  0  3.96881  0  0  -0.088155  -0.223404  0  3.936048  0
C  C48  1  0.58360021  0.05045893  0.55604218  1  0  0.123153  0  3.737912  0  0  0.091745  0  3.98469  0  0  0.100166  0  4.003145  0  0  0.037625  0.086675  0  3.971746  0
C  C49  1  0.94953927  0.41639810  0.44395969  1  0  0.123248  0  3.737935  0  0  0.091798  0  3.984725  0  0  0.100219  0  4.003174  0  0  0.037625  0.086731  0  3.971786  0
C  C50  1  0.84601459  0.87799416  0.99055893  1  0  0.155034  0  3.705459  0  0  0.122571  0  3.955676  0  0  0.132893  0  3.972795  0  0  0.051628  0.115844  0  3.943796  0
C  C51  1  0.12200687  0.15398510  0.00944122  1  0  0.155107  0  3.705379  0  0  0.122642  0  3.955593  0  0  0.132964  0  3.972714  0  0  0.051651  0.115916  0  3.943712  0
C  C52  1  0.81318536  0.93824303  0.10299495  1  0  -0.22971  0  3.679414  0  0  -0.245708  0  3.930725  0  0  -0.257399  0  3.95022  0  0  -0.09162  -0.238191  0  3.917807  0
C  C53  1  0.06175840  0.18681364  0.89700607  1  0  -0.229634  0  3.679342  0  0  -0.245648  0  3.930623  0  0  -0.257338  0  3.950119  0  0  -0.091607  -0.238129  0  3.917704  0
C  C54  1  0.68421669  0.08374718  0.11951888  1  0  0.319496  0  3.768611  0  0  0.304173  0  4.022192  0  0  0.320466  0  4.0387  0  0  0.1275  0.293615  0  4.010229  0
C  C55  1  0.91625318  0.31578294  0.88048085  1  0  0.31936  0  3.768695  0  0  0.304092  0  4.022195  0  0  0.320385  0  4.038705  0  0  0.127479  0.293534  0  4.010232  0
C  C56  1  0.60366044  0.16437665  0.01620274  1  0  -0.225565  0  3.707832  0  0  -0.243769  0  3.964325  0  0  -0.255042  0  3.984733  0  0  -0.092599  -0.236152  0  3.949989  0
C  C57  1  0.83562378  0.39633904  0.98379689  1  0  -0.225521  0  3.707728  0  0  -0.243726  0  3.96421  0  0  -0.254998  0  3.984617  0  0  -0.092613  -0.23611  0  3.949874  0
C  C58  1  0.64427255  0.09516367  0.90815927  1  0  0.147813  0  3.746788  0  0  0.112273  0  4.002065  0  0  0.122223  0  4.019325  0  0  0.04279  0.105718  0  3.989914  0
C  C59  1  0.90483690  0.35572562  0.09184146  1  0  0.147842  0  3.746739  0  0  0.112297  0  4.002014  0  0  0.122248  0  4.019275  0  0  0.042821  0.105742  0  3.989864  0
C  C60  1  0.49868698  0.79775983  0.80419123  1  0  0.690198  0  3.853289  0  0  0.645683  0  4.151256  0  0  0.677841  0  4.145357  0  0  0.20114  0.624188  0  4.153905  0
C  C61  1  0.20223935  0.50131216  0.19580992  1  0  0.690095  0  3.853398  0  0  0.645599  0  4.151347  0  0  0.677753  0  4.145452  0  0  0.201162  0.624104  0  4.153996  0
C  C62  1  0.38869002  0.71215422  0.83017693  1  0  -0.25974  0  3.697808  0  0  -0.301703  0  3.952606  0  0  -0.30747  0  3.961704  0  0  -0.171396  -0.297509  0  3.945409  0
C  C63  1  0.28784612  0.61131024  0.16982216  1  0  -0.259699  0  3.697846  0  0  -0.30167  0  3.952649  0  0  -0.307421  0  3.961731  0  0  -0.171399  -0.297477  0  3.945454  0
C  C64  1  0.39384800  0.62273443  0.72275317  1  0  -0.123142  0  3.667777  0  0  -0.167936  0  3.918162  0  0  -0.168429  0  3.931848  0  0  -0.163761  -0.167231  0  3.907761  0
C  C65  1  0.37726473  0.60615277  0.27724605  1  0  -0.123136  0  3.667741  0  0  -0.167887  0  3.91818  0  0  -0.168384  0  3.931862  0  0  -0.163762  -0.167181  0  3.907772  0
C  C66  1  0.26665877  0.55494785  0.73482304  1  0  0.072197  0  3.612041  0  0  0.110102  0  3.834899  0  0  0.105666  0  3.853967  0  0  -0.020737  0.112741  0  3.821486  0
C  C67  1  0.44505102  0.73334148  0.26517623  1  0  0.072364  0  3.611769  0  0  0.110049  0  3.834949  0  0  0.105612  0  3.854023  0  0  -0.020747  0.11269  0  3.821534  0
C  C68  1  0.10213284  0.68862317  0.72524212  1  0  0.620415  0  3.836864  0  0  0.575818  0  4.125088  0  0  0.607193  0  4.120677  0  0  0.203428  0.554692  0  4.127449  0
C  C69  1  0.31137672  0.89786703  0.27475779  1  0  0.620323  0  3.836838  0  0  0.575793  0  4.125058  0  0  0.607169  0  4.12065  0  0  0.203425  0.554666  0  4.12742  0
C  C70  1  0.26772116  0.45463074  0.85554650  1  0  -0.3195  0  3.665399  0  0  -0.402382  0  3.897024  0  0  -0.404242  0  3.907677  0  0  -0.248836  -0.400697  0  3.889905  0
C  C71  1  0.54536850  0.73227937  0.14445276  1  0  -0.319543  0  3.665407  0  0  -0.402369  0  3.897076  0  0  -0.40423  0  3.907731  0  0  -0.248845  -0.400685  0  3.889957  0
C  C72  1  0.29715222  0.45234684  0.62907250  1  0  -0.31731  0  3.665493  0  0  -0.395796  0  3.899572  0  0  -0.398505  0  3.910345  0  0  -0.2411  -0.393718  0  3.892216  0
C  C73  1  0.54765269  0.70284762  0.37092682  1  0  -0.317416  0  3.66544  0  0  -0.395855  0  3.899552  0  0  -0.398562  0  3.910324  0  0  -0.241117  -0.393774  0  3.892193  0
N  N74  1  0.73307195  0.95468634  0.58168888  1  0  -0.362966  0  3.32534  0  0  -0.275763  0  3.610452  0  0  -0.297123  0  3.624023  0  0  -0.346208  -0.26156  0  3.600629  0
N  N75  1  0.04531367  0.26692732  0.41831221  1  0  -0.362878  0  3.325233  0  0  -0.275668  0  3.61034  0  0  -0.297026  0  3.623914  0  0  -0.346161  -0.261463  0  3.600509  0
N  N76  1  0.62182065  0.15008081  0.22800971  1  0  -0.401403  0  3.333709  0  0  -0.343591  0  3.569873  0  0  -0.365685  0  3.578858  0  0  -0.391459  -0.328302  0  3.562761  0
N  N77  1  0.84991880  0.37817817  0.77199011  1  0  -0.401404  0  3.333709  0  0  -0.343612  0  3.569818  0  0  -0.365703  0  3.578799  0  0  -0.391483  -0.328324  0  3.562709  0
N  N78  1  0.76243468  0.95175684  0.89416628  1  0  -0.359438  0  3.327504  0  0  -0.273498  0  3.611055  0  0  -0.295233  0  3.62459  0  0  -0.347316  -0.258878  0  3.601386  0
N  N79  1  0.04824249  0.23756439  0.10583403  1  0  -0.359494  0  3.327536  0  0  -0.273544  0  3.611073  0  0  -0.295277  0  3.624608  0  0  -0.347333  -0.258924  0  3.601402  0
O  O80  1  0.64775171  0.70831562  0.77907419  1  0  -0.67718  0  2.044535  0  0  -0.593974  0  2.30735  0  0  -0.622792  0  2.29338  0  0  -0.337462  -0.574039  0  2.315611  0
O  O81  1  0.29168553  0.35224838  0.22092588  1  0  -0.677085  0  2.044471  0  0  -0.593931  0  2.307327  0  0  -0.62275  0  2.293363  0  0  -0.337474  -0.574002  0  2.315598  0
O  O82  1  0.44829652  0.94425242  0.80604847  1  0  -0.624939  0  1.891964  0  0  -0.576166  0  2.108557  0  0  -0.599226  0  2.101012  0  0  -0.324396  -0.560142  0  2.113183  0
O  O83  1  0.05574717  0.55170268  0.19395160  1  0  -0.624877  0  1.892069  0  0  -0.576104  0  2.108645  0  0  -0.599167  0  2.101109  0  0  -0.324378  -0.560078  0  2.11327  0
O  O84  1  0.08532315  0.82794620  0.69100984  1  0  -0.625345  0  1.954139  0  0  -0.577413  0  2.18582  0  0  -0.600469  0  2.177847  0  0  -0.321209  -0.561611  0  2.190544  0
O  O85  1  0.17205310  0.91467805  0.30899079  1  0  -0.625314  0  1.95414  0  0  -0.57739  0  2.185806  0  0  -0.600447  0  2.177833  0  0  -0.321217  -0.561589  0  2.190531  0
O  O86  1  0.98427914  0.64613855  0.75265456  1  0  -0.642363  0  2.032288  0  0  -0.563675  0  2.297521  0  0  -0.591942  0  2.285857  0  0  -0.339928  -0.545113  0  2.305247  0
O  O87  1  0.35386141  0.01572115  0.24734408  1  0  -0.64235  0  2.03231  0  0  -0.56367  0  2.297531  0  0  -0.591931  0  2.285861  0  0  -0.33993  -0.545106  0  2.305257  0
