# generated using pymatgen
data_CaH12C12(NO4)2
_symmetry_space_group_name_H-M   'P 1'
_cell_length_a   7.84369609
_cell_length_b   8.87870194
_cell_length_c   9.89709980
_cell_angle_alpha   90.00009370
_cell_angle_beta   90.00054837
_cell_angle_gamma   95.13531947
_symmetry_Int_Tables_number   1
_chemical_formula_structural   CaH12C12(NO4)2
_chemical_formula_sum   'Ca2 H24 C24 N4 O16'
_cell_volume   686.48563301
_cell_formula_units_Z   2
loop_
 _symmetry_equiv_pos_site_id
 _symmetry_equiv_pos_as_xyz
  1  'x, y, z'
loop_
 _atom_site_type_symbol
 _atom_site_label
 _atom_site_symmetry_multiplicity
 _atom_site_fract_x
 _atom_site_fract_y
 _atom_site_fract_z
 _atom_site_occupancy
 _atom_site_hle17_bader_spin_density
 _atom_site_hle17_ddec_charge
 _atom_site_hle17_ddec_spin_density
 _atom_site_hle17_ddec_sum_bond_order
 _atom_site_hle17_magmom
 _atom_site_hse06_10hf_bader_spin_density
 _atom_site_hse06_10hf_ddec_charge
 _atom_site_hse06_10hf_ddec_spin_density
 _atom_site_hse06_10hf_ddec_sum_bond_order
 _atom_site_hse06_10hf_magmom
 _atom_site_hse06_bader_spin_density
 _atom_site_hse06_ddec_charge
 _atom_site_hse06_ddec_spin_density
 _atom_site_hse06_ddec_sum_bond_order
 _atom_site_hse06_magmom
 _atom_site_pbe_bader_spin_density
 _atom_site_pbe_cm5_charge
 _atom_site_pbe_ddec_charge
 _atom_site_pbe_ddec_spin_density
 _atom_site_pbe_ddec_sum_bond_order
 _atom_site_pbe_magmom
Ca  Ca0  1  0.49999911  0.99999939  0.50000063  1  0  1.572973  0  1.157855  0  0  1.446225  0  1.527477  0  0  1.488804  0  1.479372  0  0  0.883413  1.414509  0  1.560364  0
Ca  Ca1  1  0.49999908  0.50000054  0.00000026  1  0  1.572924  0  1.157856  0  0  1.446138  0  1.527545  0  0  1.488728  0  1.479426  0  0  0.8834  1.414446  0  1.560394  0
H  H2  1  0.11929973  0.88928218  0.48409242  1  0  0.402105  0  0.912563  0  0  0.366645  0  0.985636  0  0  0.378356  0  0.968671  0  0  0.286417  0.358178  0  0.997898  0
H  H3  1  0.88070149  0.61071572  0.98409210  1  0  0.402113  0  0.912554  0  0  0.366653  0  0.985627  0  0  0.378365  0  0.968661  0  0  0.286422  0.358187  0  0.997889  0
H  H4  1  0.88070038  0.11071691  0.51590913  1  0  0.402119  0  0.912545  0  0  0.366653  0  0.985626  0  0  0.378365  0  0.968661  0  0  0.286416  0.358187  0  0.997888  0
H  H5  1  0.11929850  0.38928224  0.01590843  1  0  0.402154  0  0.91249  0  0  0.366706  0  0.985543  0  0  0.378417  0  0.968579  0  0  0.286452  0.35824  0  0.997804  0
H  H6  1  0.14710869  0.05577747  0.42387932  1  0  0.410094  0  0.897655  0  0  0.376255  0  0.966671  0  0  0.387132  0  0.951022  0  0  0.291867  0.36854  0  0.977772  0
H  H7  1  0.85289126  0.44422170  0.92387827  1  0  0.410092  0  0.897653  0  0  0.376255  0  0.966669  0  0  0.387131  0  0.951019  0  0  0.291865  0.36854  0  0.977769  0
H  H8  1  0.85289142  0.94422162  0.57612121  1  0  0.410103  0  0.897646  0  0  0.376262  0  0.966668  0  0  0.387138  0  0.951019  0  0  0.291855  0.368546  0  0.97777  0
H  H9  1  0.14710885  0.55577739  0.07612125  1  0  0.410102  0  0.897643  0  0  0.376264  0  0.966659  0  0  0.38714  0  0.95101  0  0  0.291877  0.368549  0  0.97776  0
H  H10  1  0.01326375  0.25864047  0.67064216  1  0  0.115589  0  0.94679  0  0  0.119848  0  1.016769  0  0  0.124201  0  1.012185  0  0  0.130234  0.116563  0  1.019832  0
H  H11  1  0.98674086  0.24135911  0.17063979  1  0  0.115582  0  0.946796  0  0  0.119843  0  1.016774  0  0  0.124192  0  1.012193  0  0  0.130242  0.116558  0  1.019841  0
H  H12  1  0.98673776  0.74135975  0.32935837  1  0  0.11564  0  0.946708  0  0  0.119882  0  1.016713  0  0  0.124227  0  1.012139  0  0  0.13025  0.116598  0  1.019773  0
H  H13  1  0.01325809  0.75864111  0.82936074  1  0  0.115625  0  0.946799  0  0  0.11989  0  1.016763  0  0  0.124237  0  1.012183  0  0  0.130268  0.116602  0  1.019832  0
H  H14  1  0.22372115  0.41837275  0.30648792  1  0  0.123801  0  0.937209  0  0  0.13168  0  0.999888  0  0  0.135992  0  0.995413  0  0  0.135478  0.128925  0  1.002857  0
H  H15  1  0.77627550  0.08162044  0.80648474  1  0  0.123847  0  0.93716  0  0  0.1317  0  0.999881  0  0  0.136014  0  0.995408  0  0  0.135497  0.128944  0  1.002853  0
H  H16  1  0.77627769  0.58162634  0.69351059  1  0  0.123802  0  0.937219  0  0  0.131654  0  0.999919  0  0  0.135963  0  0.995446  0  0  0.135484  0.128901  0  1.002891  0
H  H17  1  0.22372577  0.91837751  0.19351478  1  0  0.123834  0  0.937189  0  0  0.131709  0  0.999883  0  0  0.136017  0  0.995409  0  0  0.135508  0.128955  0  1.002854  0
H  H18  1  0.17855595  0.46465903  0.80042541  1  0  0.112469  0  0.965012  0  0  0.118357  0  1.031931  0  0  0.12275  0  1.028799  0  0  0.121467  0.115683  0  1.033743  0
H  H19  1  0.82144678  0.03534431  0.30042350  1  0  0.112509  0  0.965002  0  0  0.118387  0  1.031913  0  0  0.122788  0  1.028773  0  0  0.121489  0.115714  0  1.033724  0
H  H20  1  0.82144706  0.53534345  0.19957311  1  0  0.112487  0  0.965017  0  0  0.118375  0  1.031937  0  0  0.122766  0  1.028807  0  0  0.121483  0.115699  0  1.033752  0
H  H21  1  0.17855102  0.96465704  0.69957805  1  0  0.112537  0  0.964983  0  0  0.118394  0  1.031911  0  0  0.122795  0  1.02877  0  0  0.121495  0.115721  0  1.033722  0
H  H22  1  0.39394526  0.63599761  0.42351190  1  0  0.132229  0  0.953674  0  0  0.135819  0  1.020032  0  0  0.140909  0  1.016408  0  0  0.123889  0.132002  0  1.022815  0
H  H23  1  0.60605000  0.86399899  0.92351187  1  0  0.132373  0  0.95362  0  0  0.135897  0  1.02003  0  0  0.14098  0  1.016416  0  0  0.123903  0.132084  0  1.022802  0
H  H24  1  0.60605381  0.36400374  0.57648459  1  0  0.132299  0  0.953617  0  0  0.135815  0  1.020056  0  0  0.140905  0  1.016432  0  0  0.123845  0.132004  0  1.022824  0
H  H25  1  0.39395139  0.13600009  0.07648866  1  0  0.132376  0  0.953647  0  0  0.135908  0  1.020039  0  0  0.140987  0  1.016438  0  0  0.1239  0.132093  0  1.022819  0
C  C26  1  0.10025653  0.34405864  0.62201417  1  0  0.005559  0  3.601977  0  0  -0.037424  0  3.869042  0  0  -0.030977  0  3.880515  0  0  0.041807  -0.039734  0  3.860074  0
C  C27  1  0.89974505  0.15594193  0.12201202  1  0  0.005599  0  3.602072  0  0  -0.03739  0  3.869095  0  0  -0.030938  0  3.880574  0  0  0.041793  -0.039701  0  3.860126  0
C  C28  1  0.89974497  0.65594157  0.37798636  1  0  0.005526  0  3.601971  0  0  -0.037457  0  3.869048  0  0  -0.031004  0  3.880524  0  0  0.04179  -0.039766  0  3.86008  0
C  C29  1  0.10025263  0.84405829  0.87798851  1  0  0.005452  0  3.602152  0  0  -0.037546  0  3.869176  0  0  -0.031092  0  3.880654  0  0  0.04171  -0.039857  0  3.860208  0
C  C30  1  0.30204544  0.56554942  0.62317301  1  0  -0.033507  0  3.711313  0  0  -0.023364  0  3.953811  0  0  -0.023962  0  3.971007  0  0  0.002778  -0.021815  0  3.941904  0
C  C31  1  0.69795426  0.93445085  0.12317176  1  0  -0.033518  0  3.711189  0  0  -0.023394  0  3.953692  0  0  -0.023986  0  3.970881  0  0  0.002788  -0.021846  0  3.941786  0
C  C32  1  0.69795491  0.43445193  0.37682550  1  0  -0.033541  0  3.711412  0  0  -0.023391  0  3.953885  0  0  -0.023994  0  3.971084  0  0  0.00283  -0.02184  0  3.941979  0
C  C33  1  0.30204330  0.06554824  0.87682979  1  0  -0.033478  0  3.711244  0  0  -0.02338  0  3.953749  0  0  -0.023972  0  3.970936  0  0  0.002753  -0.021834  0  3.941845  0
C  C34  1  0.41205763  0.68282053  0.70200571  1  0  0.689874  0  3.930029  0  0  0.640599  0  4.227071  0  0  0.674563  0  4.217109  0  0  0.229078  0.617378  0  4.232846  0
C  C35  1  0.58794187  0.81718110  0.20200546  1  0  0.689953  0  3.929972  0  0  0.640672  0  4.227019  0  0  0.674629  0  4.217066  0  0  0.229071  0.61745  0  4.232796  0
C  C36  1  0.58794387  0.31717969  0.29799382  1  0  0.689999  0  3.929904  0  0  0.640716  0  4.226941  0  0  0.674686  0  4.216965  0  0  0.229103  0.617493  0  4.232719  0
C  C37  1  0.41205836  0.18281912  0.79799508  1  0  0.689905  0  3.929894  0  0  0.64066  0  4.226905  0  0  0.674619  0  4.216946  0  0  0.229102  0.617439  0  4.232685  0
C  C38  1  0.22010701  0.43630774  0.41536223  1  0  0.01554  0  3.56447  0  0  -0.025744  0  3.826897  0  0  -0.019957  0  3.839632  0  0  0.047385  -0.030819  0  3.81945  0
C  C39  1  0.77989109  0.06368688  0.91536007  1  0  0.01554  0  3.564513  0  0  -0.025765  0  3.826977  0  0  -0.019981  0  3.839712  0  0  0.047367  -0.030843  0  3.819539  0
C  C40  1  0.77989183  0.56369135  0.58463628  1  0  0.015487  0  3.564599  0  0  -0.025763  0  3.826996  0  0  -0.019971  0  3.839726  0  0  0.047355  -0.030842  0  3.819557  0
C  C41  1  0.22011030  0.93631220  0.08464046  1  0  0.015529  0  3.564425  0  0  -0.025791  0  3.826893  0  0  -0.019997  0  3.839621  0  0  0.047355  -0.030871  0  3.819453  0
C  C42  1  0.19183173  0.45920871  0.69137128  1  0  -0.08281  0  3.733753  0  0  -0.107318  0  3.993068  0  0  -0.110248  0  4.009849  0  0  -0.065768  -0.106109  0  3.980853  0
C  C43  1  0.80816955  0.04079319  0.19136928  1  0  -0.082905  0  3.733862  0  0  -0.107378  0  3.993137  0  0  -0.110322  0  4.009931  0  0  -0.065814  -0.106168  0  3.980922  0
C  C44  1  0.80816747  0.54079377  0.30862723  1  0  -0.082836  0  3.733879  0  0  -0.107327  0  3.99315  0  0  -0.110261  0  4.00995  0  0  -0.065808  -0.106118  0  3.980935  0
C  C45  1  0.19182941  0.95920703  0.80863226  1  0  -0.082919  0  3.733938  0  0  -0.107348  0  3.993171  0  0  -0.110292  0  4.009965  0  0  -0.065788  -0.106139  0  3.980957  0
C  C46  1  0.31160491  0.55449723  0.48217214  1  0  -0.09482  0  3.69976  0  0  -0.113785  0  3.95143  0  0  -0.117792  0  3.969415  0  0  -0.063492  -0.111618  0  3.940463  0
C  C47  1  0.68839246  0.94550067  0.98216983  1  0  -0.094954  0  3.699744  0  0  -0.113828  0  3.951427  0  0  -0.117832  0  3.969405  0  0  -0.063483  -0.11165  0  3.940446  0
C  C48  1  0.68839544  0.44550412  0.51782536  1  0  -0.094841  0  3.699845  0  0  -0.113751  0  3.951495  0  0  -0.117761  0  3.969484  0  0  -0.06346  -0.11158  0  3.940528  0
C  C49  1  0.31160777  0.05449955  0.01782969  1  0  -0.094949  0  3.699793  0  0  -0.113828  0  3.9515  0  0  -0.117837  0  3.969475  0  0  -0.063462  -0.111656  0  3.940527  0
N  N50  1  0.11815331  0.33138488  0.48582888  1  0  0.274176  0  3.700279  0  0  0.324443  0  3.962655  0  0  0.324055  0  3.985413  0  0  -0.109319  0.324043  0  3.947629  0
N  N51  1  0.88184589  0.16861220  0.98582663  1  0  0.274119  0  3.700251  0  0  0.324414  0  3.962618  0  0  0.324028  0  3.985374  0  0  -0.10935  0.324014  0  3.947595  0
N  N52  1  0.88184692  0.66861534  0.51417065  1  0  0.274176  0  3.7003  0  0  0.324447  0  3.962666  0  0  0.32406  0  3.985421  0  0  -0.109306  0.324046  0  3.947641  0
N  N53  1  0.11815306  0.83138802  0.01417390  1  0  0.274245  0  3.700156  0  0  0.324528  0  3.962529  0  0  0.32414  0  3.985284  0  0  -0.109289  0.324128  0  3.947504  0
O  O54  1  0.48064622  0.79620463  0.63863193  1  0  -0.707383  0  1.966735  0  0  -0.650586  0  2.216527  0  0  -0.677081  0  2.205509  0  0  -0.390914  -0.632233  0  2.22374  0
O  O55  1  0.51935251  0.70379681  0.13863200  1  0  -0.707419  0  1.966763  0  0  -0.650608  0  2.216557  0  0  -0.677102  0  2.20554  0  0  -0.390908  -0.632258  0  2.223764  0
O  O56  1  0.51935784  0.20379558  0.36136961  1  0  -0.707461  0  1.966674  0  0  -0.65066  0  2.216471  0  0  -0.677151  0  2.205437  0  0  -0.39092  -0.632319  0  2.22371  0
O  O57  1  0.48064772  0.29620341  0.86136752  1  0  -0.707421  0  1.966781  0  0  -0.650625  0  2.216563  0  0  -0.677119  0  2.205543  0  0  -0.390916  -0.632274  0  2.223769  0
O  O58  1  0.03520721  0.21644722  0.42064271  1  0  -0.564887  0  1.792271  0  0  -0.507639  0  2.002776  0  0  -0.532971  0  2.003567  0  0  -0.22615  -0.490209  0  2.002494  0
O  O59  1  0.96479119  0.28354969  0.92064127  1  0  -0.564868  0  1.792242  0  0  -0.507654  0  2.002745  0  0  -0.532985  0  2.003536  0  0  -0.226148  -0.490227  0  2.002468  0
O  O60  1  0.96479302  0.78355300  0.57935782  1  0  -0.564879  0  1.792267  0  0  -0.507646  0  2.002783  0  0  -0.532978  0  2.003574  0  0  -0.226158  -0.490214  0  2.002501  0
O  O61  1  0.03520892  0.71644940  0.07935926  1  0  -0.564892  0  1.792287  0  0  -0.507653  0  2.002774  0  0  -0.532985  0  2.003564  0  0  -0.226145  -0.490224  0  2.002496  0
O  O62  1  0.20305262  0.95991524  0.43398720  1  0  -0.876677  0  1.812426  0  0  -0.81796  0  1.997762  0  0  -0.839593  0  1.964123  0  0  -0.621814  -0.802671  0  2.020779  0
O  O63  1  0.79694556  0.54008365  0.93398816  1  0  -0.876657  0  1.812396  0  0  -0.817938  0  1.997746  0  0  -0.839575  0  1.964105  0  0  -0.621801  -0.802653  0  2.020759  0
O  O64  1  0.79694634  0.04008498  0.56601333  1  0  -0.876699  0  1.812402  0  0  -0.817974  0  1.997745  0  0  -0.83961  0  1.964109  0  0  -0.6218  -0.802684  0  2.020761  0
O  O65  1  0.20305328  0.45991545  0.06601237  1  0  -0.876717  0  1.812376  0  0  -0.817996  0  1.997712  0  0  -0.839633  0  1.964073  0  0  -0.621849  -0.80271  0  2.020725  0
O  O66  1  0.43040010  0.65912590  0.82720203  1  0  -0.707837  0  1.979577  0  0  -0.652918  0  2.231201  0  0  -0.679752  0  2.220668  0  0  -0.374652  -0.633348  0  2.237138  0
O  O67  1  0.56960002  0.84087947  0.32720167  1  0  -0.707857  0  1.979549  0  0  -0.652942  0  2.231164  0  0  -0.679775  0  2.220637  0  0  -0.374632  -0.633364  0  2.237099  0
O  O68  1  0.56959885  0.34087432  0.17279749  1  0  -0.707855  0  1.97952  0  0  -0.652956  0  2.231182  0  0  -0.679791  0  2.220645  0  0  -0.374657  -0.633381  0  2.237117  0
O  O69  1  0.43039882  0.15911962  0.67279987  1  0  -0.707873  0  1.979554  0  0  -0.652965  0  2.231172  0  0  -0.679799  0  2.220644  0  0  -0.37468  -0.633382  0  2.237095  0
