# generated using pymatgen
data_CdH30C28(N2O3)2
_symmetry_space_group_name_H-M   'P 1'
_cell_length_a   9.39366494
_cell_length_b   11.34330406
_cell_length_c   14.23475211
_cell_angle_alpha   100.34617762
_cell_angle_beta   102.40377229
_cell_angle_gamma   106.65271524
_symmetry_Int_Tables_number   1
_chemical_formula_structural   CdH30C28(N2O3)2
_chemical_formula_sum   'Cd2 H60 C56 N8 O12'
_cell_volume   1371.30814744
_cell_formula_units_Z   2
loop_
 _symmetry_equiv_pos_site_id
 _symmetry_equiv_pos_as_xyz
  1  'x, y, z'
loop_
 _atom_site_type_symbol
 _atom_site_label
 _atom_site_symmetry_multiplicity
 _atom_site_fract_x
 _atom_site_fract_y
 _atom_site_fract_z
 _atom_site_occupancy
 _atom_site_hle17_bader_spin_density
 _atom_site_hle17_ddec_charge
 _atom_site_hle17_ddec_spin_density
 _atom_site_hle17_ddec_sum_bond_order
 _atom_site_hle17_magmom
 _atom_site_hse06_10hf_bader_spin_density
 _atom_site_hse06_10hf_ddec_charge
 _atom_site_hse06_10hf_ddec_spin_density
 _atom_site_hse06_10hf_ddec_sum_bond_order
 _atom_site_hse06_10hf_magmom
 _atom_site_hse06_bader_spin_density
 _atom_site_hse06_ddec_charge
 _atom_site_hse06_ddec_spin_density
 _atom_site_hse06_ddec_sum_bond_order
 _atom_site_hse06_magmom
 _atom_site_pbe_bader_spin_density
 _atom_site_pbe_cm5_charge
 _atom_site_pbe_ddec_charge
 _atom_site_pbe_ddec_spin_density
 _atom_site_pbe_ddec_sum_bond_order
 _atom_site_pbe_magmom
Cd  Cd0  1  0.91151808  0.59423790  0.58722698  1  0  1.108846  0  1.675748  0  0  0.911741  0  2.121036  0  0  0.973697  0  2.068504  0  0  0.763872  0.868584  0  2.15534  0
Cd  Cd1  1  0.08848304  0.40575555  0.41276855  1  0  1.108812  0  1.675694  0  0  0.911715  0  2.120989  0  0  0.973674  0  2.068453  0  0  0.763858  0.868551  0  2.15529  0
H  H2  1  0.50003939  0.71994142  0.97574403  1  0  0.301703  0  0.863975  0  0  0.294301  0  0.910997  0  0  0.30019  0  0.907577  0  0  0.329093  0.289983  0  0.913741  0
H  H3  1  0.49998012  0.28006468  0.02424705  1  0  0.301722  0  0.863844  0  0  0.294288  0  0.910915  0  0  0.300179  0  0.907494  0  0  0.329051  0.289969  0  0.913655  0
H  H4  1  0.35056425  0.39238764  0.26113737  1  0  0.323819  0  0.907003  0  0  0.305348  0  0.970678  0  0  0.313712  0  0.963459  0  0  0.31055  0.299387  0  0.975803  0
H  H5  1  0.64945078  0.60760564  0.73887006  1  0  0.323836  0  0.907064  0  0  0.305276  0  0.970841  0  0  0.313639  0  0.963627  0  0  0.31062  0.299316  0  0.975963  0
H  H6  1  0.94482014  0.36477544  0.69062149  1  0  0.080785  0  0.967053  0  0  0.088657  0  1.031958  0  0  0.090297  0  1.031562  0  0  0.113775  0.087514  0  1.031995  0
H  H7  1  0.05520029  0.63522276  0.30938117  1  0  0.080691  0  0.966975  0  0  0.088575  0  1.031871  0  0  0.090205  0  1.031467  0  0  0.113801  0.087433  0  1.031911  0
H  H8  1  0.12346163  0.32560489  0.83014119  1  0  0.096789  0  0.9505  0  0  0.109544  0  1.005628  0  0  0.112031  0  1.005499  0  0  0.106579  0.107627  0  1.006112  0
H  H9  1  0.87655756  0.67440655  0.16986612  1  0  0.096788  0  0.950502  0  0  0.109554  0  1.005632  0  0  0.112039  0  1.005509  0  0  0.106557  0.107636  0  1.006118  0
H  H10  1  0.35878396  0.50784741  0.93844000  1  0  0.114489  0  0.975913  0  0  0.121319  0  1.041812  0  0  0.125578  0  1.037883  0  0  0.107022  0.118154  0  1.044757  0
H  H11  1  0.64122846  0.49216878  0.06156561  1  0  0.114525  0  0.975805  0  0  0.121334  0  1.041757  0  0  0.125595  0  1.037823  0  0  0.107003  0.118169  0  1.044702  0
H  H12  1  0.23211841  0.73878561  0.74688484  1  0  0.108917  0  0.975501  0  0  0.110246  0  1.047396  0  0  0.11417  0  1.043385  0  0  0.117903  0.107349  0  1.050439  0
H  H13  1  0.76787598  0.26121821  0.25311338  1  0  0.108882  0  0.975613  0  0  0.110311  0  1.04742  0  0  0.114236  0  1.043407  0  0  0.117955  0.107413  0  1.050464  0
H  H14  1  0.63842005  0.94994679  0.04698095  1  0  0.101511  0  0.924979  0  0  0.119337  0  0.981379  0  0  0.121649  0  0.980349  0  0  0.102241  0.117797  0  0.981915  0
H  H15  1  0.36158549  0.05007621  0.95301624  1  0  0.101502  0  0.924847  0  0  0.119287  0  0.981335  0  0  0.121601  0  0.980304  0  0  0.102222  0.117747  0  0.98187  0
H  H16  1  0.75297004  0.89514454  0.97895733  1  0  0.088393  0  0.948764  0  0  0.104379  0  1.016197  0  0  0.106413  0  1.015072  0  0  0.09721  0.103146  0  1.016631  0
H  H17  1  0.24701666  0.10485146  0.02104627  1  0  0.088315  0  0.948715  0  0  0.10433  0  1.01615  0  0  0.106365  0  1.015025  0  0  0.097166  0.103097  0  1.016581  0
H  H18  1  0.63323376  0.11609111  0.95249979  1  0  0.057553  0  0.953374  0  0  0.074466  0  1.017312  0  0  0.075451  0  1.017405  0  0  0.085983  0.07362  0  1.017197  0
H  H19  1  0.36678012  0.88392042  0.04750181  1  0  0.057531  0  0.95358  0  0  0.074467  0  1.017503  0  0  0.07545  0  1.0176  0  0  0.085999  0.073625  0  1.017389  0
H  H20  1  0.73207887  0.05589947  0.87649499  1  0  0.06143  0  0.975788  0  0  0.079358  0  1.039687  0  0  0.07982  0  1.040385  0  0  0.089795  0.078747  0  1.039455  0
H  H21  1  0.26792979  0.94410168  0.12350004  1  0  0.061464  0  0.975906  0  0  0.079433  0  1.039762  0  0  0.0799  0  1.040451  0  0  0.089819  0.078821  0  1.039535  0
H  H22  1  0.86551236  0.18228410  0.10079584  1  0  0.065623  0  0.940446  0  0  0.086023  0  0.998615  0  0  0.086088  0  1.000529  0  0  0.08687  0.08576  0  0.997588  0
H  H23  1  0.13450175  0.81771986  0.89920324  1  0  0.065668  0  0.940337  0  0  0.085942  0  0.998677  0  0  0.086007  0  1.000592  0  0  0.086852  0.085689  0  0.997642  0
H  H24  1  0.96353491  0.11330863  0.02672454  1  0  0.049368  0  0.944429  0  0  0.071022  0  1.005688  0  0  0.070812  0  1.006942  0  0  0.081328  0.071155  0  1.004601  0
H  H25  1  0.03647936  0.88669827  0.97327150  1  0  0.049348  0  0.944534  0  0  0.071012  0  1.005742  0  0  0.070802  0  1.006995  0  0  0.081317  0.071146  0  1.004653  0
H  H26  1  0.83230522  0.32188589  0.98063463  1  0  0.06422  0  0.941262  0  0  0.082099  0  1.00403  0  0  0.083201  0  1.004204  0  0  0.087163  0.081144  0  1.004263  0
H  H27  1  0.16770338  0.67811521  0.01936249  1  0  0.064147  0  0.94123  0  0  0.081992  0  1.004024  0  0  0.083094  0  1.004199  0  0  0.087128  0.081044  0  1.004255  0
H  H28  1  0.94841108  0.26084976  0.91838841  1  0  0.052448  0  0.941969  0  0  0.073511  0  1.001097  0  0  0.073772  0  1.002174  0  0  0.083556  0.073187  0  1.000519  0
H  H29  1  0.05160534  0.73916272  0.08161443  1  0  0.052411  0  0.941907  0  0  0.073436  0  1.001076  0  0  0.073702  0  1.002148  0  0  0.08349  0.073114  0  1.0005  0
H  H30  1  0.05027477  0.41321747  0.13743555  1  0  0.06969  0  0.951221  0  0  0.087485  0  1.01263  0  0  0.087658  0  1.015025  0  0  0.088782  0.087484  0  1.010722  0
H  H31  1  0.94972256  0.58676995  0.86257185  1  0  0.069607  0  0.951316  0  0  0.087426  0  1.012663  0  0  0.087601  0  1.015054  0  0  0.088768  0.087427  0  1.010754  0
H  H32  1  0.09298597  0.47457809  0.03744414  1  0  0.063997  0  0.961409  0  0  0.081664  0  1.025193  0  0  0.082422  0  1.025974  0  0  0.089002  0.081088  0  1.02473  0
H  H33  1  0.90702514  0.52543017  0.96257412  1  0  0.064095  0  0.96134  0  0  0.081604  0  1.025288  0  0  0.082359  0  1.026076  0  0  0.089043  0.081028  0  1.024823  0
H  H34  1  0.20878187  0.27555998  0.11702201  1  0  0.092097  0  0.966183  0  0  0.104063  0  1.034744  0  0  0.106411  0  1.033667  0  0  0.095  0.102436  0  1.035596  0
H  H35  1  0.79121853  0.72443439  0.88297426  1  0  0.092086  0  0.966072  0  0  0.104048  0  1.034649  0  0  0.106393  0  1.033575  0  0  0.095038  0.102421  0  1.035496  0
H  H36  1  0.23988887  0.32327623  0.00770039  1  0  0.085044  0  0.935118  0  0  0.104192  0  0.992581  0  0  0.10581  0  0.991956  0  0  0.094774  0.102963  0  0.993319  0
H  H37  1  0.76011418  0.67673036  0.99230446  1  0  0.084984  0  0.935026  0  0  0.104119  0  0.992539  0  0  0.10574  0  0.991907  0  0  0.094756  0.102892  0  0.993276  0
H  H38  1  0.83754003  0.83028445  0.52964840  1  0  0.073722  0  0.986248  0  0  0.080999  0  1.054141  0  0  0.082345  0  1.054335  0  0  0.111828  0.079841  0  1.054432  0
H  H39  1  0.16246762  0.16969910  0.47036487  1  0  0.0737  0  0.986349  0  0  0.081024  0  1.054235  0  0  0.082386  0  1.054382  0  0  0.111792  0.07986  0  1.05454  0
H  H40  1  0.67969737  0.89309646  0.39653244  1  0  0.099517  0  0.954718  0  0  0.112787  0  1.00869  0  0  0.114939  0  1.009077  0  0  0.108984  0.111003  0  1.009109  0
H  H41  1  0.32031105  0.10689738  0.60348954  1  0  0.099556  0  0.954772  0  0  0.112861  0  1.008692  0  0  0.115013  0  1.009084  0  0  0.109044  0.111074  0  1.009116  0
H  H42  1  0.47324179  0.72140572  0.25505048  1  0  0.118152  0  0.930161  0  0  0.131324  0  0.9818  0  0  0.134568  0  0.979091  0  0  0.115671  0.128887  0  0.983833  0
H  H43  1  0.52677806  0.27860194  0.74495565  1  0  0.118141  0  0.930271  0  0  0.13131  0  0.9819  0  0  0.134555  0  0.979193  0  0  0.11565  0.128869  0  0.983934  0
H  H44  1  0.61206789  0.44597646  0.39041785  1  0  0.095415  0  0.927241  0  0  0.105731  0  0.986963  0  0  0.108167  0  0.985215  0  0  0.120733  0.103828  0  0.988361  0
H  H45  1  0.38793423  0.55401132  0.60957556  1  0  0.095398  0  0.927188  0  0  0.105684  0  0.986966  0  0  0.108127  0  0.985207  0  0  0.120692  0.103735  0  0.988414  0
H  H46  1  0.86578490  0.93826386  0.82833209  1  0  0.100649  0  0.948603  0  0  0.114543  0  1.012147  0  0  0.116272  0  1.011482  0  0  0.095835  0.113383  0  1.01256  0
H  H47  1  0.13418702  0.06173311  0.17166523  1  0  0.100544  0  0.94856  0  0  0.114404  0  1.012213  0  0  0.11613  0  1.011549  0  0  0.095695  0.11325  0  1.012627  0
H  H48  1  0.05503056  0.00433762  0.81441498  1  0  0.105072  0  0.925906  0  0  0.121584  0  0.982029  0  0  0.123962  0  0.980254  0  0  0.099143  0.119969  0  0.98326  0
H  H49  1  0.94494681  0.99567271  0.18558379  1  0  0.105163  0  0.925727  0  0  0.121643  0  0.981899  0  0  0.124049  0  0.980087  0  0  0.099125  0.120027  0  0.983142  0
H  H50  1  0.08020600  0.07665940  0.65776039  1  0  0.089961  0  0.965075  0  0  0.099797  0  1.028778  0  0  0.102881  0  1.027391  0  0  0.09566  0.097534  0  1.030062  0
H  H51  1  0.91977940  0.92331683  0.34223157  1  0  0.089909  0  0.965317  0  0  0.099762  0  1.028955  0  0  0.102848  0  1.027566  0  0  0.09565  0.097477  0  1.030263  0
H  H52  1  0.96931009  0.16961712  0.52675376  1  0  0.092152  0  0.986125  0  0  0.101718  0  1.05299  0  0  0.104425  0  1.052156  0  0  0.097216  0.099767  0  1.053845  0
H  H53  1  0.03067849  0.83036959  0.47323957  1  0  0.09219  0  0.985933  0  0  0.101794  0  1.052743  0  0  0.104506  0  1.0519  0  0  0.097218  0.099817  0  1.053626  0
H  H54  1  0.53734066  0.06880292  0.59843878  1  0  0.085342  0  0.979782  0  0  0.098605  0  1.040598  0  0  0.100532  0  1.040901  0  0  0.097968  0.096895  0  1.041147  0
H  H55  1  0.46265005  0.93119927  0.40154599  1  0  0.085236  0  0.97981  0  0  0.098551  0  1.040542  0  0  0.100447  0  1.040893  0  0  0.097909  0.09684  0  1.041091  0
H  H56  1  0.64150065  0.96748893  0.72394795  1  0  0.104215  0  0.974178  0  0  0.113091  0  1.036917  0  0  0.116762  0  1.034394  0  0  0.099042  0.11063  0  1.038563  0
H  H57  1  0.35847792  0.03251310  0.27603919  1  0  0.104192  0  0.974124  0  0  0.113097  0  1.036874  0  0  0.116775  0  1.034336  0  0  0.09902  0.110636  0  1.038521  0
H  H58  1  0.55753815  0.16362588  0.46285716  1  0  0.112196  0  0.94617  0  0  0.124778  0  1.008566  0  0  0.126787  0  1.008373  0  0  0.100336  0.123473  0  1.00853  0
H  H59  1  0.44246037  0.83637992  0.53713917  1  0  0.112172  0  0.946272  0  0  0.12471  0  1.008723  0  0  0.126726  0  1.008531  0  0  0.100306  0.123404  0  1.008684  0
H  H60  1  0.70813092  0.15544353  0.40580841  1  0  0.12648  0  0.91085  0  0  0.143073  0  0.963998  0  0  0.145726  0  0.961884  0  0  0.105957  0.141212  0  0.965507  0
H  H61  1  0.29185219  0.84455091  0.59417895  1  0  0.126428  0  0.910892  0  0  0.143022  0  0.964038  0  0  0.145664  0  0.961948  0  0  0.105903  0.141162  0  0.965543  0
C  C62  1  0.05170551  0.43948336  0.73653497  1  0  0.106225  0  3.724787  0  0  0.072233  0  3.97908  0  0  0.078763  0  3.998262  0  0  0.038478  0.068258  0  3.965322  0
C  C63  1  0.94830528  0.56052055  0.26346501  1  0  0.106511  0  3.724503  0  0  0.072523  0  3.978797  0  0  0.079073  0  3.997966  0  0  0.038572  0.068544  0  3.965046  0
C  C64  1  0.15074773  0.41908570  0.81505442  1  0  -0.097721  0  3.760927  0  0  -0.109033  0  4.01411  0  0  -0.115013  0  4.036446  0  0  -0.081667  -0.105198  0  3.999166  0
C  C65  1  0.84927016  0.58092213  0.18494371  1  0  -0.097994  0  3.761034  0  0  -0.109315  0  4.014252  0  0  -0.115299  0  4.036585  0  0  -0.081734  -0.105481  0  3.999316  0
C  C66  1  0.28251936  0.51893685  0.87372600  1  0  -0.103821  0  3.690593  0  0  -0.132751  0  3.946577  0  0  -0.132023  0  3.963662  0  0  -0.072641  -0.132775  0  3.935144  0
C  C67  1  0.71748750  0.48107643  0.12627974  1  0  -0.103756  0  3.690523  0  0  -0.13273  0  3.946498  0  0  -0.132007  0  3.963582  0  0  -0.072699  -0.132753  0  3.935059  0
C  C68  1  0.31567254  0.63693688  0.85022040  1  0  0.208422  0  3.772712  0  0  0.207791  0  4.024658  0  0  0.211226  0  4.047105  0  0  0.102523  0.204873  0  4.009938  0
C  C69  1  0.68432437  0.36306786  0.14977974  1  0  0.208413  0  3.772629  0  0  0.20792  0  4.024466  0  0  0.211372  0  4.04689  0  0  0.10258  0.205001  0  4.009746  0
C  C70  1  0.21204335  0.64977792  0.76868493  1  0  0.023352  0  3.659685  0  0  -0.016855  0  3.919745  0  0  -0.01215  0  3.936072  0  0  0.039675  -0.02019  0  3.909459  0
C  C71  1  0.78795831  0.35022499  0.23131353  1  0  0.023388  0  3.659694  0  0  -0.016982  0  3.91978  0  0  -0.012278  0  3.936096  0  0  0.039631  -0.020318  0  3.909496  0
C  C72  1  0.51834697  0.85149758  0.89269151  1  0  0.584557  0  3.760541  0  0  0.546387  0  4.05289  0  0  0.573187  0  4.054698  0  0  0.244888  0.528379  0  4.050967  0
C  C73  1  0.48162641  0.14852704  0.10730673  1  0  0.584161  0  3.76026  0  0  0.545923  0  4.052807  0  0  0.572723  0  4.054633  0  0  0.244655  0.527918  0  4.05088  0
C  C74  1  0.66312007  0.94054313  0.97415444  1  0  -0.259049  0  3.692258  0  0  -0.305985  0  3.954064  0  0  -0.3105  0  3.963356  0  0  -0.161598  -0.302971  0  3.947135  0
C  C75  1  0.33687970  0.05946345  0.02584992  1  0  -0.258827  0  3.691913  0  0  -0.305768  0  3.953837  0  0  -0.310281  0  3.963122  0  0  -0.161529  -0.302752  0  3.946899  0
C  C76  1  0.72159670  0.07011855  0.95270668  1  0  -0.091937  0  3.723177  0  0  -0.13258  0  3.984683  0  0  -0.132834  0  3.998594  0  0  -0.171221  -0.132204  0  3.975141  0
C  C77  1  0.27841279  0.92987959  0.04729504  1  0  -0.092012  0  3.723408  0  0  -0.132696  0  3.984915  0  0  -0.13295  0  3.998827  0  0  -0.171279  -0.132326  0  3.975386  0
C  C78  1  0.87563214  0.16050148  0.02436606  1  0  -0.102257  0  3.675187  0  0  -0.13957  0  3.931462  0  0  -0.140735  0  3.947414  0  0  -0.169709  -0.138816  0  3.920724  0
C  C79  1  0.12438198  0.83950250  0.97563233  1  0  -0.102329  0  3.675492  0  0  -0.13955  0  3.931672  0  0  -0.14072  0  3.94763  0  0  -0.169667  -0.138803  0  3.920939  0
C  C80  1  0.92846091  0.28369297  0.99210217  1  0  -0.10414  0  3.686558  0  0  -0.143168  0  3.948437  0  0  -0.144215  0  3.962934  0  0  -0.167353  -0.142204  0  3.938655  0
C  C81  1  0.07155126  0.71631959  0.00789582  1  0  -0.103889  0  3.686469  0  0  -0.142822  0  3.948124  0  0  -0.143874  0  3.962631  0  0  -0.167194  -0.141857  0  3.938342  0
C  C82  1  0.07161836  0.38829674  0.06468973  1  0  -0.088176  0  3.670232  0  0  -0.126243  0  3.926321  0  0  -0.127042  0  3.940574  0  0  -0.16612  -0.125598  0  3.916543  0
C  C83  1  0.92838120  0.61170407  0.93531653  1  0  -0.088244  0  3.67042  0  0  -0.12618  0  3.926367  0  0  -0.126978  0  3.940622  0  0  -0.166169  -0.125539  0  3.916591  0
C  C84  1  0.21986492  0.35357600  0.08025413  1  0  -0.259677  0  3.695046  0  0  -0.304791  0  3.955086  0  0  -0.30963  0  3.964346  0  0  -0.167124  -0.301543  0  3.949068  0
C  C85  1  0.78014041  0.64641734  0.91974763  1  0  -0.259501  0  3.695258  0  0  -0.304554  0  3.955331  0  0  -0.309395  0  3.964597  0  0  -0.167071  -0.301304  0  3.949312  0
C  C86  1  0.35791332  0.46941852  0.14204194  1  0  0.593263  0  3.783382  0  0  0.553809  0  4.076692  0  0  0.582151  0  4.076885  0  0  0.238805  0.534702  0  4.075739  0
C  C87  1  0.64209111  0.53059672  0.85796093  1  0  0.593017  0  3.782651  0  0  0.553322  0  4.076382  0  0  0.581671  0  4.07658  0  0  0.238618  0.534212  0  4.075421  0
C  C88  1  0.74964412  0.75847668  0.46657312  1  0  0.110505  0  3.719373  0  0  0.078114  0  3.970258  0  0  0.083948  0  3.991291  0  0  0.037812  0.074159  0  3.956445  0
C  C89  1  0.25036309  0.24150803  0.53343113  1  0  0.110502  0  3.719414  0  0  0.078019  0  3.970351  0  0  0.083862  0  3.991383  0  0  0.03783  0.07406  0  3.956549  0
C  C90  1  0.66059552  0.79259650  0.39174375  1  0  -0.108495  0  3.763777  0  0  -0.118832  0  4.016947  0  0  -0.125647  0  4.039394  0  0  -0.081875  -0.114626  0  4.003164  0
C  C91  1  0.33941981  0.20740542  0.60826153  1  0  -0.108622  0  3.763999  0  0  -0.118979  0  4.017192  0  0  -0.125803  0  4.039647  0  0  -0.081991  -0.114773  0  4.00341  0
C  C92  1  0.54743291  0.69820773  0.31343164  1  0  -0.072351  0  3.674384  0  0  -0.101856  0  3.924602  0  0  -0.099193  0  3.939438  0  0  -0.060563  -0.103579  0  3.914899  0
C  C93  1  0.45257889  0.30179612  0.68657130  1  0  -0.072314  0  3.674456  0  0  -0.101766  0  3.924675  0  0  -0.099103  0  3.939514  0  0  -0.060494  -0.103486  0  3.914965  0
C  C94  1  0.52683819  0.57072273  0.31263447  1  0  0.21993  0  3.775378  0  0  0.218202  0  4.024995  0  0  0.222011  0  4.046019  0  0  0.107536  0.215217  0  4.010554  0
C  C95  1  0.47317463  0.42927828  0.68736819  1  0  0.219952  0  3.775266  0  0  0.218154  0  4.024992  0  0  0.221961  0  4.046018  0  0  0.107538  0.215172  0  4.010531  0
C  C96  1  0.62367378  0.54416877  0.38938915  1  0  0.052841  0  3.646309  0  0  0.013178  0  3.900861  0  0  0.018911  0  3.917621  0  0  0.049831  0.009845  0  3.889054  0
C  C97  1  0.37633136  0.45581882  0.61061382  1  0  0.052881  0  3.646227  0  0  0.01324  0  3.900804  0  0  0.018968  0  3.917569  0  0  0.049863  0.009945  0  3.88901  0
C  C98  1  0.92253521  0.81909439  0.71627363  1  0  0.68306  0  3.881074  0  0  0.639655  0  4.179146  0  0  0.671927  0  4.174608  0  0  0.195253  0.617775  0  4.181394  0
C  C99  1  0.07744592  0.18089309  0.28372503  1  0  0.68315  0  3.881043  0  0  0.639752  0  4.179134  0  0  0.672014  0  4.174601  0  0  0.195318  0.617879  0  4.181382  0
C  C100  1  0.93287185  0.95027114  0.77442058  1  0  -0.298821  0  3.701922  0  0  -0.343931  0  3.949292  0  0  -0.34856  0  3.955949  0  0  -0.162293  -0.340698  0  3.9445  0
C  C101  1  0.06710494  0.04971634  0.22557671  1  0  -0.298768  0  3.70192  0  0  -0.343887  0  3.949204  0  0  -0.348527  0  3.955839  0  0  -0.162052  -0.340667  0  3.944433  0
C  C102  1  0.87001533  0.01745110  0.70166934  1  0  0.102712  0  3.766452  0  0  0.12148  0  4.004442  0  0  0.121501  0  4.028976  0  0  -0.017204  0.121571  0  3.987471  0
C  C103  1  0.12996104  0.98254316  0.29832330  1  0  0.102996  0  3.766193  0  0  0.121903  0  4.004024  0  0  0.121917  0  4.028569  0  0  -0.017083  0.122001  0  3.98705  0
C  C104  1  0.96095198  0.07528531  0.64520550  1  0  -0.126986  0  3.767423  0  0  -0.14509  0  4.015542  0  0  -0.147236  0  4.036408  0  0  -0.099052  -0.143473  0  4.001639  0
C  C105  1  0.03902240  0.92470134  0.35478569  1  0  -0.127124  0  3.767159  0  0  -0.145285  0  4.015264  0  0  -0.147433  0  4.036134  0  0  -0.099107  -0.143643  0  4.00136  0
C  C106  1  0.89895551  0.12698929  0.57148708  1  0  -0.129289  0  3.755556  0  0  -0.148119  0  4.004211  0  0  -0.150886  0  4.025754  0  0  -0.09833  -0.146157  0  3.989764  0
C  C107  1  0.10103351  0.87299842  0.42850436  1  0  -0.129329  0  3.755052  0  0  -0.148172  0  4.003719  0  0  -0.150939  0  4.02526  0  0  -0.098395  -0.146185  0  3.989275  0
C  C108  1  0.74587293  0.12601670  0.55360094  1  0  0.108615  0  3.762888  0  0  0.125986  0  4.004831  0  0  0.126582  0  4.028454  0  0  -0.014074  0.125487  0  3.988745  0
C  C109  1  0.25411748  0.87397685  0.44638598  1  0  0.108643  0  3.762734  0  0  0.125969  0  4.004756  0  0  0.126574  0  4.028374  0  0  -0.014088  0.125475  0  3.98866  0
C  C110  1  0.65649762  0.07049636  0.61127138  1  0  -0.121305  0  3.767233  0  0  -0.141123  0  4.014684  0  0  -0.143394  0  4.036407  0  0  -0.095567  -0.139143  0  3.999837  0
C  C111  1  0.34348577  0.92949614  0.38871714  1  0  -0.121214  0  3.767261  0  0  -0.141028  0  4.014718  0  0  -0.143285  0  4.03645  0  0  -0.09552  -0.139044  0  3.999869  0
C  C112  1  0.71643511  0.01483916  0.68315230  1  0  -0.134473  0  3.750882  0  0  -0.153029  0  3.998601  0  0  -0.155439  0  4.018808  0  0  -0.099788  -0.150997  0  3.984103  0
C  C113  1  0.28354197  0.98515135  0.31683778  1  0  -0.13459  0  3.750853  0  0  -0.153226  0  3.998516  0  0  -0.15564  0  4.018725  0  0  -0.099831  -0.151191  0  3.984017  0
C  C114  1  0.68295214  0.18734749  0.47605546  1  0  -0.309909  0  3.683632  0  0  -0.352867  0  3.925702  0  0  -0.357934  0  3.931096  0  0  -0.161952  -0.349375  0  3.921802  0
C  C115  1  0.31703842  0.81265178  0.52393165  1  0  -0.309715  0  3.683802  0  0  -0.352649  0  3.925806  0  0  -0.357742  0  3.931252  0  0  -0.161771  -0.349156  0  3.921902  0
C  C116  1  0.75849584  0.33127872  0.51330855  1  0  0.695681  0  3.86201  0  0  0.651343  0  4.15629  0  0  0.685056  0  4.149872  0  0  0.197766  0.628572  0  4.160111  0
C  C117  1  0.24151967  0.66871774  0.48668539  1  0  0.695396  0  3.862709  0  0  0.651173  0  4.156834  0  0  0.684899  0  4.150416  0  0  0.197666  0.628407  0  4.160643  0
N  N118  1  0.08229893  0.55300671  0.71510402  1  0  -0.312399  0  3.299581  0  0  -0.235326  0  3.56714  0  0  -0.254687  0  3.587392  0  0  -0.32796  -0.222274  0  3.553077  0
N  N119  1  0.91771009  0.44700097  0.28489768  1  0  -0.312413  0  3.299488  0  0  -0.235341  0  3.567154  0  0  -0.254701  0  3.58739  0  0  -0.327947  -0.222289  0  3.553091  0
N  N120  1  0.44888830  0.73684059  0.91129054  1  0  -0.451608  0  3.334327  0  0  -0.403013  0  3.575911  0  0  -0.424491  0  3.587072  0  0  -0.399181  -0.388077  0  3.56835  0
N  N121  1  0.55111481  0.26316046  0.08870645  1  0  -0.451438  0  3.334571  0  0  -0.402789  0  3.576119  0  0  -0.424273  0  3.587279  0  0  -0.399054  -0.387854  0  3.56855  0
N  N122  1  0.41006763  0.46918012  0.23918133  1  0  -0.461193  0  3.319054  0  0  -0.405016  0  3.552787  0  0  -0.427756  0  3.562722  0  0  -0.397145  -0.389251  0  3.545143  0
N  N123  1  0.58994209  0.53081606  0.76082293  1  0  -0.460978  0  3.319283  0  0  -0.404631  0  3.553206  0  0  -0.427363  0  3.563136  0  0  -0.397161  -0.388885  0  3.545596  0
N  N124  1  0.73293611  0.63616636  0.46455122  1  0  -0.318818  0  3.273493  0  0  -0.240807  0  3.540607  0  0  -0.260619  0  3.560294  0  0  -0.325033  -0.227271  0  3.526329  0
N  N125  1  0.26707050  0.36381938  0.53544958  1  0  -0.318714  0  3.273143  0  0  -0.240677  0  3.540277  0  0  -0.260492  0  3.559966  0  0  -0.324945  -0.227141  0  3.525981  0
O  O126  1  0.46747500  0.87996803  0.81567095  1  0  -0.522798  0  1.899476  0  0  -0.476178  0  2.10199  0  0  -0.496021  0  2.096814  0  0  -0.28123  -0.462621  0  2.105128  0
O  O127  1  0.53248202  0.12006621  0.18435863  1  0  -0.522663  0  1.898506  0  0  -0.476092  0  2.101139  0  0  -0.495937  0  2.095969  0  0  -0.281121  -0.462528  0  2.104276  0
O  O128  1  0.41572568  0.55762225  0.10610642  1  0  -0.581326  0  1.896954  0  0  -0.540415  0  2.114021  0  0  -0.561545  0  2.107538  0  0  -0.312784  -0.525381  0  2.117929  0
O  O129  1  0.58424895  0.44236589  0.89390260  1  0  -0.581428  0  1.895538  0  0  -0.540421  0  2.112757  0  0  -0.561563  0  2.106282  0  0  -0.312751  -0.525376  0  2.116657  0
O  O130  1  0.81125630  0.72122889  0.71227384  1  0  -0.656995  0  1.945453  0  0  -0.598838  0  2.180259  0  0  -0.625253  0  2.170932  0  0  -0.332542  -0.580307  0  2.185867  0
O  O131  1  0.18873734  0.27875474  0.28773102  1  0  -0.657169  0  1.945428  0  0  -0.599025  0  2.180237  0  0  -0.625441  0  2.170911  0  0  -0.332733  -0.580482  0  2.185814  0
O  O132  1  0.02390920  0.81540300  0.66986850  1  0  -0.648622  0  1.93403  0  0  -0.585907  0  2.17341  0  0  -0.614646  0  2.164391  0  0  -0.335862  -0.565664  0  2.178597  0
O  O133  1  0.97608597  0.18459002  0.33014294  1  0  -0.648623  0  1.934054  0  0  -0.585913  0  2.173428  0  0  -0.614676  0  2.16446  0  0  -0.335814  -0.56567  0  2.178612  0
O  O134  1  0.70751727  0.39306638  0.57322444  1  0  -0.63057  0  1.915169  0  0  -0.57428  0  2.147708  0  0  -0.601859  0  2.140858  0  0  -0.32954  -0.555508  0  2.151333  0
O  O135  1  0.29249690  0.60694324  0.42677762  1  0  -0.630271  0  1.915494  0  0  -0.574033  0  2.147995  0  0  -0.601605  0  2.141127  0  0  -0.329403  -0.555261  0  2.151608  0
O  O136  1  0.87564727  0.38669361  0.48526143  1  0  -0.686059  0  2.059883  0  0  -0.609318  0  2.330264  0  0  -0.642468  0  2.319887  0  0  -0.342059  -0.586451  0  2.335744  0
O  O137  1  0.12436347  0.61329411  0.51473749  1  0  -0.686097  0  2.05992  0  0  -0.609443  0  2.330331  0  0  -0.642572  0  2.319891  0  0  -0.342082  -0.586575  0  2.335826  0
