# generated using pymatgen
data_BaH16C10N8O9
_symmetry_space_group_name_H-M   'P 1'
_cell_length_a   6.72458658
_cell_length_b   11.29534038
_cell_length_c   12.66318235
_cell_angle_alpha   107.58657773
_cell_angle_beta   92.40752830
_cell_angle_gamma   100.19607227
_symmetry_Int_Tables_number   1
_chemical_formula_structural   BaH16C10N8O9
_chemical_formula_sum   'Ba2 H32 C20 N16 O18'
_cell_volume   897.72915892
_cell_formula_units_Z   2
loop_
 _symmetry_equiv_pos_site_id
 _symmetry_equiv_pos_as_xyz
  1  'x, y, z'
loop_
 _atom_site_type_symbol
 _atom_site_label
 _atom_site_symmetry_multiplicity
 _atom_site_fract_x
 _atom_site_fract_y
 _atom_site_fract_z
 _atom_site_occupancy
 _atom_site_hle17_bader_spin_density
 _atom_site_hle17_ddec_charge
 _atom_site_hle17_ddec_spin_density
 _atom_site_hle17_ddec_sum_bond_order
 _atom_site_hle17_magmom
 _atom_site_hse06_10hf_bader_spin_density
 _atom_site_hse06_10hf_ddec_charge
 _atom_site_hse06_10hf_ddec_spin_density
 _atom_site_hse06_10hf_ddec_sum_bond_order
 _atom_site_hse06_10hf_magmom
 _atom_site_hse06_bader_spin_density
 _atom_site_hse06_ddec_charge
 _atom_site_hse06_ddec_spin_density
 _atom_site_hse06_ddec_sum_bond_order
 _atom_site_hse06_magmom
 _atom_site_pbe_bader_spin_density
 _atom_site_pbe_cm5_charge
 _atom_site_pbe_ddec_charge
 _atom_site_pbe_ddec_spin_density
 _atom_site_pbe_ddec_sum_bond_order
 _atom_site_pbe_magmom
Ba  Ba0  1  0.36173099  0.50798315  0.35520428  1  0  1.608249  0  1.132801  0  0  1.441949  0  1.537038  0  0  1.482574  0  1.492887  0  0  0.927524  1.411978  0  1.568421  0
Ba  Ba1  1  0.63826638  0.49201320  0.64479162  1  0  1.608284  0  1.132711  0  0  1.441951  0  1.536985  0  0  1.482576  0  1.492837  0  0  0.927535  1.411959  0  1.568355  0
H  H2  1  0.12859297  0.42650593  0.56769086  1  0  0.4268  0  0.876366  0  0  0.400345  0  0.931771  0  0  0.410909  0  0.916482  0  0  0.301003  0.392796  0  0.942685  0
H  H3  1  0.87140708  0.57349423  0.43230768  1  0  0.426841  0  0.876305  0  0  0.400376  0  0.931724  0  0  0.410947  0  0.916423  0  0  0.301009  0.392823  0  0.942643  0
H  H4  1  0.19188261  0.57166781  0.60539455  1  0  0.432868  0  0.857054  0  0  0.40599  0  0.91657  0  0  0.416488  0  0.90116  0  0  0.306815  0.398504  0  0.927552  0
H  H5  1  0.80811865  0.42833136  0.39459982  1  0  0.432894  0  0.856987  0  0  0.405989  0  0.916552  0  0  0.416484  0  0.901148  0  0  0.306804  0.398505  0  0.92753  0
H  H6  1  0.93029396  0.24438595  0.34315229  1  0  0.409054  0  0.897584  0  0  0.372971  0  0.968879  0  0  0.38506  0  0.95135  0  0  0.287603  0.36445  0  0.98121  0
H  H7  1  0.06970965  0.75561139  0.65684639  1  0  0.409119  0  0.897466  0  0  0.372992  0  0.968854  0  0  0.385081  0  0.951325  0  0  0.287589  0.364456  0  0.981206  0
H  H8  1  0.97263749  0.29364014  0.24032786  1  0  0.392956  0  0.921739  0  0  0.355812  0  0.996728  0  0  0.367374  0  0.979759  0  0  0.286317  0.347613  0  1.008742  0
H  H9  1  0.02736255  0.70635528  0.75966865  1  0  0.39295  0  0.921741  0  0  0.355823  0  0.99671  0  0  0.367386  0  0.97974  0  0  0.286331  0.347626  0  1.008719  0
H  H10  1  0.08691181  0.74402582  0.41560987  1  0  0.389727  0  0.929165  0  0  0.339704  0  1.024309  0  0  0.351335  0  1.007341  0  0  0.286426  0.331376  0  1.036406  0
H  H11  1  0.91308707  0.25597526  0.58438573  1  0  0.389629  0  0.929286  0  0  0.339612  0  1.02442  0  0  0.351242  0  1.007455  0  0  0.286389  0.331278  0  1.036525  0
H  H12  1  0.97114375  0.64122926  0.30267639  1  0  0.411345  0  0.877838  0  0  0.373588  0  0.963738  0  0  0.38516  0  0.946926  0  0  0.297023  0.365419  0  0.975588  0
H  H13  1  0.02886197  0.35876995  0.69732046  1  0  0.411287  0  0.877834  0  0  0.373534  0  0.963798  0  0  0.385104  0  0.946989  0  0  0.297019  0.365364  0  0.975648  0
H  H14  1  0.39827348  0.24034561  0.98770171  1  0  0.097194  0  0.953222  0  0  0.117248  0  1.017281  0  0  0.117164  0  1.018094  0  0  0.101871  0.117226  0  1.01675  0
H  H15  1  0.60172537  0.75965550  0.01229784  1  0  0.097192  0  0.953236  0  0  0.117245  0  1.017293  0  0  0.11716  0  1.018108  0  0  0.101847  0.117224  0  1.016759  0
H  H16  1  0.62202180  0.21926336  0.05423145  1  0  0.116865  0  0.92936  0  0  0.136424  0  0.988683  0  0  0.138146  0  0.987018  0  0  0.113885  0.135125  0  0.989923  0
H  H17  1  0.37797705  0.78073778  0.94577048  1  0  0.116877  0  0.929339  0  0  0.136439  0  0.988656  0  0  0.138158  0  0.986993  0  0  0.113887  0.135141  0  0.989897  0
H  H18  1  0.60473658  0.20202906  0.90795688  1  0  0.099125  0  0.960407  0  0  0.119849  0  1.023397  0  0  0.121212  0  1.022183  0  0  0.107393  0.118795  0  1.024337  0
H  H19  1  0.39526464  0.79797019  0.09204382  1  0  0.099123  0  0.960393  0  0  0.119839  0  1.023397  0  0  0.121203  0  1.02218  0  0  0.107369  0.118785  0  1.024339  0
H  H20  1  0.02669509  0.80303655  0.19152488  1  0  0.358873  0  0.913494  0  0  0.336528  0  0.98081  0  0  0.34626  0  0.971597  0  0  0.30744  0.329688  0  0.987273  0
H  H21  1  0.97331302  0.19696549  0.80847199  1  0  0.358871  0  0.913404  0  0  0.336568  0  0.980635  0  0  0.346301  0  0.971423  0  0  0.307458  0.329727  0  0.987098  0
H  H22  1  0.00997196  0.78494093  0.04403796  1  0  0.324443  0  0.93502  0  0  0.301437  0  1.002968  0  0  0.311632  0  0.993478  0  0  0.301513  0.29422  0  1.009696  0
H  H23  1  0.99003139  0.21506489  0.95595977  1  0  0.324446  0  0.935089  0  0  0.301435  0  1.003046  0  0  0.31163  0  0.993557  0  0  0.301503  0.294218  0  1.009774  0
H  H24  1  0.68216339  0.00830691  0.79690027  1  0  0.096569  0  0.954929  0  0  0.116725  0  1.01872  0  0  0.118105  0  1.017522  0  0  0.103522  0.115643  0  1.019643  0
H  H25  1  0.31783040  0.99169231  0.20309946  1  0  0.096622  0  0.954922  0  0  0.116786  0  1.018694  0  0  0.118166  0  1.017496  0  0  0.103532  0.115703  0  1.019618  0
H  H26  1  0.82157014  0.88330496  0.77573769  1  0  0.104802  0  0.93405  0  0  0.123992  0  0.999033  0  0  0.125087  0  0.997705  0  0  0.109179  0.123103  0  1.000055  0
H  H27  1  0.17841888  0.11669331  0.22426167  1  0  0.104806  0  0.934012  0  0  0.123986  0  0.999009  0  0  0.125087  0  0.997674  0  0  0.109198  0.123099  0  1.00003  0
H  H28  1  0.55054117  0.84546396  0.75675288  1  0  0.119302  0  0.933722  0  0  0.138585  0  0.994766  0  0  0.140571  0  0.992747  0  0  0.119312  0.13704  0  0.996335  0
H  H29  1  0.44945082  0.15453908  0.24325095  1  0  0.119442  0  0.933606  0  0  0.138708  0  0.994657  0  0  0.140695  0  0.992639  0  0  0.119366  0.137165  0  0.996231  0
H  H30  1  0.55929833  0.77750517  0.24321397  1  0  0.347322  0  0.899785  0  0  0.326518  0  0.96695  0  0  0.335724  0  0.958747  0  0  0.310638  0.320023  0  0.972716  0
H  H31  1  0.44070617  0.22249979  0.75679068  1  0  0.34735  0  0.899678  0  0  0.326539  0  0.966872  0  0  0.335745  0  0.958673  0  0  0.310625  0.320041  0  0.972633  0
H  H32  1  0.69667563  0.94064323  0.27649232  1  0  0.330289  0  0.918759  0  0  0.306223  0  0.986754  0  0  0.316527  0  0.97711  0  0  0.304432  0.298936  0  0.993577  0
H  H33  1  0.30332706  0.05935606  0.72351317  1  0  0.330333  0  0.918681  0  0  0.306282  0  0.986671  0  0  0.316593  0  0.977016  0  0  0.304468  0.298992  0  0.993496  0
C  C34  1  0.56418108  0.25380944  0.98948625  1  0  -0.140789  0  3.645883  0  0  -0.245591  0  3.899043  0  0  -0.239811  0  3.905678  0  0  -0.137469  -0.249231  0  3.894433  0
C  C35  1  0.43582075  0.74619169  0.01051417  1  0  -0.140827  0  3.645928  0  0  -0.245622  0  3.899091  0  0  -0.239843  0  3.905729  0  0  -0.137423  -0.249267  0  3.894471  0
C  C36  1  0.70019213  0.46204716  0.12919936  1  0  0.6787  0  3.876988  0  0  0.613062  0  4.184729  0  0  0.647719  0  4.182569  0  0  0.334278  0.589712  0  4.185437  0
C  C37  1  0.29982403  0.53795677  0.87079662  1  0  0.678868  0  3.877007  0  0  0.613191  0  4.184792  0  0  0.647848  0  4.182632  0  0  0.334336  0.589834  0  4.185501  0
C  C38  1  0.69583914  0.43709098  0.92873935  1  0  0.49499  0  3.863475  0  0  0.438336  0  4.161504  0  0  0.469056  0  4.163494  0  0  0.239049  0.417804  0  4.159582  0
C  C39  1  0.30415584  0.56291204  0.07126139  1  0  0.495006  0  3.863438  0  0  0.438409  0  4.161444  0  0  0.469129  0  4.163433  0  0  0.239047  0.417882  0  4.159517  0
C  C40  1  0.80962271  0.56792984  0.96222762  1  0  -0.164749  0  3.764223  0  0  -0.169033  0  4.048816  0  0  -0.188362  0  4.070955  0  0  0.072318  -0.156904  0  4.034034  0
C  C41  1  0.19037586  0.43207031  0.03777010  1  0  -0.164792  0  3.763992  0  0  -0.169269  0  4.048696  0  0  -0.18859  0  4.070824  0  0  0.07228  -0.15715  0  4.033964  0
C  C42  1  0.86757564  0.63409383  0.08042120  1  0  0.498415  0  3.843366  0  0  0.452444  0  4.131009  0  0  0.480068  0  4.138246  0  0  0.247907  0.434229  0  4.125446  0
C  C43  1  0.13242443  0.36590629  0.91957339  1  0  0.498219  0  3.843504  0  0  0.45245  0  4.130909  0  0  0.480071  0  4.138153  0  0  0.247938  0.434238  0  4.125338  0
C  C44  1  0.60171453  0.78735639  0.54922283  1  0  0.687756  0  3.88434  0  0  0.623411  0  4.183691  0  0  0.658688  0  4.180911  0  0  0.341803  0.599616  0  4.18475  0
C  C45  1  0.39827651  0.21263441  0.45078410  1  0  0.687669  0  3.884174  0  0  0.623402  0  4.183417  0  0  0.658679  0  4.180643  0  0  0.341886  0.599623  0  4.184459  0
C  C46  1  0.68486306  0.91071083  0.74765177  1  0  -0.142577  0  3.647809  0  0  -0.249038  0  3.904848  0  0  -0.24331  0  3.910444  0  0  -0.131271  -0.252639  0  3.901061  0
C  C47  1  0.31512593  0.08928750  0.25235312  1  0  -0.142723  0  3.64773  0  0  -0.249154  0  3.904728  0  0  -0.243434  0  3.910332  0  0  -0.131286  -0.252759  0  3.900949  0
C  C48  1  0.76933129  0.01032948  0.60350754  1  0  0.50285  0  3.863016  0  0  0.442882  0  4.166215  0  0  0.472988  0  4.169037  0  0  0.238782  0.42275  0  4.163855  0
C  C49  1  0.23067080  0.98968217  0.39650511  1  0  0.50286  0  3.862561  0  0  0.442793  0  4.166002  0  0  0.472903  0  4.168826  0  0  0.238784  0.422664  0  4.163634  0
C  C50  1  0.75163386  0.99776094  0.48470645  1  0  -0.174543  0  3.758136  0  0  -0.182219  0  4.046135  0  0  -0.202776  0  4.069396  0  0  0.069661  -0.169274  0  4.030862  0
C  C51  1  0.24836021  0.00223451  0.51529308  1  0  -0.174486  0  3.758283  0  0  -0.182157  0  4.046342  0  0  -0.202702  0  4.069602  0  0  0.069639  -0.169214  0  4.031078  0
C  C52  1  0.65651310  0.87560640  0.40602875  1  0  0.528131  0  3.830271  0  0  0.482756  0  4.116036  0  0  0.511201  0  4.121901  0  0  0.260562  0.463861  0  4.111528  0
C  C53  1  0.34348666  0.12439280  0.59396795  1  0  0.527981  0  3.830104  0  0  0.482635  0  4.1159  0  0  0.51106  0  4.121793  0  0  0.260475  0.463747  0  4.111388  0
N  N54  1  0.81474032  0.58109463  0.15894736  1  0  -0.58673  0  3.011118  0  0  -0.538366  0  3.289574  0  0  -0.565134  0  3.29411  0  0  -0.336072  -0.520225  0  3.286029  0
N  N55  1  0.18527255  0.41890836  0.84104908  1  0  -0.5867  0  3.011032  0  0  -0.538363  0  3.289394  0  0  -0.565133  0  3.293935  0  0  -0.336109  -0.52022  0  3.285849  0
N  N56  1  0.66017367  0.38724739  0.01494911  1  0  -0.291612  0  3.406729  0  0  -0.199324  0  3.646047  0  0  -0.225761  0  3.666515  0  0  -0.256696  -0.1816  0  3.631765  0
N  N57  1  0.33983055  0.61275659  0.98505211  1  0  -0.291568  0  3.406622  0  0  -0.199299  0  3.645963  0  0  -0.225736  0  3.666432  0  0  -0.256653  -0.181565  0  3.63167  0
N  N58  1  0.85434772  0.61201676  0.87725000  1  0  -0.031187  0  3.149906  0  0  -0.010323  0  3.435072  0  0  0.005946  0  3.43977  0  0  -0.201238  -0.020194  0  3.431304  0
N  N59  1  0.14565203  0.38798245  0.12274829  1  0  -0.03106  0  3.149796  0  0  -0.010141  0  3.434957  0  0  0.006123  0  3.439657  0  0  -0.201193  -0.020022  0  3.431209  0
N  N60  1  0.97320069  0.75266553  0.10985787  1  0  -0.623646  0  3.091945  0  0  -0.583561  0  3.332995  0  0  -0.60587  0  3.326348  0  0  -0.551091  -0.568368  0  3.337269  0
N  N61  1  0.02680563  0.24734030  0.89014073  1  0  -0.623505  0  3.092081  0  0  -0.58353  0  3.333038  0  0  -0.605835  0  3.326393  0  0  -0.551058  -0.568337  0  3.337307  0
N  N62  1  0.58709652  0.77587571  0.43957114  1  0  -0.637947  0  3.032136  0  0  -0.589949  0  3.316341  0  0  -0.617962  0  3.321561  0  0  -0.387891  -0.570809  0  3.312205  0
N  N63  1  0.41290590  0.22412258  0.56042855  1  0  -0.637798  0  3.032289  0  0  -0.589839  0  3.316478  0  0  -0.617841  0  3.321704  0  0  -0.387888  -0.570712  0  3.312345  0
N  N64  1  0.68294609  0.90412422  0.63062407  1  0  -0.27041  0  3.405155  0  0  -0.181775  0  3.649395  0  0  -0.207104  0  3.667914  0  0  -0.251345  -0.16477  0  3.636373  0
N  N65  1  0.31704112  0.09587313  0.36937816  1  0  -0.270318  0  3.40549  0  0  -0.181673  0  3.649751  0  0  -0.207001  0  3.668273  0  0  -0.251363  -0.164671  0  3.636724  0
N  N66  1  0.82799217  0.10401865  0.46195467  1  0  0.019655  0  3.135697  0  0  0.044734  0  3.4076  0  0  0.06169  0  3.410795  0  0  -0.157644  0.034376  0  3.404993  0
N  N67  1  0.17200755  0.89598539  0.53805278  1  0  0.019716  0  3.135571  0  0  0.044852  0  3.407407  0  0  0.061804  0  3.410601  0  0  -0.157561  0.034466  0  3.404821  0
N  N68  1  0.63624302  0.86215978  0.29779265  1  0  -0.607323  0  3.086619  0  0  -0.568252  0  3.328699  0  0  -0.590308  0  3.322068  0  0  -0.542418  -0.553149  0  3.333037  0
N  N69  1  0.36376028  0.13784140  0.70221256  1  0  -0.607354  0  3.086291  0  0  -0.568305  0  3.328352  0  0  -0.590364  0  3.321729  0  0  -0.542382  -0.5532  0  3.332696  0
O  O70  1  0.23349174  0.49520239  0.55685959  1  0  -0.920144  0  1.887525  0  0  -0.85981  0  2.078464  0  0  -0.881315  0  2.048025  0  0  -0.654717  -0.844381  0  2.099838  0
O  O71  1  0.76650922  0.50479586  0.44313611  1  0  -0.920199  0  1.887397  0  0  -0.859819  0  2.078443  0  0  -0.881328  0  2.04799  0  0  -0.654728  -0.844386  0  2.099816  0
O  O72  1  0.98256916  0.32242970  0.32296842  1  0  -0.863658  0  1.849695  0  0  -0.800902  0  2.027677  0  0  -0.822081  0  1.994614  0  0  -0.601249  -0.785663  0  2.0506  0
O  O73  1  0.01743268  0.67756666  0.67702838  1  0  -0.863689  0  1.849634  0  0  -0.80092  0  2.027565  0  0  -0.82211  0  1.99452  0  0  -0.601251  -0.785669  0  2.050486  0
O  O74  1  0.04984675  0.65158234  0.37425645  1  0  -0.845198  0  1.920234  0  0  -0.778482  0  2.125479  0  0  -0.799858  0  2.092249  0  0  -0.597232  -0.763169  0  2.148814  0
O  O75  1  0.95015627  0.34841783  0.62574217  1  0  -0.845057  0  1.920278  0  0  -0.778344  0  2.12558  0  0  -0.799715  0  2.092353  0  0  -0.597212  -0.763027  0  2.148921  0
O  O76  1  0.62519435  0.41328836  0.19811880  1  0  -0.607443  0  1.955856  0  0  -0.558753  0  2.198441  0  0  -0.582214  0  2.190553  0  0  -0.319388  -0.542346  0  2.203326  0
O  O77  1  0.37482235  0.58671285  0.80188674  1  0  -0.607533  0  1.956127  0  0  -0.558808  0  2.198697  0  0  -0.582263  0  2.190806  0  0  -0.319429  -0.542408  0  2.203599  0
O  O78  1  0.63454728  0.37290369  0.83005626  1  0  -0.564851  0  2.014057  0  0  -0.516101  0  2.255064  0  0  -0.537784  0  2.249303  0  0  -0.287972  -0.501157  0  2.258675  0
O  O79  1  0.36543995  0.62709838  0.16994483  1  0  -0.564875  0  2.014061  0  0  -0.516144  0  2.255044  0  0  -0.537827  0  2.249285  0  0  -0.288021  -0.501205  0  2.25866  0
O  O80  1  0.96299881  0.72505054  0.89749119  1  0  -0.409942  0  1.898955  0  0  -0.355604  0  2.114864  0  0  -0.375218  0  2.111071  0  0  -0.172678  -0.342312  0  2.117198  0
O  O81  1  0.03699888  0.27494672  0.10250180  1  0  -0.410028  0  1.898961  0  0  -0.355684  0  2.114848  0  0  -0.3753  0  2.111055  0  0  -0.172725  -0.342382  0  2.117188  0
O  O82  1  0.54097813  0.69365889  0.58094154  1  0  -0.63997  0  1.993044  0  0  -0.57566  0  2.232768  0  0  -0.601647  0  2.225801  0  0  -0.333892  -0.55737  0  2.236913  0
O  O83  1  0.45902103  0.30634317  0.41905748  1  0  -0.640103  0  1.992684  0  0  -0.575798  0  2.232342  0  0  -0.601787  0  2.225372  0  0  -0.333987  -0.557514  0  2.236491  0
O  O84  1  0.85463467  0.10966396  0.67656960  1  0  -0.544327  0  2.031798  0  0  -0.495432  0  2.267402  0  0  -0.516227  0  2.261076  0  0  -0.283591  -0.481179  0  2.271497  0
O  O85  1  0.14534955  0.89032391  0.32342929  1  0  -0.544395  0  2.030874  0  0  -0.495494  0  2.266577  0  0  -0.516296  0  2.260253  0  0  -0.283613  -0.481239  0  2.270667  0
O  O86  1  0.82192808  0.10246677  0.35915888  1  0  -0.409266  0  1.895713  0  0  -0.353366  0  2.108782  0  0  -0.373966  0  2.104911  0  0  -0.1724  -0.339554  0  2.111355  0
O  O87  1  0.17807311  0.89753255  0.64084816  1  0  -0.409342  0  1.895574  0  0  -0.353447  0  2.108655  0  0  -0.374046  0  2.10478  0  0  -0.172431  -0.339604  0  2.111218  0
