# generated using pymatgen
data_NiH18C10(NO4)2
_symmetry_space_group_name_H-M   'P 1'
_cell_length_a   9.50252199
_cell_length_b   9.48834109
_cell_length_c   9.41528516
_cell_angle_alpha   97.22293103
_cell_angle_beta   120.26566670
_cell_angle_gamma   90.00884704
_symmetry_Int_Tables_number   1
_chemical_formula_structural   NiH18C10(NO4)2
_chemical_formula_sum   'Ni2 H36 C20 N4 O16'
_cell_volume   725.38324832
_cell_formula_units_Z   2
loop_
 _symmetry_equiv_pos_site_id
 _symmetry_equiv_pos_as_xyz
  1  'x, y, z'
loop_
 _atom_site_type_symbol
 _atom_site_label
 _atom_site_symmetry_multiplicity
 _atom_site_fract_x
 _atom_site_fract_y
 _atom_site_fract_z
 _atom_site_occupancy
 _atom_site_pbe_cm5_charge
 _atom_site_pbe_ddec_charge
 _atom_site_pbe_ddec_spin_density
 _atom_site_pbe_ddec_sum_bond_order
 _atom_site_pbe_magmom
Ni  Ni0  1  0.22941493  0.24994782  0.99994711  1  0.617828  0.947902  1.793828  2.254978  1.598
Ni  Ni1  1  0.77058555  0.75005501  0.00005133  1  0.617812  0.94781  1.793828  2.255144  1.598
H  H2  1  0.54297468  0.36815204  0.18349405  1  0.2861  0.377622  0.000471  0.961996  0.001
H  H3  1  0.35957399  0.13193160  0.81626716  1  0.286082  0.377154  0.00047  0.962655  0.001
H  H4  1  0.45702537  0.63184654  0.81650043  1  0.286121  0.377663  0.000471  0.961939  0.001
H  H5  1  0.64042640  0.86806909  0.18373520  1  0.28604  0.377117  0.00047  0.962716  0.001
H  H6  1  0.52049402  0.20098479  0.19649641  1  0.287447  0.366663  -1.3e-05  0.981003  0.0
H  H7  1  0.32410735  0.29910246  0.80335842  1  0.287436  0.366689  -1.4e-05  0.981084  0.0
H  H8  1  0.47950138  0.79901484  0.80350229  1  0.287416  0.366598  -1.3e-05  0.981088  0.0
H  H9  1  0.67589154  0.70089611  0.19663868  1  0.287428  0.366687  -1.4e-05  0.98109  0.0
H  H10  1  0.54502780  0.38013560  0.49419023  1  0.102799  0.12715  0.000211  1.019034  0.0
H  H11  1  0.05036586  0.11990089  0.50592180  1  0.102936  0.127282  0.000209  1.020135  0.0
H  H12  1  0.45496999  0.61986188  0.50581574  1  0.102864  0.127229  0.000211  1.018986  0.0
H  H13  1  0.94963556  0.88009767  0.49408079  1  0.102942  0.127312  0.000209  1.020145  0.0
H  H14  1  0.67037127  0.47576009  0.70059514  1  0.111428  0.137912  -5e-05  1.034329  0.0
H  H15  1  0.96943708  0.02406252  0.29955324  1  0.111575  0.138053  -5e-05  1.034163  0.0
H  H16  1  0.32962488  0.52423314  0.29940735  1  0.111425  0.137983  -5e-05  1.034221  0.0
H  H17  1  0.03056306  0.97593497  0.70044963  1  0.111578  0.13806  -5.1e-05  1.034116  0.0
H  H18  1  0.51823270  0.34184993  0.66085829  1  0.099087  0.117576  -1.8e-05  0.9942  0.0
H  H19  1  0.85698742  0.15797018  0.33925211  1  0.099012  0.117448  -1.8e-05  0.994304  0.0
H  H20  1  0.48176727  0.65814543  0.33914529  1  0.099088  0.11764  -1.8e-05  0.994119  0.0
H  H21  1  0.14301402  0.84202837  0.66075155  1  0.099025  0.117445  -1.8e-05  0.994324  0.0
H  H22  1  0.91413968  0.40166634  0.85668858  1  0.130422  0.07197  0.000863  1.009742  0.002
H  H23  1  0.05710951  0.09804783  0.14323411  1  0.130244  0.071803  0.000863  1.009753  0.002
H  H24  1  0.08585319  0.59833115  0.14331285  1  0.130427  0.07195  0.000863  1.009791  0.002
H  H25  1  0.94289177  0.90194967  0.85676615  1  0.130241  0.071792  0.000863  1.00982  0.002
H  H26  1  0.54688621  0.12407970  0.46923038  1  0.110061  0.129  1.7e-05  1.002274  0.0
H  H27  1  0.07716669  0.37592605  0.53067413  1  0.110222  0.12957  1.6e-05  1.002123  0.0
H  H28  1  0.45311032  0.87591886  0.53076874  1  0.110066  0.129036  1.7e-05  1.002262  0.0
H  H29  1  0.92283228  0.62407252  0.46932618  1  0.110249  0.12963  1.6e-05  1.002083  0.0
H  H30  1  0.68611606  0.04541079  0.64863580  1  0.102216  0.113706  -3.2e-05  1.010925  0.0
H  H31  1  0.03703051  0.45446256  0.35110641  1  0.103006  0.115011  -3.2e-05  1.010157  0.0
H  H32  1  0.31387909  0.95458564  0.35136343  1  0.102232  0.113766  -3.2e-05  1.010896  0.0
H  H33  1  0.96297077  0.54553494  0.64889385  1  0.103024  0.11504  -3.2e-05  1.010129  0.0
H  H34  1  0.74807460  0.09412441  0.51090214  1  0.107664  0.127122  0.000116  0.998144  0.0
H  H35  1  0.23657192  0.40573791  0.48871120  1  0.107973  0.127351  0.000116  0.997352  0.0
H  H36  1  0.25192413  0.90587203  0.48909566  1  0.107668  0.127167  0.000116  0.998184  0.0
H  H37  1  0.76342695  0.59425959  0.51128894  1  0.107953  0.127335  0.000116  0.997364  0.0
C  C38  1  0.28534189  0.53454068  0.92039956  1  0.217474  0.630907  -0.000748  4.2912  0.0
C  C39  1  0.36491277  0.96546366  0.07978408  1  0.219005  0.632562  -0.000749  4.288843  0.0
C  C40  1  0.71466351  0.46546429  0.07959520  1  0.217475  0.630899  -0.000748  4.291146  0.0
C  C41  1  0.63509263  0.03454024  0.92021479  1  0.218782  0.632301  -0.00075  4.288839  0.0
C  C42  1  0.60836046  0.37268722  0.62754786  1  -0.138005  -0.2934  0.00091  3.889832  0.001
C  C43  1  0.98038244  0.12716515  0.37252515  1  -0.138534  -0.294216  0.000912  3.890417  0.001
C  C44  1  0.39163708  0.62730814  0.37245452  1  -0.138108  -0.293683  0.00091  3.88968  0.001
C  C45  1  0.01961889  0.87283234  0.62747726  1  -0.138539  -0.294268  0.000912  3.890424  0.001
C  C46  1  0.88224786  0.29333954  0.78667286  1  0.17352  0.284886  -0.002476  4.069135  -0.002
C  C47  1  0.09520146  0.20638444  0.21322850  1  0.174158  0.285014  -0.002472  4.068697  -0.002
C  C48  1  0.11775115  0.70665902  0.21332960  1  0.17349  0.284859  -0.002475  4.069135  -0.002
C  C49  1  0.90479629  0.79361413  0.78677121  1  0.174123  0.28497  -0.002472  4.068767  -0.002
C  C50  1  0.30412030  0.68646148  0.97448903  1  -0.027596  -0.133283  0.004101  3.946233  0.006
C  C51  1  0.32974817  0.81353667  0.02588084  1  -0.027752  -0.133097  0.004125  3.946899  0.006
C  C52  1  0.69588230  0.31353924  0.02550379  1  -0.027656  -0.133271  0.004101  3.946559  0.006
C  C53  1  0.67026302  0.18647787  0.97412227  1  -0.027698  -0.133038  0.004125  3.947029  0.006
C  C54  1  0.67421803  0.12428142  0.56782113  1  -0.132593  -0.26645  0.000529  3.878054  0.0
C  C55  1  0.10585964  0.37564127  0.43196289  1  -0.133797  -0.268734  0.000529  3.877437  0.0
C  C56  1  0.32577974  0.87571714  0.43217966  1  -0.132649  -0.266633  0.000529  3.878166  0.0
C  C57  1  0.89413955  0.62435942  0.56803994  1  -0.133842  -0.268864  0.000529  3.877431  0.0
N  N58  1  0.72796318  0.26658274  0.66317382  1  -0.281811  0.035585  0.000939  3.7242  0.002
N  N59  1  0.06424361  0.23328680  0.33668697  1  -0.281559  0.036564  0.000937  3.722193  0.002
N  N60  1  0.27203339  0.73341582  0.33682744  1  -0.281731  0.035703  0.000938  3.72405  0.002
N  N61  1  0.93575659  0.76671176  0.66331502  1  -0.281539  0.036667  0.000937  3.722153  0.002
O  O62  1  0.47595215  0.29579435  0.19675388  1  -0.571636  -0.763446  0.031161  2.181765  0.05
O  O63  1  0.27930876  0.20425242  0.80301610  1  -0.571615  -0.763078  0.031219  2.180956  0.05
O  O64  1  0.52404349  0.70420849  0.80324323  1  -0.571636  -0.763401  0.03116  2.181742  0.05
O  O65  1  0.72068901  0.79574722  0.19698058  1  -0.571586  -0.763061  0.031219  2.180994  0.05
O  O66  1  0.98445529  0.19979350  0.82027158  1  -0.292964  -0.455691  0.036482  2.413509  0.061
O  O67  1  0.16382729  0.29991484  0.17955067  1  -0.293467  -0.455936  0.036567  2.41407  0.062
O  O68  1  0.01554507  0.80020720  0.17972970  1  -0.292939  -0.455634  0.036483  2.413499  0.061
O  O69  1  0.83616928  0.70008479  0.82044648  1  -0.293436  -0.455917  0.036567  2.414124  0.062
O  O70  1  0.34252848  0.48920357  0.82801735  1  -0.296038  -0.542733  0.000212  2.169706  0.001
O  O71  1  0.51438741  0.01081093  0.17209221  1  -0.296491  -0.543287  0.000204  2.167843  0.001
O  O72  1  0.65747445  0.51080141  0.17197407  1  -0.296  -0.542696  0.000213  2.169747  0.001
O  O73  1  0.48562043  0.98919296  0.82790786  1  -0.296345  -0.543163  0.000204  2.167927  0.001
O  O74  1  0.21344422  0.46188775  0.97345298  1  -0.296659  -0.539277  0.030335  2.325682  0.051
O  O75  1  0.24005947  0.03810788  0.02661084  1  -0.297162  -0.539864  0.03033  2.325718  0.051
O  O76  1  0.78655781  0.53811935  0.02654464  1  -0.296668  -0.539272  0.030336  2.32568  0.051
O  O77  1  0.75994741  0.96189814  0.97339222  1  -0.297114  -0.539767  0.030332  2.325717  0.051
