# generated using pymatgen
data_ZnH6C12S2(NO2)2
_symmetry_space_group_name_H-M   'P 1'
_cell_length_a   11.09068201
_cell_length_b   12.82291330
_cell_length_c   12.82291867
_cell_angle_alpha   62.46413249
_cell_angle_beta   84.60767375
_cell_angle_gamma   84.60778797
_symmetry_Int_Tables_number   1
_chemical_formula_structural   ZnH6C12S2(NO2)2
_chemical_formula_sum   'Zn4 H24 C48 S8 N8 O16'
_cell_volume   1607.23872219
_cell_formula_units_Z   4
loop_
 _symmetry_equiv_pos_site_id
 _symmetry_equiv_pos_as_xyz
  1  'x, y, z'
loop_
 _atom_site_type_symbol
 _atom_site_label
 _atom_site_symmetry_multiplicity
 _atom_site_fract_x
 _atom_site_fract_y
 _atom_site_fract_z
 _atom_site_occupancy
 _atom_site_hle17_bader_spin_density
 _atom_site_hle17_ddec_charge
 _atom_site_hle17_ddec_spin_density
 _atom_site_hle17_ddec_sum_bond_order
 _atom_site_hle17_magmom
 _atom_site_hse06_10hf_bader_spin_density
 _atom_site_hse06_10hf_ddec_charge
 _atom_site_hse06_10hf_ddec_spin_density
 _atom_site_hse06_10hf_ddec_sum_bond_order
 _atom_site_hse06_10hf_magmom
 _atom_site_hse06_bader_spin_density
 _atom_site_hse06_ddec_charge
 _atom_site_hse06_ddec_spin_density
 _atom_site_hse06_ddec_sum_bond_order
 _atom_site_hse06_magmom
 _atom_site_pbe_bader_spin_density
 _atom_site_pbe_cm5_charge
 _atom_site_pbe_ddec_charge
 _atom_site_pbe_ddec_spin_density
 _atom_site_pbe_ddec_sum_bond_order
 _atom_site_pbe_magmom
Zn  Zn0  1  0.13275388  0.97556753  0.50112396  1  0  1.060359  0  1.832708  0  0  0.890088  0  2.299809  0  0  0.943693  0  2.232966  0  0  0.667555  0.85268  0  2.345499  0
Zn  Zn1  1  0.36724486  0.49887614  0.02443573  1  0  1.060318  0  1.832804  0  0  0.890064  0  2.299928  0  0  0.943675  0  2.233072  0  0  0.667542  0.852658  0  2.345622  0
Zn  Zn2  1  0.86724592  0.02443442  0.49887543  1  0  1.060361  0  1.832688  0  0  0.890078  0  2.299783  0  0  0.943688  0  2.232931  0  0  0.667573  0.852671  0  2.345478  0
Zn  Zn3  1  0.63275494  0.50112581  0.97556366  1  0  1.06043  0  1.832647  0  0  0.89016  0  2.299751  0  0  0.943771  0  2.232892  0  0  0.667632  0.852751  0  2.34545  0
H  H4  1  0.24786454  0.30675824  0.20226690  1  0  0.100845  0  0.955254  0  0  0.102936  0  1.029809  0  0  0.106913  0  1.024978  0  0  0.120073  0.100052  0  1.033252  0
H  H5  1  0.25213417  0.79773984  0.69323839  1  0  0.100851  0  0.955227  0  0  0.102899  0  1.029836  0  0  0.106875  0  1.025007  0  0  0.120067  0.100017  0  1.033277  0
H  H6  1  0.75213798  0.69324373  0.79773303  1  0  0.100811  0  0.955254  0  0  0.102878  0  1.029855  0  0  0.106852  0  1.025028  0  0  0.120069  0.099996  0  1.033295  0
H  H7  1  0.74786897  0.20226653  0.30675787  1  0  0.10081  0  0.955239  0  0  0.102909  0  1.029815  0  0  0.106888  0  1.024977  0  0  0.12002  0.100025  0  1.033258  0
H  H8  1  0.87284034  0.39876269  0.25872258  1  0  0.120074  0  0.912156  0  0  0.132204  0  0.965442  0  0  0.135652  0  0.962049  0  0  0.119037  0.129575  0  0.968062  0
H  H9  1  0.62715114  0.74127801  0.60124393  1  0  0.119967  0  0.91222  0  0  0.132176  0  0.965439  0  0  0.135627  0  0.962039  0  0  0.119017  0.12952  0  0.968093  0
H  H10  1  0.12716038  0.60123927  0.74127907  1  0  0.120061  0  0.912202  0  0  0.132199  0  0.965482  0  0  0.135648  0  0.962086  0  0  0.119039  0.129556  0  0.96812  0
H  H11  1  0.37284876  0.25872308  0.39876209  1  0  0.120078  0  0.912161  0  0  0.13222  0  0.965444  0  0  0.13567  0  0.962047  0  0  0.119031  0.129599  0  0.968055  0
H  H12  1  0.90558528  0.60275156  0.09811147  1  0  0.118286  0  0.964097  0  0  0.12598  0  1.024752  0  0  0.129877  0  1.023694  0  0  0.104757  0.123163  0  1.025729  0
H  H13  1  0.59441233  0.90188347  0.39725331  1  0  0.11818  0  0.96412  0  0  0.125877  0  1.024772  0  0  0.129794  0  1.023691  0  0  0.10469  0.123056  0  1.025756  0
H  H14  1  0.09441547  0.39724951  0.90188669  1  0  0.118218  0  0.964108  0  0  0.125912  0  1.024769  0  0  0.129811  0  1.023709  0  0  0.104703  0.12309  0  1.025753  0
H  H15  1  0.40558974  0.09811144  0.60274993  1  0  0.118147  0  0.964142  0  0  0.125869  0  1.024771  0  0  0.129767  0  1.023711  0  0  0.104677  0.123047  0  1.025751  0
H  H16  1  0.80408097  0.97108134  0.18253076  1  0  0.07973  0  0.947243  0  0  0.078524  0  1.027962  0  0  0.083054  0  1.022404  0  0  0.106398  0.075239  0  1.031971  0
H  H17  1  0.69591625  0.81746990  0.02891179  1  0  0.079762  0  0.947176  0  0  0.078555  0  1.02787  0  0  0.083086  0  1.022315  0  0  0.106418  0.07527  0  1.031881  0
H  H18  1  0.19591446  0.02891796  0.81746869  1  0  0.079763  0  0.947168  0  0  0.078574  0  1.027876  0  0  0.083108  0  1.022315  0  0  0.106434  0.07529  0  1.031885  0
H  H19  1  0.30408195  0.18252762  0.97108200  1  0  0.079773  0  0.947134  0  0  0.078543  0  1.027883  0  0  0.083077  0  1.022316  0  0  0.106421  0.075259  0  1.031892  0
H  H20  1  0.16135463  0.81114125  0.28065740  1  0  0.101618  0  0.942913  0  0  0.116146  0  0.996694  0  0  0.119063  0  0.993912  0  0  0.109375  0.113908  0  0.998977  0
H  H21  1  0.33864233  0.71934464  0.18885653  1  0  0.101589  0  0.942949  0  0  0.11612  0  0.996732  0  0  0.119036  0  0.993952  0  0  0.109369  0.113882  0  0.999016  0
H  H22  1  0.83863454  0.18885714  0.71934612  1  0  0.101619  0  0.942996  0  0  0.11614  0  0.996769  0  0  0.119056  0  0.99399  0  0  0.109387  0.113904  0  0.999051  0
H  H23  1  0.66135785  0.28065115  0.81114492  1  0  0.101627  0  0.942951  0  0  0.116169  0  0.996705  0  0  0.119085  0  0.993926  0  0  0.109395  0.11393  0  0.998991  0
H  H24  1  0.16838291  0.75376519  0.11604644  1  0  0.102763  0  0.993701  0  0  0.107836  0  1.062577  0  0  0.111478  0  1.061297  0  0  0.097059  0.105097  0  1.063951  0
H  H25  1  0.33161870  0.88395368  0.24623779  1  0  0.10275  0  0.993711  0  0  0.107822  0  1.062584  0  0  0.111462  0  1.061307  0  0  0.097053  0.105082  0  1.06396  0
H  H26  1  0.83161595  0.24623765  0.88395573  1  0  0.10268  0  0.993703  0  0  0.107775  0  1.062568  0  0  0.111415  0  1.061289  0  0  0.097037  0.105036  0  1.063941  0
H  H27  1  0.66838042  0.11604475  0.75376330  1  0  0.102701  0  0.99372  0  0  0.107784  0  1.062594  0  0  0.111424  0  1.061315  0  0  0.097038  0.105045  0  1.06397  0
C  C28  1  0.04393251  0.21441201  0.33982203  1  0  0.674208  0  3.89395  0  0  0.62124  0  4.185392  0  0  0.657654  0  4.177869  0  0  0.213871  0.596694  0  4.189686  0
C  C29  1  0.45606925  0.66017435  0.78559194  1  0  0.674191  0  3.893798  0  0  0.621252  0  4.185252  0  0  0.65767  0  4.177723  0  0  0.213876  0.59671  0  4.189542  0
C  C30  1  0.95606829  0.78558908  0.66018235  1  0  0.67389  0  3.894088  0  0  0.620914  0  4.185584  0  0  0.65733  0  4.178067  0  0  0.213761  0.59637  0  4.189872  0
C  C31  1  0.54395151  0.33982592  0.21440875  1  0  0.674071  0  3.894161  0  0  0.621095  0  4.185627  0  0  0.657515  0  4.178099  0  0  0.213738  0.59655  0  4.189918  0
C  C32  1  0.05914745  0.33762406  0.24466984  1  0  -0.130008  0  3.759048  0  0  -0.107465  0  4.001419  0  0  -0.121007  0  4.02364  0  0  -0.020508  -0.098904  0  3.986588  0
C  C33  1  0.44085163  0.75533123  0.66237952  1  0  -0.130131  0  3.758945  0  0  -0.107658  0  4.001448  0  0  -0.121208  0  4.023664  0  0  -0.020542  -0.099104  0  3.986613  0
C  C34  1  0.94085878  0.66237705  0.75533406  1  0  -0.129952  0  3.759064  0  0  -0.107475  0  4.001541  0  0  -0.121017  0  4.02376  0  0  -0.020519  -0.098913  0  3.986704  0
C  C35  1  0.55915182  0.24467074  0.33762267  1  0  -0.13003  0  3.758946  0  0  -0.107489  0  4.001369  0  0  -0.121043  0  4.023594  0  0  -0.020516  -0.098937  0  3.986543  0
C  C36  1  0.17000638  0.36981931  0.18183355  1  0  0.151628  0  3.63096  0  0  0.109303  0  3.881986  0  0  0.1203  0  3.896323  0  0  0.058271  0.102274  0  3.872192  0
C  C37  1  0.32999422  0.81817154  0.63018097  1  0  0.151655  0  3.631035  0  0  0.109373  0  3.882054  0  0  0.120374  0  3.89639  0  0  0.058306  0.102349  0  3.87226  0
C  C38  1  0.82999713  0.63018178  0.81816981  1  0  0.151688  0  3.631034  0  0  0.109378  0  3.882095  0  0  0.120375  0  3.896434  0  0  0.058314  0.102351  0  3.872298  0
C  C39  1  0.67001177  0.18183309  0.36981898  1  0  0.151686  0  3.631026  0  0  0.109314  0  3.881986  0  0  0.120313  0  3.896328  0  0  0.058333  0.102289  0  3.872191  0
C  C40  1  0.96186777  0.42243920  0.21357275  1  0  0.017329  0  3.689913  0  0  -0.012571  0  3.940466  0  0  -0.004142  0  3.954875  0  0  -0.054237  -0.017893  0  3.930691  0
C  C41  1  0.53812845  0.78642888  0.57756384  1  0  0.017558  0  3.689825  0  0  -0.012394  0  3.940403  0  0  -0.003965  0  3.954819  0  0  -0.05422  -0.017694  0  3.930631  0
C  C42  1  0.03813483  0.57756188  0.78642992  1  0  0.017403  0  3.689953  0  0  -0.01248  0  3.940522  0  0  -0.00405  0  3.954929  0  0  -0.054184  -0.017794  0  3.930749  0
C  C43  1  0.46187331  0.21357133  0.42244009  1  0  0.017435  0  3.689855  0  0  -0.012489  0  3.940422  0  0  -0.004055  0  3.954828  0  0  -0.054163  -0.017818  0  3.930646  0
C  C44  1  0.97967118  0.53530909  0.12446162  1  0  -0.166927  0  3.742094  0  0  -0.183529  0  3.99442  0  0  -0.194149  0  4.016632  0  0  -0.091757  -0.176934  0  3.979976  0
C  C45  1  0.52032699  0.87553716  0.46469705  1  0  -0.166782  0  3.74188  0  0  -0.183379  0  3.994225  0  0  -0.194015  0  4.016425  0  0  -0.091609  -0.176779  0  3.979776  0
C  C46  1  0.02033038  0.46469375  0.87553720  1  0  -0.166764  0  3.741976  0  0  -0.183374  0  3.994298  0  0  -0.193994  0  4.016507  0  0  -0.091672  -0.176776  0  3.979854  0
C  C47  1  0.47967572  0.12446217  0.53530721  1  0  -0.166766  0  3.741998  0  0  -0.183375  0  3.994344  0  0  -0.193992  0  4.016553  0  0  -0.091663  -0.176773  0  3.979903  0
C  C48  1  0.09435464  0.56108354  0.06572032  1  0  0.204714  0  3.735006  0  0  0.200466  0  4.00439  0  0  0.212182  0  4.024346  0  0  0.12245  0.192625  0  3.991127  0
C  C49  1  0.40564374  0.93427951  0.43891683  1  0  0.20471  0  3.734827  0  0  0.200451  0  4.004225  0  0  0.212164  0  4.024182  0  0  0.12244  0.192608  0  3.990959  0
C  C50  1  0.90564522  0.43891753  0.93427947  1  0  0.204615  0  3.734974  0  0  0.200382  0  4.004337  0  0  0.212097  0  4.024293  0  0  0.122427  0.192541  0  3.991073  0
C  C51  1  0.59435984  0.06571981  0.56108190  1  0  0.20477  0  3.73493  0  0  0.20044  0  4.004369  0  0  0.212154  0  4.02432  0  0  0.122472  0.192596  0  3.991102  0
C  C52  1  0.98883669  0.83477915  0.06630597  1  0  0.195716  0  3.801952  0  0  0.199357  0  4.068916  0  0  0.208799  0  4.088225  0  0  0.117419  0.192869  0  4.055994  0
C  C53  1  0.51115903  0.93369649  0.16521872  1  0  0.195671  0  3.802066  0  0  0.199325  0  4.069003  0  0  0.208772  0  4.088315  0  0  0.117432  0.192842  0  4.05608  0
C  C54  1  0.01115764  0.16522367  0.93369505  1  0  0.19568  0  3.802107  0  0  0.199311  0  4.069086  0  0  0.208752  0  4.088398  0  0  0.117437  0.192824  0  4.05616  0
C  C55  1  0.48883733  0.06630192  0.83477794  1  0  0.195627  0  3.801978  0  0  0.19923  0  4.06902  0  0  0.208673  0  4.088331  0  0  0.117369  0.192746  0  4.056093  0
C  C56  1  0.88649880  0.92312395  0.17078627  1  0  0.135571  0  3.690693  0  0  0.099434  0  3.953438  0  0  0.107941  0  3.967809  0  0  0.052902  0.09398  0  3.943839  0
C  C57  1  0.61349707  0.82921870  0.07687001  1  0  0.135653  0  3.690612  0  0  0.099562  0  3.953297  0  0  0.108059  0  3.967673  0  0  0.05299  0.094104  0  3.943698  0
C  C58  1  0.11349297  0.07687621  0.82921543  1  0  0.135636  0  3.690611  0  0  0.099476  0  3.95338  0  0  0.107982  0  3.967755  0  0  0.05293  0.094021  0  3.943782  0
C  C59  1  0.38650469  0.17078061  0.92312732  1  0  0.135676  0  3.690715  0  0  0.099544  0  3.953463  0  0  0.10805  0  3.967838  0  0  0.052946  0.094087  0  3.943865  0
C  C60  1  0.98315515  0.89602024  0.24379691  1  0  -0.133283  0  3.75893  0  0  -0.109104  0  3.994647  0  0  -0.121814  0  4.018058  0  0  -0.024104  -0.100946  0  3.978878  0
C  C61  1  0.51684278  0.75620483  0.10397589  1  0  -0.133524  0  3.759064  0  0  -0.109362  0  3.994766  0  0  -0.12205  0  4.018168  0  0  -0.024213  -0.10119  0  3.978993  0
C  C62  1  0.01683837  0.10398081  0.75620345  1  0  -0.133213  0  3.758996  0  0  -0.109087  0  3.994713  0  0  -0.121801  0  4.018125  0  0  -0.02414  -0.100927  0  3.978946  0
C  C63  1  0.48315839  0.24378918  0.89602316  1  0  -0.133398  0  3.759091  0  0  -0.109247  0  3.994766  0  0  -0.121953  0  4.018176  0  0  -0.024162  -0.101083  0  3.978996  0
C  C64  1  0.08568044  0.83334855  0.22446039  1  0  0.007641  0  3.702877  0  0  -0.019983  0  3.945593  0  0  -0.014291  0  3.962934  0  0  -0.064445  -0.023235  0  3.933653  0
C  C65  1  0.41431886  0.77554016  0.16664764  1  0  0.007749  0  3.702827  0  0  -0.019896  0  3.945569  0  0  -0.014212  0  3.962912  0  0  -0.064442  -0.023151  0  3.93363  0
C  C66  1  0.91431392  0.16665338  0.77553792  1  0  0.00765  0  3.702799  0  0  -0.019951  0  3.945519  0  0  -0.01426  0  3.96286  0  0  -0.064403  -0.023206  0  3.933582  0
C  C67  1  0.58568497  0.22445475  0.83334999  1  0  0.007675  0  3.70271  0  0  -0.01996  0  3.945426  0  0  -0.01427  0  3.962767  0  0  -0.06444  -0.023213  0  3.933489  0
C  C68  1  0.98182698  0.93682316  0.33605444  1  0  0.670617  0  3.898709  0  0  0.617624  0  4.192578  0  0  0.653976  0  4.185208  0  0  0.210155  0.593032  0  4.196823  0
C  C69  1  0.51817387  0.66394900  0.06316837  1  0  0.670564  0  3.898746  0  0  0.617582  0  4.192565  0  0  0.65393  0  4.185201  0  0  0.210153  0.592986  0  4.196812  0
C  C70  1  0.01815654  0.06317874  0.66394795  1  0  0.670453  0  3.898812  0  0  0.617593  0  4.19252  0  0  0.653949  0  4.185148  0  0  0.210206  0.592998  0  4.196766  0
C  C71  1  0.48184522  0.33604771  0.93682398  1  0  0.670515  0  3.898684  0  0  0.617658  0  4.192374  0  0  0.654008  0  4.185009  0  0  0.21027  0.593062  0  4.196621  0
C  C72  1  0.08965900  0.80102649  0.13476269  1  0  -0.172772  0  3.765534  0  0  -0.188687  0  4.013462  0  0  -0.197925  0  4.035977  0  0  -0.097559  -0.182768  0  3.99878  0
C  C73  1  0.41033672  0.86523654  0.19897175  1  0  -0.172756  0  3.765399  0  0  -0.18866  0  4.013331  0  0  -0.197903  0  4.035849  0  0  -0.097564  -0.182747  0  3.998651  0
C  C74  1  0.91033638  0.19897369  0.86523635  1  0  -0.172711  0  3.765405  0  0  -0.188651  0  4.013348  0  0  -0.197887  0  4.035864  0  0  -0.097602  -0.182731  0  3.998666  0
C  C75  1  0.58966071  0.13475923  0.80102526  1  0  -0.172663  0  3.765308  0  0  -0.188579  0  4.013257  0  0  -0.197818  0  4.035772  0  0  -0.097546  -0.182662  0  3.998576  0
S  S76  1  0.97602757  0.80374371  0.94557860  1  0  0.022912  0  2.402513  0  0  0.01557  0  2.760026  0  0  0.013175  0  2.758179  0  0  0.069027  0.017284  0  2.760917  0
S  S77  1  0.52397232  0.05441939  0.19625617  1  0  0.022982  0  2.402602  0  0  0.015638  0  2.760104  0  0  0.013247  0  2.75826  0  0  0.069048  0.017353  0  2.760994  0
S  S78  1  0.02397329  0.19625560  0.05442115  1  0  0.023028  0  2.402529  0  0  0.015696  0  2.760043  0  0  0.013302  0  2.758197  0  0  0.069067  0.017406  0  2.760934  0
S  S79  1  0.47602686  0.94557725  0.80373950  1  0  0.023001  0  2.402481  0  0  0.015674  0  2.760014  0  0  0.01328  0  2.758168  0  0  0.069059  0.017387  0  2.760902  0
S  S80  1  0.12860976  0.70160800  0.94906144  1  0  0.060506  0  2.455995  0  0  0.054243  0  2.826441  0  0  0.052079  0  2.82336  0  0  0.084754  0.055977  0  2.828035  0
S  S81  1  0.37138781  0.05093920  0.29838669  1  0  0.060468  0  2.455902  0  0  0.054204  0  2.82635  0  0  0.052037  0  2.823269  0  0  0.084735  0.055935  0  2.827946  0
S  S82  1  0.87139210  0.29839044  0.05094252  1  0  0.060454  0  2.455961  0  0  0.054176  0  2.826415  0  0  0.052011  0  2.823332  0  0  0.084722  0.055911  0  2.828009  0
S  S83  1  0.62861411  0.94905746  0.70161107  1  0  0.060476  0  2.45593  0  0  0.054215  0  2.826421  0  0  0.052047  0  2.82334  0  0  0.084752  0.055948  0  2.828013  0
N  N84  1  0.88946960  0.89361145  0.08303684  1  0  -0.322149  0  3.085654  0  0  -0.286261  0  3.354211  0  0  -0.299885  0  3.36923  0  0  -0.313761  -0.276572  0  3.344064  0
N  N85  1  0.61052771  0.91696780  0.10638610  1  0  -0.322172  0  3.085623  0  0  -0.28632  0  3.354181  0  0  -0.299948  0  3.369202  0  0  -0.313814  -0.276634  0  3.344036  0
N  N86  1  0.11052755  0.10638961  0.91696475  1  0  -0.322229  0  3.085704  0  0  -0.286338  0  3.354268  0  0  -0.299961  0  3.369286  0  0  -0.313818  -0.276648  0  3.344119  0
N  N87  1  0.38946923  0.08303589  0.89360805  1  0  -0.322217  0  3.085837  0  0  -0.286304  0  3.354386  0  0  -0.299928  0  3.369405  0  0  -0.313804  -0.276615  0  3.344238  0
N  N88  1  0.18819640  0.47908472  0.09391705  1  0  -0.35136  0  3.210981  0  0  -0.270869  0  3.479168  0  0  -0.292041  0  3.49114  0  0  -0.32273  -0.256831  0  3.471057  0
N  N89  1  0.31180283  0.90608203  0.52091508  1  0  -0.351449  0  3.211166  0  0  -0.27093  0  3.479306  0  0  -0.292101  0  3.491275  0  0  -0.322783  -0.256888  0  3.471192  0
N  N90  1  0.81180521  0.52091724  0.90608218  1  0  -0.351411  0  3.211201  0  0  -0.270892  0  3.479347  0  0  -0.292065  0  3.491321  0  0  -0.322741  -0.256852  0  3.471233  0
N  N91  1  0.68819978  0.09391817  0.47908254  1  0  -0.351522  0  3.211294  0  0  -0.27091  0  3.479394  0  0  -0.292082  0  3.491368  0  0  -0.322756  -0.256868  0  3.471279  0
O  O92  1  0.88056454  0.97341128  0.36671163  1  0  -0.629897  0  2.036499  0  0  -0.566202  0  2.294399  0  0  -0.595368  0  2.281082  0  0  -0.319553  -0.545812  0  2.302359  0
O  O93  1  0.61943028  0.63329458  0.02657765  1  0  -0.629794  0  2.036651  0  0  -0.566098  0  2.294531  0  0  -0.595265  0  2.281218  0  0  -0.319535  -0.545718  0  2.302509  0
O  O94  1  0.11942440  0.02659063  0.63328872  1  0  -0.629926  0  2.036282  0  0  -0.566275  0  2.294122  0  0  -0.595444  0  2.280803  0  0  -0.319613  -0.545893  0  2.302108  0
O  O95  1  0.38056940  0.36670823  0.97341355  1  0  -0.629976  0  2.035974  0  0  -0.566325  0  2.293801  0  0  -0.595494  0  2.280485  0  0  -0.319716  -0.545935  0  2.301766  0
O  O96  1  0.08448410  0.93237983  0.37559453  1  0  -0.648028  0  2.08748  0  0  -0.585693  0  2.356149  0  0  -0.615074  0  2.342139  0  0  -0.321118  -0.565209  0  2.364687  0
O  O97  1  0.41551128  0.62441101  0.06760854  1  0  -0.647975  0  2.08749  0  0  -0.585622  0  2.35613  0  0  -0.615009  0  2.342125  0  0  -0.321088  -0.565136  0  2.364661  0
O  O98  1  0.91550350  0.06761505  0.62441389  1  0  -0.647924  0  2.087712  0  0  -0.585632  0  2.356328  0  0  -0.615011  0  2.342315  0  0  -0.321098  -0.565148  0  2.364863  0
O  O99  1  0.58449085  0.37558213  0.93239006  1  0  -0.647904  0  2.087948  0  0  -0.585619  0  2.356565  0  0  -0.615002  0  2.342562  0  0  -0.321066  -0.565139  0  2.365103  0
O  O100  1  0.93562561  0.18513551  0.37375039  1  0  -0.635239  0  2.100068  0  0  -0.570455  0  2.361815  0  0  -0.600214  0  2.349308  0  0  -0.308106  -0.549747  0  2.36936  0
O  O101  1  0.56437018  0.62624670  0.81486969  1  0  -0.635219  0  2.100237  0  0  -0.570432  0  2.361981  0  0  -0.600186  0  2.349469  0  0  -0.308113  -0.549723  0  2.36952  0
O  O102  1  0.06438158  0.81486472  0.62625383  1  0  -0.635185  0  2.100003  0  0  -0.570363  0  2.361704  0  0  -0.600123  0  2.349204  0  0  -0.308117  -0.549653  0  2.369242  0
O  O103  1  0.43562539  0.37375084  0.18513446  1  0  -0.635211  0  2.099804  0  0  -0.570445  0  2.361589  0  0  -0.60021  0  2.349081  0  0  -0.308052  -0.549728  0  2.369121  0
O  O104  1  0.14023429  0.14981804  0.37807029  1  0  -0.634833  0  2.078819  0  0  -0.570114  0  2.343315  0  0  -0.599909  0  2.330601  0  0  -0.315225  -0.549575  0  2.351464  0
O  O105  1  0.35976026  0.62192228  0.85018740  1  0  -0.634836  0  2.078652  0  0  -0.570143  0  2.343157  0  0  -0.59994  0  2.330441  0  0  -0.315249  -0.549603  0  2.351302  0
O  O106  1  0.85977099  0.85018305  0.62192746  1  0  -0.634676  0  2.078825  0  0  -0.569964  0  2.343342  0  0  -0.599759  0  2.330628  0  0  -0.315199  -0.549429  0  2.351491  0
O  O107  1  0.64023916  0.37808674  0.14981576  1  0  -0.63483  0  2.079314  0  0  -0.57011  0  2.343818  0  0  -0.5999  0  2.331097  0  0  -0.315237  -0.549574  0  2.351967  0
