# generated using pymatgen
data_ZnH7C9(NO3)2
_symmetry_space_group_name_H-M   'P 1'
_cell_length_a   7.85422538
_cell_length_b   8.87309430
_cell_length_c   15.93430150
_cell_angle_alpha   86.07788288
_cell_angle_beta   84.10244415
_cell_angle_gamma   82.91527375
_symmetry_Int_Tables_number   1
_chemical_formula_structural   ZnH7C9(NO3)2
_chemical_formula_sum   'Zn2 H14 C18 N4 O12'
_cell_volume   1094.42229196
_cell_formula_units_Z   2
loop_
 _symmetry_equiv_pos_site_id
 _symmetry_equiv_pos_as_xyz
  1  'x, y, z'
loop_
 _atom_site_type_symbol
 _atom_site_label
 _atom_site_symmetry_multiplicity
 _atom_site_fract_x
 _atom_site_fract_y
 _atom_site_fract_z
 _atom_site_occupancy
 _atom_site_pbe_bader_charge
 _atom_site_pbe_bader_spin_density
 _atom_site_pbe_cm5_charge
 _atom_site_pbe_ddec_charge
 _atom_site_pbe_ddec_spin_density
 _atom_site_pbe_ddec_sum_bond_order
 _atom_site_pbe_magmom
Zn  Zn0  1  0.65000145  0.50227840  0.48657730  1  1.299105  0  0.674613  0.805722  0  2.470933  0
Zn  Zn1  1  0.30017226  0.50055804  0.51942359  1  1.290603  0  0.677465  0.852646  0  2.368952  0
H  H2  1  0.76495295  0.62047843  0.92960218  1  0.009545  0  0.09604  0.097651  0  0.971299  0
H  H3  1  0.73740597  0.60454396  0.07791681  1  0.049318  0  0.102246  0.107988  0  0.965659  0
H  H4  1  0.26090108  0.65159608  0.06093968  1  0.048394  0  0.09879  0.10388  0  0.982384  0
H  H5  1  0.44833135  0.74499137  0.05159325  1  0.030254  0  0.098941  0.103228  0  0.968027  0
H  H6  1  0.45631720  0.72523553  0.90503498  1  0.038964  0  0.096127  0.097365  0  0.974006  0
H  H7  1  0.29584721  0.59935263  0.91813967  1  0.030545  0  0.097711  0.101613  0  0.980273  0
H  H8  1  0.51737354  0.25884352  0.09275968  1  0.103368  0  0.127894  0.101006  0  0.946928  0
H  H9  1  0.59296155  0.24242901  0.94786130  1  0.057664  0  0.103551  0.113433  0  0.961152  0
H  H10  1  0.76704785  0.40487155  0.08123892  1  0.032547  0  0.098732  0.102028  0  0.981382  0
H  H11  1  0.82882669  0.42250294  0.93429684  1  0.051262  0  0.096975  0.101713  0  0.977243  0
H  H12  1  0.37761223  0.31637417  0.93115785  1  0.071621  0  0.107936  0.116793  0  0.985435  0
H  H13  1  0.24741699  0.00867808  0.54327714  1  0.109183  0  0.117041  0.139621  0  0.973097  0
H  H14  1  0.63559534  0.99132097  0.48238359  1  0.110798  0  0.117727  0.140964  0  0.971303  0
H  H15  1  0.94458411  0.47968483  0.57776666  1  0.517681  0  0.336976  0.304752  0  0.89993  0
C  C16  1  0.40311868  0.78898030  0.52084627  1  1.556716  0  0.218035  0.641512  0  4.140786  0
C  C17  1  0.48592151  0.52778628  0.33870550  1  1.689297  0  0.22817  0.692824  0  4.194022  0
C  C18  1  0.47904307  0.21106754  0.50370931  1  1.564145  0  0.217268  0.639282  0  4.14286  0
C  C19  1  0.57030993  0.47271738  0.66088476  1  1.624251  0  0.221689  0.693782  0  4.20483  0
C  C20  1  0.69423257  0.50539385  0.05238920  1  -0.038371  0  -0.149816  -0.188279  0  3.835938  0
C  C21  1  0.39719537  0.64144922  0.03621929  1  -0.00044  0  -0.15548  -0.193843  0  3.856811  0
C  C22  1  0.41781284  0.62190057  0.94002458  1  -0.018573  0  -0.153658  -0.191217  0  3.846674  0
C  C23  1  0.58277690  0.47051374  0.75058050  1  0.086856  0  -0.063024  -0.228163  0  3.992193  0
C  C24  1  0.49895350  0.50553045  0.08237012  1  0.109699  0  0.00966  0.14249  0  3.879923  0
C  C25  1  0.72506801  0.51057199  0.95495735  1  0.011611  0  -0.154484  -0.194919  0  3.857484  0
C  C26  1  0.55674902  0.48663033  0.91784123  1  0.152494  0  0.00219  0.176063  0  3.898369  0
C  C27  1  0.49272971  0.33837175  0.95974459  1  -0.03337  0  -0.149193  -0.236954  0  3.839086  0
C  C28  1  0.45028058  0.35161681  0.05546246  1  0.193512  0  0.019972  -0.021624  0  3.679051  0
C  C29  1  0.57848709  0.47616854  0.82679499  1  -0.361443  0  -0.019714  -0.024657  0  4.018015  0
C  C30  1  0.47552428  0.51593352  0.17340552  1  -0.330806  0  -0.02452  -0.042355  0  4.029299  0
C  C31  1  0.47227007  0.52625975  0.24916221  1  0.062639  0  -0.047902  -0.187564  0  3.957539  0
C  C32  1  0.37754965  0.95692862  0.52410062  1  0.033592  0  -0.07183  -0.160025  0  3.860493  0
C  C33  1  0.50571039  0.04286254  0.50221037  1  -0.078707  0  -0.070583  -0.157942  0  3.857645  0
N  N34  1  0.02028147  0.49938021  0.52001341  1  -0.394994  0  -0.199128  -0.139132  0  3.14924  0
N  N35  1  0.92227933  0.51330854  0.46486003  1  -0.084928  0  -0.02594  0.033072  0  3.061977  0
N  N36  1  0.00964192  0.54995705  0.36544853  1  0.798046  0  0.140555  0.522205  0  4.212634  0
N  N37  1  0.26024104  0.33791289  0.08228889  1  0.451138  0  0.048843  0.519213  0  4.147324  0
O  O38  1  0.55545931  0.72324553  0.50528178  1  -1.165322  0  -0.314575  -0.549702  0  2.324487  0
O  O39  1  0.26580599  0.72274261  0.53348432  1  -1.139397  0  -0.322968  -0.540342  0  2.270111  0
O  O40  1  0.63684391  0.53319616  0.36030055  1  -1.131148  0  -0.314996  -0.535871  0  2.270941  0
O  O41  1  0.34964901  0.52123677  0.38891609  1  -1.163622  0  -0.313436  -0.57128  0  2.330285  0
O  O42  1  0.61354108  0.27897603  0.48677697  1  -1.15633  0  -0.313398  -0.539163  0  2.286408  0
O  O43  1  0.32575994  0.27536859  0.52149187  1  -1.141384  0  -0.321101  -0.542883  0  2.300201  0
O  O44  1  0.71033244  0.47356852  0.61116086  1  -1.165658  0  -0.320568  -0.575949  0  2.27382  0
O  O45  1  0.42081982  0.47560282  0.63717923  1  -1.145509  0  -0.306341  -0.544115  0  2.217527  0
O  O46  1  0.03684762  0.43838623  0.32528746  1  -0.356828  0  -0.033751  -0.199901  0  1.989935  0
O  O47  1  0.01342576  0.68410724  0.34885440  1  -0.364303  0  -0.048318  -0.218489  0  1.946597  0
O  O48  1  0.22646639  0.26916966  0.15072705  1  -0.43316  0  -0.127813  -0.326274  0  1.890024  0
O  O49  1  0.15196884  0.39855969  0.03499474  1  -0.480551  0  -0.132609  -0.340203  0  1.920517  0
