# generated using pymatgen
data_AlH4C13IO5
_symmetry_space_group_name_H-M   'P 1'
_cell_length_a   6.65334218
_cell_length_b   19.72974723
_cell_length_c   21.33356919
_cell_angle_alpha   93.24130076
_cell_angle_beta   90.00009361
_cell_angle_gamma   90.00020538
_symmetry_Int_Tables_number   1
_chemical_formula_structural   AlH4C13IO5
_chemical_formula_sum   'Al4 H16 C52 I4 O20'
_cell_volume   2795.95121967
_cell_formula_units_Z   4
loop_
 _symmetry_equiv_pos_site_id
 _symmetry_equiv_pos_as_xyz
  1  'x, y, z'
loop_
 _atom_site_type_symbol
 _atom_site_label
 _atom_site_symmetry_multiplicity
 _atom_site_fract_x
 _atom_site_fract_y
 _atom_site_fract_z
 _atom_site_occupancy
 _atom_site_pbe_bader_charge
 _atom_site_pbe_bader_spin_density
 _atom_site_pbe_cm5_charge
 _atom_site_pbe_ddec_charge
 _atom_site_pbe_ddec_spin_density
 _atom_site_pbe_ddec_sum_bond_order
 _atom_site_pbe_magmom
Al  Al0  1  0.24570633  0.75156036  0.74912251  1  2.497845  0  0.397312  1.652543  0  2.560494  0
Al  Al1  1  0.75429349  0.24843818  0.25087712  1  2.497814  0  0.397309  1.652617  0  2.560425  0
Al  Al2  1  0.74570765  0.74843889  0.75087697  1  2.497818  0  0.397338  1.652563  0  2.560448  0
Al  Al3  1  0.25429367  0.25156012  0.24912219  1  2.497827  0  0.397331  1.652508  0  2.560532  0
H  H4  1  0.26651264  0.34660744  0.08299293  1  0.094881  0  0.114017  0.124194  0  0.989725  0
H  H5  1  0.73349320  0.65339424  0.91700860  1  0.094853  0  0.114007  0.12423  0  0.989697  0
H  H6  1  0.76653742  0.15338013  0.41699508  1  0.094089  0  0.113962  0.124131  0  0.989829  0
H  H7  1  0.23346391  0.84661947  0.58300550  1  0.094077  0  0.113985  0.124126  0  0.989807  0
H  H8  1  0.56313438  0.53448804  0.09789941  1  0.083673  0  0.089655  0.093235  0  1.055997  0
H  H9  1  0.43686544  0.46551101  0.90210022  1  0.083653  0  0.08967  0.093241  0  1.055988  0
H  H10  1  0.06309210  0.96552575  0.40211567  1  0.08374  0  0.08966  0.093319  0  1.055829  0
H  H11  1  0.93690772  0.03447382  0.59788444  1  0.083741  0  0.089666  0.093333  0  1.05581  0
H  H12  1  0.56650781  0.61076036  0.01087542  1  0.077201  0  0.109983  0.11612  0  0.973166  0
H  H13  1  0.43349653  0.38924132  0.98912610  1  0.077375  0  0.109973  0.116125  0  0.973138  0
H  H14  1  0.06645815  0.88926030  0.48914486  1  0.077714  0  0.109992  0.116187  0  0.973015  0
H  H15  1  0.93354468  0.11073876  0.51085524  1  0.077714  0  0.109973  0.116129  0  0.973044  0
H  H16  1  0.48733027  0.66445775  0.76584982  1  0.632172  0  0.314066  0.387076  0  0.945778  0
H  H17  1  0.51266956  0.33554182  0.23415029  1  0.632168  0  0.314081  0.387111  0  0.945726  0
H  H18  1  0.98733107  0.83554077  0.73414914  1  0.63212  0  0.314088  0.387106  0  0.945732  0
H  H19  1  0.01266875  0.16445827  0.26585049  1  0.63218  0  0.314072  0.387091  0  0.945753  0
C  C20  1  0.49656384  0.83497127  0.83716749  1  1.683965  0  0.26929  0.68791  0  4.197956  0
C  C21  1  0.50343899  0.16502828  0.16283214  1  1.684282  0  0.269243  0.687803  0  4.198065  0
C  C22  1  0.99656040  0.66502878  0.66283149  1  1.684347  0  0.269149  0.687641  0  4.19825  0
C  C23  1  0.00344092  0.33497023  0.33716767  1  1.684099  0  0.269207  0.687802  0  4.198227  0
C  C24  1  0.49969515  0.83355163  0.67073140  1  1.586789  0  0.270393  0.656825  0  4.074452  0
C  C25  1  0.50030316  0.16644743  0.32926870  1  1.586855  0  0.270387  0.656787  0  4.074327  0
C  C26  1  0.99969361  0.66645010  0.82927041  1  1.586755  0  0.270303  0.6567  0  4.074516  0
C  C27  1  0.00030621  0.33354945  0.17072922  1  1.586567  0  0.270215  0.656628  0  4.074736  0
C  C28  1  0.14890128  0.38453874  0.07892915  1  0.013336  0  -0.076467  -0.136741  0  3.945348  0
C  C29  1  0.85110306  0.61546240  0.92107190  1  0.013358  0  -0.076474  -0.136815  0  3.945315  0
C  C30  1  0.64891663  0.11545201  0.42106430  1  0.013746  0  -0.076461  -0.136825  0  3.945586  0
C  C31  1  0.35108169  0.88454762  0.57893674  1  0.013756  0  -0.076502  -0.136841  0  3.945679  0
C  C32  1  0.99446865  0.38701275  0.12349247  1  -0.007834  0  -0.018966  -0.072866  0  3.996589  0
C  C33  1  0.00553268  0.61298733  0.87650764  1  -0.007833  0  -0.018992  -0.072893  0  3.996615  0
C  C34  1  0.49447108  0.11298324  0.37650537  1  -0.007812  0  -0.018939  -0.072743  0  3.996434  0
C  C35  1  0.50553025  0.88701638  0.62349567  1  -0.007839  0  -0.018966  -0.072797  0  3.996682  0
C  C36  1  0.84372362  0.43689032  0.12036909  1  -0.204052  0  -0.036623  -0.008863  0  3.809809  0
C  C37  1  0.15627319  0.56310875  0.87963101  1  -0.204035  0  -0.03663  -0.008861  0  3.809813  0
C  C38  1  0.34371350  0.06311079  0.37963321  1  -0.2041  0  -0.036666  -0.008865  0  3.809727  0
C  C39  1  0.65628632  0.93688886  0.62036830  1  -0.204123  0  -0.036638  -0.008785  0  3.809659  0
C  C40  1  0.84026861  0.48205524  0.07104051  1  0.001147  0  -0.011507  0.039971  0  4.013716  0
C  C41  1  0.15973271  0.51794433  0.92895959  1  0.001138  0  -0.011506  0.039953  0  4.013768  0
C  C42  1  0.34025620  0.01794749  0.42896367  1  0.001172  0  -0.011519  0.039901  0  4.01405  0
C  C43  1  0.65974363  0.98205161  0.57103690  1  0.001189  0  -0.011479  0.039892  0  4.014031  0
C  C44  1  0.99845240  0.47753330  0.02508148  1  0.038495  0  0.007195  0.01304  0  3.89363  0
C  C45  1  0.00155043  0.52246731  0.97491910  1  -0.021611  0  0.007212  0.01304  0  3.893657  0
C  C46  1  0.49845024  0.02246480  0.47491779  1  -0.021329  0  0.00724  0.013055  0  3.89367  0
C  C47  1  0.50154958  0.97753426  0.52508231  1  0.038744  0  0.007215  0.013055  0  3.893714  0
C  C48  1  0.15456198  0.42858636  0.02985986  1  -0.031533  0  -0.008234  0.074247  0  4.057316  0
C  C49  1  0.84544235  0.57141476  0.97014073  1  -0.031526  0  -0.008205  0.074304  0  4.057243  0
C  C50  1  0.65457655  0.07140642  0.47013362  1  -0.031725  0  -0.00827  0.074266  0  4.057146  0
C  C51  1  0.34542478  0.92859371  0.52986743  1  -0.031718  0  -0.008242  0.074302  0  4.057248  0
C  C52  1  0.68573302  0.53174841  0.06401445  1  0.028363  0  -0.096945  -0.127322  0  4.016756  0
C  C53  1  0.31426831  0.46825170  0.93598612  1  0.02835  0  -0.09695  -0.127259  0  4.016792  0
C  C54  1  0.18570557  0.96826071  0.43599564  1  0.028331  0  -0.096959  -0.127475  0  4.01663  0
C  C55  1  0.81429426  0.03173836  0.56400446  1  0.028324  0  -0.096982  -0.127506  0  4.016703  0
C  C56  1  0.68762718  0.57412093  0.01568818  1  -0.079342  0  -0.082402  -0.110921  0  3.982203  0
C  C57  1  0.31237414  0.42588019  0.98431240  1  -0.079538  0  -0.082368  -0.110926  0  3.982202  0
C  C58  1  0.18759747  0.92589239  0.48432476  1  -0.079617  0  -0.082345  -0.110851  0  3.981868  0
C  C59  1  0.81240235  0.07410774  0.51567628  1  -0.079607  0  -0.082325  -0.110765  0  3.981886  0
C  C60  1  0.00280824  0.38518436  0.38895862  1  0.204744  0  -0.000719  -0.133457  0  3.830598  0
C  C61  1  0.99718858  0.61481463  0.61104007  1  0.204748  0  -0.000769  -0.133483  0  3.830677  0
C  C62  1  0.50280765  0.11481364  0.11104119  1  0.204755  0  -0.000631  -0.133335  0  3.830768  0
C  C63  1  0.49719368  0.88518690  0.88895798  1  0.204849  0  -0.000706  -0.133508  0  3.830774  0
C  C64  1  0.00206583  0.42931977  0.43182466  1  -0.280365  0  -0.010424  0.023921  0  4.262328  0
C  C65  1  0.99792948  0.57068031  0.56817545  1  -0.28044  0  -0.010389  0.023895  0  4.26225  0
C  C66  1  0.50206809  0.07067978  0.06817563  1  -0.280429  0  -0.010486  0.023759  0  4.262407  0
C  C67  1  0.49793323  0.92931974  0.93182353  1  -0.280416  0  -0.010478  0.023845  0  4.262374  0
C  C68  1  0.00071922  0.47766793  0.47857155  1  0.064089  0  -0.000415  -0.00242  0  4.19461  0
C  C69  1  0.99927308  0.52233210  0.52142762  1  -0.122637  0  -0.000291  -0.002161  0  4.194498  0
C  C70  1  0.50072282  0.02233204  0.02142733  1  0.064142  0  -0.00038  -0.002298  0  4.194465  0
C  C71  1  0.49928301  0.97766852  0.97857231  1  -0.122705  0  -0.00035  -0.002245  0  4.194417  0
I  I72  1  0.63306542  0.45371343  0.19425483  1  0.135439  0  0.140064  0.026691  0  1.545109  0
I  I73  1  0.36692238  0.54628348  0.80574291  1  0.135455  0  0.140051  0.026671  0  1.545098  0
I  I74  1  0.13304210  0.04628655  0.30575039  1  0.135475  0  0.140055  0.026677  0  1.545074  0
I  I75  1  0.86695772  0.95371356  0.69425019  1  0.135449  0  0.140044  0.026648  0  1.545081  0
O  O76  1  0.66623984  0.81019871  0.68875267  1  -1.259786  0  -0.233066  -0.589035  0  2.404715  0
O  O77  1  0.33375998  0.18980036  0.31124743  1  -1.25978  0  -0.233076  -0.589016  0  2.404718  0
O  O78  1  0.16623748  0.68980147  0.81124714  1  -1.259746  0  -0.23305  -0.589001  0  2.404813  0
O  O79  1  0.83376234  0.31019757  0.18875249  1  -1.259498  0  -0.232986  -0.588957  0  2.404767  0
O  O80  1  0.32473590  0.81763583  0.81547300  1  -1.221593  0  -0.226219  -0.565375  0  2.278227  0
O  O81  1  0.67526393  0.18236324  0.18452710  1  -1.221574  0  -0.226196  -0.565317  0  2.278211  0
O  O82  1  0.82473549  0.68236257  0.68452755  1  -1.221627  0  -0.226148  -0.565248  0  2.278279  0
O  O83  1  0.17526433  0.31763695  0.31547162  1  -1.221684  0  -0.226169  -0.565289  0  2.278359  0
O  O84  1  0.32679543  0.81423560  0.68811391  1  -1.257766  0  -0.231449  -0.586496  0  2.340304  0
O  O85  1  0.67320590  0.18576346  0.31188619  1  -1.257748  0  -0.231437  -0.58649  0  2.340234  0
O  O86  1  0.82679269  0.68576541  0.81188806  1  -1.257754  0  -0.231379  -0.586398  0  2.340287  0
O  O87  1  0.17320563  0.31423414  0.18811157  1  -1.257756  0  -0.231355  -0.586371  0  2.34045  0
O  O88  1  0.16800694  0.68599965  0.68201720  1  -1.221407  0  -0.226758  -0.573898  0  2.293789  0
O  O89  1  0.83199138  0.31399881  0.31798102  1  -1.221175  0  -0.226801  -0.574038  0  2.293761  0
O  O90  1  0.66800846  0.81399950  0.81798215  1  -1.221172  0  -0.226801  -0.573982  0  2.293725  0
O  O91  1  0.33199287  0.18599957  0.18201796  1  -1.221424  0  -0.226811  -0.573984  0  2.293723  0
O  O92  1  0.49404297  0.70975673  0.74987316  1  -1.455305  0  -0.451766  -0.988346  0  2.238219  0
O  O93  1  0.50595535  0.29024282  0.25012647  1  -1.455367  0  -0.451779  -0.988395  0  2.238207  0
O  O94  1  0.99404321  0.79024233  0.75012628  1  -1.45526  0  -0.451779  -0.988373  0  2.238246  0
O  O95  1  0.00595511  0.20975668  0.24987289  1  -1.455324  0  -0.451778  -0.988383  0  2.238247  0
