# generated using pymatgen
data_NaH17(C2O)9
_symmetry_space_group_name_H-M   'P 1'
_cell_length_a   7.67248683
_cell_length_b   10.66934701
_cell_length_c   13.00045452
_cell_angle_alpha   107.59749053
_cell_angle_beta   107.21120844
_cell_angle_gamma   89.91421567
_symmetry_Int_Tables_number   1
_chemical_formula_structural   NaH17(C2O)9
_chemical_formula_sum   'Na2 H34 C36 O18'
_cell_volume   964.46385722
_cell_formula_units_Z   2
loop_
 _symmetry_equiv_pos_site_id
 _symmetry_equiv_pos_as_xyz
  1  'x, y, z'
loop_
 _atom_site_type_symbol
 _atom_site_label
 _atom_site_symmetry_multiplicity
 _atom_site_fract_x
 _atom_site_fract_y
 _atom_site_fract_z
 _atom_site_occupancy
 _atom_site_hle17_bader_spin_density
 _atom_site_hle17_ddec_charge
 _atom_site_hle17_ddec_spin_density
 _atom_site_hle17_ddec_sum_bond_order
 _atom_site_hle17_magmom
 _atom_site_hse06_10hf_bader_spin_density
 _atom_site_hse06_10hf_ddec_charge
 _atom_site_hse06_10hf_ddec_spin_density
 _atom_site_hse06_10hf_ddec_sum_bond_order
 _atom_site_hse06_10hf_magmom
 _atom_site_hse06_bader_spin_density
 _atom_site_hse06_ddec_charge
 _atom_site_hse06_ddec_spin_density
 _atom_site_hse06_ddec_sum_bond_order
 _atom_site_hse06_magmom
 _atom_site_pbe_bader_spin_density
 _atom_site_pbe_cm5_charge
 _atom_site_pbe_ddec_charge
 _atom_site_pbe_ddec_spin_density
 _atom_site_pbe_ddec_sum_bond_order
 _atom_site_pbe_magmom
Na  Na0  1  0.92601708  0.25019607  0.00026752  1  0  0.903691  0  0.401094  0  0  0.865206  0  0.54694  0  0  0.875527  0  0.524336  0  0  0.711472  0.857202  0  0.563657  0
Na  Na1  1  0.07398880  0.74980739  0.99974182  1  0  0.903675  0  0.401104  0  0  0.865189  0  0.546946  0  0  0.875515  0  0.524341  0  0  0.711471  0.857187  0  0.563669  0
H  H2  1  0.00000106  0.50000409  0.00000040  1  0  0.384375  0  0.923507  0  0  0.350863  0  1.007023  0  0  0.365818  0  0.992053  0  0  0.291929  0.34049  0  1.016919  0
H  H3  1  0.99999257  0.99999561  0.99999197  1  0  0.385193  0  0.922704  0  0  0.351844  0  1.00602  0  0  0.366804  0  0.990697  0  0  0.29237  0.341467  0  1.015914  0
H  H4  1  0.47428759  0.85069930  0.83837840  1  0  0.160958  0  0.925515  0  0  0.177758  0  0.982193  0  0  0.180966  0  0.980134  0  0  0.110706  0.175395  0  0.983808  0
H  H5  1  0.63519259  0.64929677  0.16164912  1  0  0.161157  0  0.926753  0  0  0.17805  0  0.983087  0  0  0.181237  0  0.981046  0  0  0.110872  0.175687  0  0.984729  0
H  H6  1  0.52571136  0.14930320  0.16162180  1  0  0.160962  0  0.925502  0  0  0.177771  0  0.982185  0  0  0.180978  0  0.980129  0  0  0.11071  0.17541  0  0.983802  0
H  H7  1  0.36478552  0.35070281  0.83834053  1  0  0.161124  0  0.926752  0  0  0.178025  0  0.983087  0  0  0.181213  0  0.981047  0  0  0.110864  0.175663  0  0.984728  0
H  H8  1  0.48563131  0.81359026  0.69654738  1  0  0.144271  0  0.946186  0  0  0.160562  0  1.010213  0  0  0.162518  0  1.010653  0  0  0.101105  0.159074  0  1.010154  0
H  H9  1  0.78900259  0.68620417  0.30336384  1  0  0.144431  0  0.946159  0  0  0.16081  0  1.010082  0  0  0.162754  0  1.010521  0  0  0.101003  0.159331  0  1.010022  0
H  H10  1  0.51436288  0.18640730  0.30344998  1  0  0.144262  0  0.946207  0  0  0.16055  0  1.010255  0  0  0.162505  0  1.010698  0  0  0.101057  0.159062  0  1.010201  0
H  H11  1  0.21097580  0.31379740  0.69662328  1  0  0.144302  0  0.946164  0  0  0.160752  0  1.010035  0  0  0.162695  0  1.010478  0  0  0.100982  0.159269  0  1.009981  0
H  H12  1  0.68818735  0.82298817  0.81024199  1  0  0.162712  0  0.938344  0  0  0.178778  0  0.999293  0  0  0.181613  0  0.998043  0  0  0.112537  0.176776  0  1.000126  0
H  H13  1  0.87722132  0.67689879  0.18952391  1  0  0.162701  0  0.937841  0  0  0.178952  0  0.998589  0  0  0.1818  0  0.997296  0  0  0.112346  0.176936  0  0.999452  0
H  H14  1  0.31180207  0.17700446  0.18975483  1  0  0.162718  0  0.938291  0  0  0.178817  0  0.999204  0  0  0.181656  0  0.997945  0  0  0.1126  0.176814  0  1.000039  0
H  H15  1  0.12276200  0.32308893  0.81046215  1  0  0.16268  0  0.937914  0  0  0.178904  0  0.998697  0  0  0.181756  0  0.997399  0  0  0.112355  0.176887  0  0.999564  0
H  H16  1  0.53214105  0.19664654  0.93807976  1  0  0.418596  0  0.888038  0  0  0.391728  0  0.94466  0  0  0.401944  0  0.929627  0  0  0.28362  0.384556  0  0.955187  0
H  H17  1  0.59343184  0.30257743  0.06211665  1  0  0.4175  0  0.889443  0  0  0.390848  0  0.945617  0  0  0.401045  0  0.93062  0  0  0.28319  0.383711  0  0.956097  0
H  H18  1  0.46785314  0.80335103  0.06191760  1  0  0.418518  0  0.888123  0  0  0.391635  0  0.944761  0  0  0.401864  0  0.929717  0  0  0.283582  0.384464  0  0.955282  0
H  H19  1  0.40656740  0.69741717  0.93788162  1  0  0.417445  0  0.88953  0  0  0.390781  0  0.945724  0  0  0.400982  0  0.930721  0  0  0.283138  0.383644  0  0.956205  0
H  H20  1  0.77870610  0.20909419  0.76363899  1  0  0.109354  0  0.978125  0  0  0.114171  0  1.047203  0  0  0.118213  0  1.043895  0  0  0.110664  0.11125  0  1.049536  0
H  H21  1  0.01420695  0.29043009  0.23626180  1  0  0.110026  0  0.978902  0  0  0.114696  0  1.047858  0  0  0.118766  0  1.044554  0  0  0.11105  0.111766  0  1.050214  0
H  H22  1  0.22130127  0.79091025  0.23637316  1  0  0.109203  0  0.978369  0  0  0.114209  0  1.047261  0  0  0.118277  0  1.043925  0  0  0.110671  0.111284  0  1.049599  0
H  H23  1  0.98580237  0.70956844  0.76374230  1  0  0.110057  0  0.978833  0  0  0.114725  0  1.047801  0  0  0.118794  0  1.044499  0  0  0.111047  0.111794  0  1.050159  0
H  H24  1  0.33731761  0.39793529  0.49933170  1  0  0.117623  0  0.952125  0  0  0.12484  0  1.017258  0  0  0.128505  0  1.015448  0  0  0.106602  0.122205  0  1.018695  0
H  H25  1  0.83848972  0.10180267  0.50060216  1  0  0.117031  0  0.951695  0  0  0.124353  0  1.016924  0  0  0.127999  0  1.015151  0  0  0.106454  0.121741  0  1.01833  0
H  H26  1  0.66269376  0.60206819  0.50067015  1  0  0.117642  0  0.952075  0  0  0.124864  0  1.017186  0  0  0.128536  0  1.015378  0  0  0.106598  0.122226  0  1.018628  0
H  H27  1  0.16149670  0.89819788  0.49938997  1  0  0.117057  0  0.95162  0  0  0.124339  0  1.016894  0  0  0.127986  0  1.015121  0  0  0.106434  0.121727  0  1.018295  0
H  H28  1  0.54777774  0.06022483  0.59494463  1  0  0.08752  0  0.95938  0  0  0.099706  0  1.018819  0  0  0.102447  0  1.01802  0  0  0.100532  0.097661  0  1.019637  0
H  H29  1  0.95262910  0.43936953  0.40514182  1  0  0.087792  0  0.95946  0  0  0.099426  0  1.019343  0  0  0.102166  0  1.018536  0  0  0.100678  0.097374  0  1.02018  0
H  H30  1  0.45223114  0.93977071  0.40506634  1  0  0.087422  0  0.959394  0  0  0.099642  0  1.018796  0  0  0.102388  0  1.017993  0  0  0.100479  0.097594  0  1.01963  0
H  H31  1  0.04738146  0.56062802  0.59485841  1  0  0.087712  0  0.959576  0  0  0.099404  0  1.019393  0  0  0.10214  0  1.018587  0  0  0.100691  0.097354  0  1.020233  0
H  H32  1  0.32545762  0.15416366  0.45887855  1  0  0.087103  0  0.952501  0  0  0.097029  0  1.013665  0  0  0.099322  0  1.013305  0  0  0.10094  0.095404  0  1.013904  0
H  H33  1  0.86722275  0.34559082  0.54133521  1  0  0.087441  0  0.952313  0  0  0.097445  0  1.01317  0  0  0.099728  0  1.012836  0  0  0.100866  0.095801  0  1.01344  0
H  H34  1  0.67455418  0.84583291  0.54112088  1  0  0.087203  0  0.952448  0  0  0.097096  0  1.013635  0  0  0.099397  0  1.013275  0  0  0.100953  0.095456  0  1.013907  0
H  H35  1  0.13278647  0.65440675  0.45866017  1  0  0.087461  0  0.95228  0  0  0.097448  0  1.013157  0  0  0.099735  0  1.012821  0  0  0.100842  0.095804  0  1.013426  0
C  C36  1  0.68810555  0.38852000  0.73085569  1  0  -0.170498  0  3.721135  0  0  -0.154069  0  3.959709  0  0  -0.164943  0  3.981396  0  0  -0.017932  -0.147125  0  3.945295  0
C  C37  1  0.95678685  0.11100100  0.26897863  1  0  -0.169879  0  3.721498  0  0  -0.153697  0  3.960569  0  0  -0.164463  0  3.98217  0  0  -0.018348  -0.146818  0  3.946204  0
C  C38  1  0.31191039  0.61148738  0.26916333  1  0  -0.170225  0  3.721016  0  0  -0.153746  0  3.959565  0  0  -0.164622  0  3.981258  0  0  -0.017854  -0.146795  0  3.945136  0
C  C39  1  0.04320514  0.88900051  0.73102317  1  0  -0.169726  0  3.721269  0  0  -0.15366  0  3.960403  0  0  -0.164425  0  3.982011  0  0  -0.018249  -0.146781  0  3.946035  0
C  C40  1  0.56054435  0.43833134  0.65363832  1  0  0.27122  0  3.741734  0  0  0.251785  0  4.00729  0  0  0.263769  0  4.022732  0  0  0.089388  0.243726  0  3.996954  0
C  C41  1  0.90670553  0.06125157  0.34616644  1  0  0.270378  0  3.74356  0  0  0.250405  0  4.009584  0  0  0.262272  0  4.025123  0  0  0.089552  0.242452  0  3.999164  0
C  C42  1  0.43948093  0.56167410  0.34636800  1  0  0.271187  0  3.741549  0  0  0.25173  0  4.007141  0  0  0.263716  0  4.02258  0  0  0.089459  0.243682  0  3.996794  0
C  C43  1  0.09327200  0.93875392  0.65383074  1  0  0.270089  0  3.743664  0  0  0.25033  0  4.009495  0  0  0.262194  0  4.025042  0  0  0.089497  0.242377  0  3.999076  0
C  C44  1  0.43294171  0.35498140  0.55652190  1  0  -0.171586  0  3.745242  0  0  -0.196584  0  4.006755  0  0  -0.202008  0  4.025405  0  0  -0.096969  -0.193141  0  3.994351  0
C  C45  1  0.87670591  0.14469648  0.44343222  1  0  -0.170041  0  3.744691  0  0  -0.195131  0  4.00637  0  0  -0.200554  0  4.025093  0  0  -0.095783  -0.191717  0  3.993925  0
C  C46  1  0.56706867  0.64502502  0.44348821  1  0  -0.171748  0  3.745471  0  0  -0.196721  0  4.006952  0  0  -0.202159  0  4.025616  0  0  -0.097061  -0.193277  0  3.994538  0
C  C47  1  0.12328226  0.85530701  0.55656710  1  0  -0.170073  0  3.744578  0  0  -0.195158  0  4.006168  0  0  -0.200582  0  4.024891  0  0  -0.09579  -0.191736  0  3.993714  0
C  C48  1  0.42813167  0.21845687  0.53433161  1  0  -0.037957  0  3.766861  0  0  -0.052653  0  4.020433  0  0  -0.051696  0  4.041078  0  0  -0.08335  -0.052996  0  4.006195  0
C  C49  1  0.89403982  0.28122732  0.46574042  1  0  -0.038778  0  3.767405  0  0  -0.053589  0  4.02096  0  0  -0.052625  0  4.041593  0  0  -0.083614  -0.053916  0  4.00674  0
C  C50  1  0.57188747  0.78154362  0.46567317  1  0  -0.038014  0  3.767223  0  0  -0.052679  0  4.020746  0  0  -0.051737  0  4.041412  0  0  -0.0833  -0.05302  0  4.006502  0
C  C51  1  0.10595888  0.71877321  0.53425539  1  0  -0.038754  0  3.767298  0  0  -0.053549  0  4.020847  0  0  -0.05259  0  4.041483  0  0  -0.083585  -0.053877  0  4.006623  0
C  C52  1  0.55204093  0.16651192  0.60984965  1  0  -0.090071  0  3.774644  0  0  -0.105475  0  4.029364  0  0  -0.109984  0  4.051131  0  0  -0.095187  -0.102518  0  4.014569  0
C  C53  1  0.94205103  0.33308669  0.39018847  1  0  -0.089376  0  3.773773  0  0  -0.104179  0  4.028274  0  0  -0.108682  0  4.050048  0  0  -0.094837  -0.101234  0  4.013504  0
C  C54  1  0.44797025  0.83349052  0.39016575  1  0  -0.089943  0  3.775064  0  0  -0.105363  0  4.029778  0  0  -0.109879  0  4.051556  0  0  -0.095183  -0.102412  0  4.014996  0
C  C55  1  0.05795447  0.66691383  0.60981392  1  0  -0.089313  0  3.773809  0  0  -0.104145  0  4.028293  0  0  -0.108642  0  4.050067  0  0  -0.094796  -0.101201  0  4.013527  0
C  C56  1  0.68078242  0.25069412  0.70626569  1  0  -0.041557  0  3.707516  0  0  -0.066296  0  3.958041  0  0  -0.064632  0  3.977763  0  0  -0.073761  -0.067055  0  3.94451  0
C  C57  1  0.97398954  0.24884351  0.29364765  1  0  -0.043046  0  3.707712  0  0  -0.067412  0  3.957902  0  0  -0.065787  0  3.97759  0  0  -0.074252  -0.068188  0  3.944452  0
C  C58  1  0.31924119  0.74931921  0.29374616  1  0  -0.041525  0  3.707863  0  0  -0.066462  0  3.958369  0  0  -0.06482  0  3.978116  0  0  -0.073767  -0.067222  0  3.944838  0
C  C59  1  0.02600778  0.75115701  0.70635100  1  0  -0.043144  0  3.707776  0  0  -0.067507  0  3.958056  0  0  -0.065876  0  3.977729  0  0  -0.07431  -0.068277  0  3.944602  0
C  C60  1  0.82666032  0.47604477  0.83656075  1  0  0.691888  0  3.843067  0  0  0.644266  0  4.137888  0  0  0.67876  0  4.127592  0  0  0.230072  0.620997  0  4.144188  0
C  C61  1  0.98928574  0.02348834  0.16312104  1  0  0.692275  0  3.841048  0  0  0.644758  0  4.135902  0  0  0.679223  0  4.125601  0  0  0.23033  0.621496  0  4.142208  0
C  C62  1  0.17336698  0.52397549  0.16344656  1  0  0.691547  0  3.843006  0  0  0.643938  0  4.137833  0  0  0.678439  0  4.12754  0  0  0.229858  0.620669  0  4.144123  0
C  C63  1  0.01070583  0.97652998  0.83687874  1  0  0.692265  0  3.841513  0  0  0.644737  0  4.136407  0  0  0.679194  0  4.126108  0  0  0.23026  0.621482  0  4.142705  0
C  C64  1  0.51138647  0.64968877  0.76070727  1  0  0.716758  0  3.718173  0  0  0.67036  0  4.022842  0  0  0.7032  0  4.014109  0  0  0.25224  0.647856  0  4.028406  0
C  C65  1  0.74971088  0.85027066  0.23948016  1  0  0.719074  0  3.716782  0  0  0.672023  0  4.021785  0  0  0.704845  0  4.013026  0  0  0.25287  0.649589  0  4.027279  0
C  C66  1  0.48863186  0.35031569  0.23929451  1  0  0.716846  0  3.718171  0  0  0.670448  0  4.022904  0  0  0.703325  0  4.014105  0  0  0.252274  0.647949  0  4.028464  0
C  C67  1  0.25026733  0.14972988  0.76051975  1  0  0.719099  0  3.716613  0  0  0.671806  0  4.022002  0  0  0.704652  0  4.013205  0  0  0.252852  0.649378  0  4.027487  0
C  C68  1  0.53983454  0.79349071  0.77743213  1  0  -0.464488  0  3.645407  0  0  -0.542664  0  3.880323  0  0  -0.549913  0  3.882244  0  0  -0.235702  -0.537519  0  3.879072  0
C  C69  1  0.76180071  0.70639027  0.22248660  1  0  -0.465768  0  3.646897  0  0  -0.544192  0  3.881776  0  0  -0.551426  0  3.883693  0  0  -0.2357  -0.539054  0  3.88052  0
C  C70  1  0.46016100  0.20650685  0.22256930  1  0  -0.46453  0  3.645146  0  0  -0.542751  0  3.880109  0  0  -0.550013  0  3.88202  0  0  -0.235758  -0.537608  0  3.87886  0
C  C71  1  0.23817836  0.29360635  0.77750248  1  0  -0.465697  0  3.646913  0  0  -0.544071  0  3.881822  0  0  -0.551322  0  3.883732  0  0  -0.235712  -0.538929  0  3.880568  0
O  O72  1  0.90584817  0.41919455  0.91209018  1  0  -0.641746  0  2.085006  0  0  -0.588411  0  2.314904  0  0  -0.612998  0  2.30017  0  0  -0.367934  -0.571249  0  2.324265  0
O  O73  1  0.99456082  0.08074694  0.08819279  1  0  -0.642489  0  2.085749  0  0  -0.589115  0  2.315425  0  0  -0.613755  0  2.300618  0  0  -0.367938  -0.571924  0  2.32476  0
O  O74  1  0.09415703  0.58080397  0.08791781  1  0  -0.641525  0  2.085339  0  0  -0.588209  0  2.315256  0  0  -0.612801  0  2.300535  0  0  -0.367852  -0.571057  0  2.324617  0
O  O75  1  0.00542424  0.91924372  0.91180047  1  0  -0.642607  0  2.085645  0  0  -0.58921  0  2.315284  0  0  -0.613856  0  2.30048  0  0  -0.367976  -0.57202  0  2.324621  0
O  O76  1  0.86314760  0.59504259  0.84973641  1  0  -0.645219  0  1.946007  0  0  -0.603386  0  2.172424  0  0  -0.624373  0  2.161043  0  0  -0.373333  -0.5888  0  2.179777  0
O  O77  1  0.01091734  0.90405630  0.14924012  1  0  -0.645666  0  1.94438  0  0  -0.60383  0  2.170755  0  0  -0.624835  0  2.159454  0  0  -0.37386  -0.589244  0  2.178087  0
O  O78  1  0.13687023  0.40494806  0.15025644  1  0  -0.645342  0  1.945365  0  0  -0.603506  0  2.171775  0  0  -0.6245  0  2.160397  0  0  -0.373388  -0.58891  0  2.179109  0
O  O79  1  0.98907700  0.09593237  0.85075658  1  0  -0.645458  0  1.945335  0  0  -0.603579  0  2.171678  0  0  -0.624549  0  2.160339  0  0  -0.373656  -0.589001  0  2.179007  0
O  O80  1  0.55712951  0.57370752  0.66846614  1  0  -0.353116  0  2.309126  0  0  -0.284234  0  2.542241  0  0  -0.306092  0  2.541437  0  0  -0.144353  -0.268922  0  2.542293  0
O  O81  1  0.88862996  0.92588464  0.33122390  1  0  -0.353198  0  2.308395  0  0  -0.282867  0  2.540808  0  0  -0.304659  0  2.540045  0  0  -0.144822  -0.26764  0  2.540838  0
O  O82  1  0.44286751  0.42629101  0.33154118  1  0  -0.353099  0  2.30872  0  0  -0.284244  0  2.541882  0  0  -0.306111  0  2.541055  0  0  -0.144445  -0.268953  0  2.541947  0
O  O83  1  0.11135225  0.07411494  0.66876570  1  0  -0.353024  0  2.308161  0  0  -0.282747  0  2.540663  0  0  -0.304553  0  2.539902  0  0  -0.144862  -0.267531  0  2.540696  0
O  O84  1  0.45337632  0.59919059  0.81857716  1  0  -0.533436  0  1.973418  0  0  -0.482727  0  2.172106  0  0  -0.504951  0  2.165212  0  0  -0.25519  -0.467545  0  2.1768  0
O  O85  1  0.63296036  0.90108523  0.18226980  1  0  -0.534555  0  1.974889  0  0  -0.484026  0  2.174201  0  0  -0.506236  0  2.167345  0  0  -0.255118  -0.46886  0  2.178825  0
O  O86  1  0.54662412  0.40080299  0.18143030  1  0  -0.533384  0  1.973846  0  0  -0.482681  0  2.172584  0  0  -0.504914  0  2.165662  0  0  -0.255091  -0.467507  0  2.177279  0
O  O87  1  0.36703498  0.09891041  0.81771266  1  0  -0.53447  0  1.97495  0  0  -0.483844  0  2.174391  0  0  -0.506064  0  2.167514  0  0  -0.25502  -0.468679  0  2.179014  0
O  O88  1  0.63825625  0.24927329  0.00045561  1  0  -0.923791  0  1.724665  0  0  -0.884777  0  1.875198  0  0  -0.900324  0  1.842441  0  0  -0.713237  -0.873495  0  1.897954  0
O  O89  1  0.36173686  0.75072626  0.99953898  1  0  -0.923689  0  1.724744  0  0  -0.88466  0  1.875326  0  0  -0.900223  0  1.842531  0  0  -0.713187  -0.873368  0  1.898092  0
