# generated using pymatgen
data_ZnPH9C8N2O3
_symmetry_space_group_name_H-M   'P 1'
_cell_length_a   5.15963509
_cell_length_b   10.49459111
_cell_length_c   17.76759593
_cell_angle_alpha   90.00045351
_cell_angle_beta   89.99990483
_cell_angle_gamma   90.00013253
_symmetry_Int_Tables_number   1
_chemical_formula_structural   ZnPH9C8N2O3
_chemical_formula_sum   'Zn4 P4 H36 C32 N8 O12'
_cell_volume   962.08441458
_cell_formula_units_Z   4
loop_
 _symmetry_equiv_pos_site_id
 _symmetry_equiv_pos_as_xyz
  1  'x, y, z'
loop_
 _atom_site_type_symbol
 _atom_site_label
 _atom_site_symmetry_multiplicity
 _atom_site_fract_x
 _atom_site_fract_y
 _atom_site_fract_z
 _atom_site_occupancy
 _atom_site_hle17_bader_spin_density
 _atom_site_hle17_ddec_charge
 _atom_site_hle17_ddec_spin_density
 _atom_site_hle17_ddec_sum_bond_order
 _atom_site_hle17_magmom
 _atom_site_hse06_10hf_bader_spin_density
 _atom_site_hse06_10hf_ddec_charge
 _atom_site_hse06_10hf_ddec_spin_density
 _atom_site_hse06_10hf_ddec_sum_bond_order
 _atom_site_hse06_10hf_magmom
 _atom_site_hse06_bader_spin_density
 _atom_site_hse06_ddec_charge
 _atom_site_hse06_ddec_spin_density
 _atom_site_hse06_ddec_sum_bond_order
 _atom_site_hse06_magmom
 _atom_site_pbe_bader_spin_density
 _atom_site_pbe_cm5_charge
 _atom_site_pbe_ddec_charge
 _atom_site_pbe_ddec_spin_density
 _atom_site_pbe_ddec_sum_bond_order
 _atom_site_pbe_magmom
Zn  Zn0  1  0.60818766  0.31716642  0.40639513  1  0  1.17533  0  1.810932  0  0  1.001413  0  2.293872  0  0  1.043632  0  2.235094  0  0  0.721346  0.971403  0  2.33482  0
Zn  Zn1  1  0.89178546  0.68283980  0.90639361  1  0  1.175291  0  1.810959  0  0  1.001406  0  2.293917  0  0  1.043633  0  2.235131  0  0  0.7213  0.971397  0  2.334868  0
Zn  Zn2  1  0.39178528  0.81716807  0.09360931  1  0  1.175364  0  1.810863  0  0  1.001479  0  2.293786  0  0  1.043702  0  2.234998  0  0  0.721313  0.971468  0  2.334739  0
Zn  Zn3  1  0.10820972  0.18283612  0.59360944  1  0  1.175337  0  1.810889  0  0  1.001433  0  2.293841  0  0  1.043657  0  2.235058  0  0  0.721298  0.97143  0  2.334787  0
P  P4  1  0.10784840  0.15072890  0.40614607  1  0  1.443232  0  4.963472  0  0  1.258005  0  5.4637  0  0  1.309307  0  5.42593  0  0  0.279561  1.222151  0  5.489404  0
P  P5  1  0.39212956  0.84927089  0.90614149  1  0  1.443172  0  4.963296  0  0  1.257948  0  5.463552  0  0  1.309248  0  5.425793  0  0  0.279514  1.222094  0  5.489264  0
P  P6  1  0.89212921  0.65073221  0.09385861  1  0  1.443215  0  4.963224  0  0  1.257906  0  5.463676  0  0  1.30917  0  5.425953  0  0  0.27952  1.222054  0  5.489391  0
P  P7  1  0.60786289  0.34927460  0.59385963  1  0  1.443079  0  4.963463  0  0  1.257888  0  5.463648  0  0  1.309197  0  5.425847  0  0  0.27955  1.222025  0  5.489369  0
H  H8  1  0.18258274  0.03455524  0.37272245  1  0  -0.16371  0  0.909478  0  0  -0.127281  0  0.993218  0  0  -0.132814  0  0.990907  0  0  0.082755  -0.123843  0  0.995665  0
H  H9  1  0.31737719  0.96544482  0.87272208  1  0  -0.163789  0  0.909587  0  0  -0.127304  0  0.993275  0  0  -0.132837  0  0.990966  0  0  0.082804  -0.123866  0  0.995722  0
H  H10  1  0.81738264  0.53456047  0.12727857  1  0  -0.163764  0  0.909578  0  0  -0.127255  0  0.993244  0  0  -0.132783  0  0.990936  0  0  0.082811  -0.123815  0  0.995692  0
H  H11  1  0.68260812  0.46544703  0.62728158  1  0  -0.163776  0  0.909619  0  0  -0.127296  0  0.993301  0  0  -0.132831  0  0.990993  0  0  0.08278  -0.123854  0  0.995747  0
H  H12  1  0.70064919  0.69493930  0.22779892  1  0  0.318053  0  0.918889  0  0  0.300793  0  0.976219  0  0  0.309072  0  0.969988  0  0  0.313432  0.29494  0  0.980687  0
H  H13  1  0.79933948  0.30505310  0.72780306  1  0  0.318119  0  0.918675  0  0  0.300791  0  0.976086  0  0  0.309066  0  0.969856  0  0  0.313457  0.294938  0  0.980551  0
H  H14  1  0.29934656  0.19494546  0.27220517  1  0  0.318123  0  0.918627  0  0  0.300878  0  0.975962  0  0  0.309158  0  0.96973  0  0  0.313458  0.29502  0  0.980439  0
H  H15  1  0.20065614  0.80505445  0.77219471  1  0  0.318077  0  0.918783  0  0  0.300814  0  0.97609  0  0  0.309094  0  0.969862  0  0  0.313476  0.294961  0  0.980554  0
H  H16  1  0.08007142  0.47304690  0.47920640  1  0  0.12038  0  0.954524  0  0  0.129679  0  1.014504  0  0  0.133106  0  1.012061  0  0  0.107162  0.12701  0  1.016721  0
H  H17  1  0.41990820  0.52695136  0.97920729  1  0  0.120366  0  0.954495  0  0  0.129627  0  1.014532  0  0  0.133061  0  1.01209  0  0  0.107112  0.126955  0  1.016751  0
H  H18  1  0.91993009  0.97306629  0.02079205  1  0  0.120423  0  0.954515  0  0  0.129653  0  1.014573  0  0  0.13309  0  1.012137  0  0  0.107164  0.126981  0  1.016792  0
H  H19  1  0.58010105  0.02694300  0.52078993  1  0  0.120347  0  0.954493  0  0  0.129595  0  1.014546  0  0  0.133027  0  1.012105  0  0  0.107124  0.126925  0  1.016765  0
H  H20  1  0.39632837  0.65103328  0.49619962  1  0  0.090779  0  0.965682  0  0  0.102235  0  1.025291  0  0  0.10421  0  1.026231  0  0  0.097319  0.100784  0  1.024803  0
H  H21  1  0.10366417  0.34896103  0.99620066  1  0  0.090758  0  0.965664  0  0  0.102165  0  1.02532  0  0  0.104137  0  1.026258  0  0  0.097287  0.100711  0  1.024837  0
H  H22  1  0.60368800  0.15105768  0.00379944  1  0  0.090739  0  0.965751  0  0  0.102148  0  1.025419  0  0  0.104124  0  1.026357  0  0  0.097292  0.100695  0  1.024931  0
H  H23  1  0.89634767  0.84895080  0.50379483  1  0  0.090738  0  0.965644  0  0  0.102163  0  1.025293  0  0  0.104135  0  1.026231  0  0  0.097305  0.100715  0  1.024804  0
H  H24  1  0.39959992  0.83569257  0.41113632  1  0  0.08686  0  0.961784  0  0  0.098329  0  1.024486  0  0  0.100499  0  1.024245  0  0  0.098088  0.096949  0  1.024477  0
H  H25  1  0.10040556  0.16429003  0.91114359  1  0  0.086803  0  0.961842  0  0  0.098333  0  1.024501  0  0  0.100505  0  1.024257  0  0  0.098133  0.096953  0  1.024482  0
H  H26  1  0.60043065  0.33572293  0.08885991  1  0  0.086823  0  0.961893  0  0  0.098345  0  1.024539  0  0  0.100514  0  1.024301  0  0  0.098201  0.096961  0  1.024536  0
H  H27  1  0.89959014  0.66428392  0.58885642  1  0  0.086788  0  0.961809  0  0  0.098323  0  1.024466  0  0  0.100494  0  1.024225  0  0  0.098116  0.096944  0  1.024458  0
H  H28  1  0.09146527  0.84828381  0.30148229  1  0  0.103634  0  0.965151  0  0  0.115286  0  1.02515  0  0  0.117739  0  1.024497  0  0  0.101241  0.113249  0  1.026284  0
H  H29  1  0.40856679  0.15169490  0.80149333  1  0  0.103637  0  0.965026  0  0  0.115279  0  1.025047  0  0  0.117734  0  1.024389  0  0  0.101243  0.113243  0  1.026182  0
H  H30  1  0.90857269  0.34831037  0.19851466  1  0  0.103531  0  0.965041  0  0  0.115183  0  1.025068  0  0  0.117634  0  1.024417  0  0  0.101197  0.113149  0  1.026204  0
H  H31  1  0.59143121  0.65169751  0.69850765  1  0  0.103623  0  0.965093  0  0  0.11525  0  1.02512  0  0  0.117703  0  1.024468  0  0  0.101251  0.113216  0  1.026249  0
H  H32  1  0.47099730  0.38914745  0.21713693  1  0  0.127665  0  0.960489  0  0  0.146046  0  1.026931  0  0  0.14807  0  1.026498  0  0  0.098779  0.14468  0  1.027144  0
H  H33  1  0.02898961  0.61085004  0.71714282  1  0  0.127636  0  0.960575  0  0  0.146055  0  1.02698  0  0  0.148075  0  1.026559  0  0  0.098758  0.144686  0  1.027191  0
H  H34  1  0.52898912  0.88914692  0.28285545  1  0  0.127643  0  0.960565  0  0  0.146064  0  1.026968  0  0  0.148082  0  1.026554  0  0  0.09876  0.144695  0  1.02718  0
H  H35  1  0.97101728  0.11085362  0.78285653  1  0  0.12766  0  0.960515  0  0  0.146067  0  1.02694  0  0  0.148089  0  1.026519  0  0  0.098768  0.144697  0  1.027152  0
H  H36  1  0.33092277  0.54292798  0.20518515  1  0  0.156824  0  0.963793  0  0  0.173129  0  1.02324  0  0  0.176245  0  1.021587  0  0  0.101141  0.170885  0  1.024404  0
H  H37  1  0.16905161  0.45706674  0.70518422  1  0  0.156746  0  0.963863  0  0  0.173092  0  1.023296  0  0  0.176208  0  1.021642  0  0  0.101148  0.17085  0  1.024459  0
H  H38  1  0.66904624  0.04293064  0.29482328  1  0  0.156805  0  0.963897  0  0  0.173159  0  1.023297  0  0  0.176275  0  1.021648  0  0  0.101196  0.170916  0  1.02446  0
H  H39  1  0.83095913  0.95706695  0.79481540  1  0  0.156732  0  0.96384  0  0  0.173019  0  1.023346  0  0  0.176132  0  1.021701  0  0  0.101142  0.170774  0  1.024506  0
H  H40  1  0.24364383  0.44449561  0.28392710  1  0  0.145201  0  0.955241  0  0  0.162  0  1.018098  0  0  0.164441  0  1.017772  0  0  0.101506  0.160133  0  1.018673  0
H  H41  1  0.25634620  0.55549276  0.78392897  1  0  0.145138  0  0.955286  0  0  0.162035  0  1.018036  0  0  0.164476  0  1.017704  0  0  0.101522  0.160168  0  1.018608  0
H  H42  1  0.75635461  0.94451483  0.21607439  1  0  0.145211  0  0.95525  0  0  0.162072  0  1.018031  0  0  0.164515  0  1.017697  0  0  0.101527  0.160205  0  1.018603  0
H  H43  1  0.74365643  0.05549005  0.71606972  1  0  0.145178  0  0.955256  0  0  0.162063  0  1.018035  0  0  0.164506  0  1.017701  0  0  0.10154  0.160196  0  1.018608  0
C  C44  1  0.90967937  0.56149090  0.38026254  1  0  0.151095  0  3.815232  0  0  0.149287  0  4.057288  0  0  0.152578  0  4.081564  0  0  0.087214  0.147281  0  4.040937  0
C  C45  1  0.59030534  0.43850410  0.88026927  1  0  0.151132  0  3.81545  0  0  0.149502  0  4.057278  0  0  0.152795  0  4.081551  0  0  0.087299  0.147494  0  4.040932  0
C  C46  1  0.09032595  0.06151067  0.11973374  1  0  0.151458  0  3.814994  0  0  0.149697  0  4.056979  0  0  0.152988  0  4.081252  0  0  0.087376  0.147689  0  4.040632  0
C  C47  1  0.40970204  0.93850094  0.61973125  1  0  0.15104  0  3.815505  0  0  0.14946  0  4.05721  0  0  0.152749  0  4.081483  0  0  0.087304  0.147455  0  4.040864  0
C  C48  1  0.91642067  0.66722464  0.33075899  1  0  0.154356  0  3.808572  0  0  0.148261  0  4.048187  0  0  0.151835  0  4.071639  0  0  0.091804  0.145796  0  4.032118  0
C  C49  1  0.58358161  0.33276599  0.83076618  1  0  0.1542  0  3.808699  0  0  0.148002  0  4.048311  0  0  0.151573  0  4.071764  0  0  0.091813  0.145533  0  4.032249  0
C  C50  1  0.08360105  0.16724491  0.16923857  1  0  0.153984  0  3.808568  0  0  0.147927  0  4.048175  0  0  0.151497  0  4.07164  0  0  0.091825  0.145461  0  4.03211  0
C  C51  1  0.41642487  0.83277392  0.66923306  1  0  0.154228  0  3.80884  0  0  0.148116  0  4.048297  0  0  0.15169  0  4.071761  0  0  0.091843  0.145652  0  4.032225  0
C  C52  1  0.61399474  0.53007277  0.29283799  1  0  0.472691  0  3.70292  0  0  0.444796  0  3.979243  0  0  0.464704  0  3.990904  0  0  0.238348  0.431634  0  3.970749  0
C  C53  1  0.88599110  0.46991816  0.79284012  1  0  0.472935  0  3.702844  0  0  0.444936  0  3.979302  0  0  0.464845  0  3.990958  0  0  0.238318  0.431767  0  3.970817  0
C  C54  1  0.38599596  0.03008404  0.20716185  1  0  0.472719  0  3.703002  0  0  0.444785  0  3.979484  0  0  0.464692  0  3.991151  0  0  0.238281  0.431618  0  3.970993  0
C  C55  1  0.11401540  0.96992401  0.70715516  1  0  0.473048  0  3.702881  0  0  0.445115  0  3.979247  0  0  0.465027  0  3.990902  0  0  0.238418  0.43195  0  3.970757  0
C  C56  1  0.08255157  0.55393826  0.44088375  1  0  -0.136979  0  3.715345  0  0  -0.155049  0  3.964778  0  0  -0.157349  0  3.983901  0  0  -0.089982  -0.153646  0  3.952598  0
C  C57  1  0.41742321  0.44605745  0.94088648  1  0  -0.136895  0  3.715581  0  0  -0.155008  0  3.964971  0  0  -0.157318  0  3.984102  0  0  -0.089958  -0.153604  0  3.952795  0
C  C58  1  0.91745396  0.05395552  0.05911582  1  0  -0.137093  0  3.715394  0  0  -0.155142  0  3.964867  0  0  -0.157456  0  3.984  0  0  -0.090053  -0.153741  0  3.952694  0
C  C59  1  0.58257815  0.94605347  0.55911019  1  0  -0.136826  0  3.715314  0  0  -0.154947  0  3.964703  0  0  -0.157251  0  3.983828  0  0  -0.089961  -0.153549  0  3.952532  0
C  C60  1  0.25742140  0.65403057  0.45003464  1  0  -0.06937  0  3.766558  0  0  -0.085222  0  4.021048  0  0  -0.087688  0  4.043898  0  0  -0.096426  -0.083542  0  4.005511  0
C  C61  1  0.24256957  0.34596696  0.95003857  1  0  -0.069244  0  3.766592  0  0  -0.085041  0  4.021096  0  0  -0.087499  0  4.04394  0  0  -0.096327  -0.083365  0  4.005558  0
C  C62  1  0.74259100  0.15405109  0.04996557  1  0  -0.069244  0  3.766556  0  0  -0.085051  0  4.021031  0  0  -0.087518  0  4.043883  0  0  -0.096373  -0.08337  0  4.005484  0
C  C63  1  0.75743653  0.84595321  0.54996139  1  0  -0.069208  0  3.766409  0  0  -0.085027  0  4.020929  0  0  -0.087484  0  4.043768  0  0  -0.096328  -0.083359  0  4.005416  0
C  C64  1  0.26057139  0.75943841  0.40091214  1  0  -0.07742  0  3.797793  0  0  -0.098803  0  4.062393  0  0  -0.100278  0  4.08439  0  0  -0.100263  -0.097784  0  4.04754  0
C  C65  1  0.23943913  0.24054903  0.90092269  1  0  -0.07755  0  3.797704  0  0  -0.098988  0  4.062338  0  0  -0.100466  0  4.084337  0  0  -0.10039  -0.097963  0  4.047485  0
C  C66  1  0.73945356  0.25946042  0.09908486  1  0  -0.077543  0  3.797773  0  0  -0.098951  0  4.062363  0  0  -0.100429  0  4.084363  0  0  -0.100391  -0.097929  0  4.047514  0
C  C67  1  0.76056025  0.74054539  0.59907993  1  0  -0.077571  0  3.797791  0  0  -0.099008  0  4.062426  0  0  -0.100487  0  4.084431  0  0  -0.100384  -0.097991  0  4.047577  0
C  C68  1  0.09006079  0.76783459  0.34021017  1  0  -0.164985  0  3.76475  0  0  -0.182039  0  4.015766  0  0  -0.185295  0  4.036033  0  0  -0.102014  -0.179602  0  4.002651  0
C  C69  1  0.40995870  0.23215239  0.84021937  1  0  -0.16485  0  3.764524  0  0  -0.181891  0  4.015599  0  0  -0.185146  0  4.035869  0  0  -0.102029  -0.179459  0  4.00249  0
C  C70  1  0.90996780  0.26785385  0.15978861  1  0  -0.164793  0  3.764588  0  0  -0.181843  0  4.01561  0  0  -0.1851  0  4.035886  0  0  -0.10206  -0.179412  0  4.002504  0
C  C71  1  0.59004479  0.73215530  0.65978484  1  0  -0.164792  0  3.764627  0  0  -0.181854  0  4.015676  0  0  -0.185113  0  4.035951  0  0  -0.102027  -0.179416  0  4.00256  0
C  C72  1  0.40256797  0.47451004  0.24694139  1  0  -0.424376  0  3.665726  0  0  -0.501908  0  3.901448  0  0  -0.507359  0  3.905419  0  0  -0.24112  -0.497934  0  3.898573  0
C  C73  1  0.09740956  0.52548435  0.74694350  1  0  -0.424306  0  3.66595  0  0  -0.501948  0  3.901631  0  0  -0.507397  0  3.905601  0  0  -0.241131  -0.497972  0  3.898757  0
C  C74  1  0.59741411  0.97451704  0.25305934  1  0  -0.424442  0  3.666042  0  0  -0.502062  0  3.901725  0  0  -0.507516  0  3.905698  0  0  -0.241186  -0.498083  0  3.898849  0
C  C75  1  0.90259973  0.02548374  0.75305482  1  0  -0.424345  0  3.66598  0  0  -0.501961  0  3.90174  0  0  -0.507413  0  3.905712  0  0  -0.241157  -0.497983  0  3.89886  0
N  N76  1  0.71856916  0.47772698  0.35460535  1  0  -0.526393  0  3.183196  0  0  -0.457246  0  3.484412  0  0  -0.480113  0  3.49218  0  0  -0.35856  -0.441595  0  3.478868  0
N  N77  1  0.78140973  0.52226822  0.85460663  1  0  -0.526655  0  3.183138  0  0  -0.45754  0  3.484373  0  0  -0.480405  0  3.492131  0  0  -0.358664  -0.441888  0  3.478833  0
N  N78  1  0.28142253  0.97774722  0.14539373  1  0  -0.526669  0  3.183382  0  0  -0.457471  0  3.484515  0  0  -0.480332  0  3.49227  0  0  -0.358623  -0.441822  0  3.478979  0
N  N79  1  0.21859965  0.02226417  0.64539278  1  0  -0.526659  0  3.183173  0  0  -0.457625  0  3.484464  0  0  -0.480487  0  3.492216  0  0  -0.358712  -0.441979  0  3.478927  0
N  N80  1  0.72806263  0.64364995  0.27706122  1  0  -0.401281  0  3.361765  0  0  -0.340695  0  3.585715  0  0  -0.360069  0  3.598623  0  0  -0.377494  -0.327595  0  3.576641  0
N  N81  1  0.77194140  0.35634301  0.77706675  1  0  -0.401275  0  3.361514  0  0  -0.340551  0  3.585502  0  0  -0.359924  0  3.598421  0  0  -0.377429  -0.32745  0  3.576436  0
N  N82  1  0.27195395  0.14366578  0.22293887  1  0  -0.400966  0  3.361086  0  0  -0.340528  0  3.585232  0  0  -0.359878  0  3.598092  0  0  -0.377413  -0.327426  0  3.576169  0
N  N83  1  0.22806829  0.85634309  0.72293446  1  0  -0.401328  0  3.361341  0  0  -0.340719  0  3.58532  0  0  -0.360076  0  3.598184  0  0  -0.377516  -0.32762  0  3.57625  0
O  O84  1  0.27357810  0.25588111  0.36717121  1  0  -0.865155  0  2.050705  0  0  -0.762717  0  2.34509  0  0  -0.790738  0  2.320053  0  0  -0.383982  -0.742617  0  2.362284  0
O  O85  1  0.22639497  0.74411708  0.86716827  1  0  -0.865018  0  2.050532  0  0  -0.762688  0  2.345041  0  0  -0.790721  0  2.320017  0  0  -0.384034  -0.742605  0  2.362247  0
O  O86  1  0.72639850  0.75588738  0.13283137  1  0  -0.865083  0  2.050563  0  0  -0.762696  0  2.345021  0  0  -0.79071  0  2.320008  0  0  -0.384023  -0.742609  0  2.362217  0
O  O87  1  0.77359849  0.24411817  0.63283045  1  0  -0.865025  0  2.050585  0  0  -0.762617  0  2.344966  0  0  -0.790661  0  2.319996  0  0  -0.383992  -0.742519  0  2.362155  0
O  O88  1  0.16961774  0.13716376  0.48933484  1  0  -0.865438  0  2.113421  0  0  -0.765091  0  2.428319  0  0  -0.79283  0  2.400112  0  0  -0.383664  -0.745248  0  2.446866  0
O  O89  1  0.33037815  0.86283060  0.98933314  1  0  -0.865448  0  2.113243  0  0  -0.765101  0  2.428099  0  0  -0.792836  0  2.399902  0  0  -0.383669  -0.745263  0  2.446649  0
O  O90  1  0.83037382  0.63716909  0.01066686  1  0  -0.86539  0  2.113157  0  0  -0.76507  0  2.42809  0  0  -0.79278  0  2.399871  0  0  -0.383665  -0.745231  0  2.446639  0
O  O91  1  0.66960616  0.36284029  0.51066815  1  0  -0.865347  0  2.113237  0  0  -0.765059  0  2.428164  0  0  -0.792777  0  2.399937  0  0  -0.383716  -0.745243  0  2.446784  0
O  O92  1  0.82075444  0.16510533  0.38585435  1  0  -0.851059  0  2.043844  0  0  -0.753249  0  2.338979  0  0  -0.780959  0  2.313167  0  0  -0.386164  -0.733502  0  2.356003  0
O  O93  1  0.67921713  0.83489534  0.88584554  1  0  -0.850943  0  2.043804  0  0  -0.753144  0  2.338932  0  0  -0.780851  0  2.31312  0  0  -0.38613  -0.7334  0  2.35595  0
O  O94  1  0.17921696  0.66511060  0.11415331  1  0  -0.850997  0  2.043824  0  0  -0.753187  0  2.338997  0  0  -0.780888  0  2.313187  0  0  -0.386121  -0.733439  0  2.35601  0
O  O95  1  0.32077379  0.33489628  0.61415428  1  0  -0.850947  0  2.043882  0  0  -0.753162  0  2.339023  0  0  -0.780872  0  2.31321  0  0  -0.386111  -0.733405  0  2.356026  0
