# generated using pymatgen
data_CdH12C16(NO)8
_symmetry_space_group_name_H-M   'P 1'
_cell_length_a   11.42051221
_cell_length_b   13.83970746
_cell_length_c   17.28354177
_cell_angle_alpha   112.62854065
_cell_angle_beta   90.00027033
_cell_angle_gamma   90.00038358
_symmetry_Int_Tables_number   1
_chemical_formula_structural   CdH12C16(NO)8
_chemical_formula_sum   'Cd4 H48 C64 N32 O32'
_cell_volume   2521.48113893
_cell_formula_units_Z   4
loop_
 _symmetry_equiv_pos_site_id
 _symmetry_equiv_pos_as_xyz
  1  'x, y, z'
loop_
 _atom_site_type_symbol
 _atom_site_label
 _atom_site_symmetry_multiplicity
 _atom_site_fract_x
 _atom_site_fract_y
 _atom_site_fract_z
 _atom_site_occupancy
 _atom_site_pbe_bader_charge
 _atom_site_pbe_bader_spin_density
 _atom_site_pbe_cm5_charge
 _atom_site_pbe_ddec_charge
 _atom_site_pbe_ddec_spin_density
 _atom_site_pbe_ddec_sum_bond_order
 _atom_site_pbe_magmom
Cd  Cd0  1  0.25141203  0.70589008  0.23980008  1  1.326114  0  0.792372  0.890144  0  2.194492  0
Cd  Cd1  1  0.25142132  0.79411065  0.76019770  1  1.326104  0  0.792357  0.890096  0  2.194503  0
Cd  Cd2  1  0.74858605  0.29410653  0.76020301  1  1.326133  0  0.792406  0.8902  0  2.194488  0
Cd  Cd3  1  0.74858464  0.20589130  0.23980289  1  1.326079  0  0.792395  0.890206  0  2.194363  0
H  H4  1  0.55717006  0.65179727  0.38186137  1  0.47469  0  0.336999  0.297737  0  0.910875  0
H  H5  1  0.55718664  0.84821031  0.61813126  1  0.47458  0  0.337049  0.297859  0  0.910701  0
H  H6  1  0.44282101  0.34819782  0.61814302  1  0.475268  0  0.337017  0.297783  0  0.910798  0
H  H7  1  0.44281931  0.15179221  0.38186313  1  0.474747  0  0.337012  0.297762  0  0.910902  0
H  H8  1  0.94955662  0.63281980  0.05700793  1  0.462847  0  0.329954  0.288612  0  0.930858  0
H  H9  1  0.94955649  0.86718698  0.94298571  1  0.462869  0  0.329869  0.288372  0  0.930927  0
H  H10  1  0.05044321  0.36717897  0.94299000  1  0.462846  0  0.330023  0.288725  0  0.930887  0
H  H11  1  0.05044159  0.13281947  0.05701039  1  0.462643  0  0.329917  0.288499  0  0.930883  0
H  H12  1  0.10031029  0.62301971  0.35310919  1  0.15841  0  0.125975  0.104253  0  0.994102  0
H  H13  1  0.10032645  0.87698074  0.64689208  1  0.158594  0  0.125921  0.104156  0  0.994316  0
H  H14  1  0.89968166  0.37697607  0.64689251  1  0.15845  0  0.125989  0.104212  0  0.994154  0
H  H15  1  0.89968301  0.12302135  0.35311259  1  0.15846  0  0.125939  0.104147  0  0.994241  0
H  H16  1  0.11288451  0.59050354  0.48776944  1  0.130978  0  0.116666  0.139137  0  0.998113  0
H  H17  1  0.11288595  0.90950092  0.51223304  1  0.131064  0  0.116627  0.139066  0  0.998019  0
H  H18  1  0.88710918  0.40949223  0.51223167  1  0.131018  0  0.116636  0.139099  0  0.997973  0
H  H19  1  0.88711300  0.09049963  0.48777236  1  0.130782  0  0.116623  0.139115  0  0.998048  0
H  H20  1  0.31569617  0.59856247  0.55059731  1  0.138948  0  0.118405  0.099748  0  1.000916  0
H  H21  1  0.31569708  0.90143480  0.44939794  1  0.138845  0  0.118397  0.099696  0  1.000968  0
H  H22  1  0.68429315  0.40142948  0.44940559  1  0.139076  0  0.118404  0.099787  0  1.000864  0
H  H23  1  0.68429925  0.09856005  0.55059886  1  0.138865  0  0.11841  0.099724  0  1.000942  0
H  H24  1  0.60132687  0.70905808  0.15819624  1  0.109828  0  0.110409  0.115892  0  1.010527  0
H  H25  1  0.60134111  0.79094984  0.84179605  1  0.110063  0  0.11046  0.116004  0  1.010528  0
H  H26  1  0.39865807  0.29093778  0.84180779  1  0.109977  0  0.110372  0.115899  0  1.010545  0
H  H27  1  0.39866660  0.20906120  0.15819792  1  0.109959  0  0.110403  0.115908  0  1.010516  0
H  H28  1  0.80796457  0.71137894  0.11713859  1  0.048749  0  0.111487  0.108784  0  0.987353  0
H  H29  1  0.80798260  0.78861799  0.88284827  1  0.048941  0  0.111444  0.108839  0  0.987375  0
H  H30  1  0.19201862  0.28861591  0.88285820  1  0.04867  0  0.111417  0.108697  0  0.987408  0
H  H31  1  0.19202861  0.21138520  0.11714284  1  0.048723  0  0.111411  0.108717  0  0.98737  0
H  H32  1  0.90724372  0.54676054  0.27502980  1  0.172789  0  0.109929  0.117313  0  1.045813  0
H  H33  1  0.90726635  0.95324754  0.72496640  1  0.172384  0  0.109922  0.117307  0  1.045969  0
H  H34  1  0.09275261  0.45324456  0.72497229  1  0.172641  0  0.110002  0.117367  0  1.045749  0
H  H35  1  0.09274398  0.04675722  0.27502516  1  0.17267  0  0.109937  0.117295  0  1.045812  0
H  H36  1  0.70028381  0.54804144  0.31850798  1  0.074775  0  0.112055  0.115449  0  0.992674  0
H  H37  1  0.70030261  0.95197355  0.68148784  1  0.074984  0  0.112106  0.11551  0  0.992672  0
H  H38  1  0.29971777  0.45196619  0.68150063  1  0.074767  0  0.11208  0.115459  0  0.992707  0
H  H39  1  0.29970685  0.04803831  0.31850753  1  0.074815  0  0.112076  0.11547  0  0.992654  0
H  H40  1  0.19566425  0.61466012  0.86559428  1  0.14421  0  0.11687  0.096488  0  1.021197  0
H  H41  1  0.19565921  0.88533626  0.13440206  1  0.144349  0  0.116876  0.096489  0  1.021144  0
H  H42  1  0.80434170  0.38533960  0.13440914  1  0.144196  0  0.116862  0.096506  0  1.021268  0
H  H43  1  0.80433800  0.11466402  0.86559457  1  0.14428  0  0.116863  0.096465  0  1.02118  0
H  H44  1  0.39733314  0.60616789  0.92337566  1  0.131406  0  0.114714  0.141477  0  0.998228  0
H  H45  1  0.39732862  0.89382472  0.07662370  1  0.131442  0  0.114727  0.141487  0  0.998294  0
H  H46  1  0.60267281  0.39383503  0.07663100  1  0.131332  0  0.114698  0.141458  0  0.998272  0
H  H47  1  0.60266771  0.10617252  0.92337494  1  0.131377  0  0.114739  0.14152  0  0.998256  0
H  H48  1  0.40684806  0.62210310  0.07566635  1  0.155337  0  0.123713  0.10142  0  0.999023  0
H  H49  1  0.40685051  0.87787943  0.92433068  1  0.155271  0  0.123782  0.101489  0  0.999037  0
H  H50  1  0.59315177  0.37788889  0.92433771  1  0.155349  0  0.123768  0.101459  0  0.999061  0
H  H51  1  0.59315195  0.12211000  0.07566627  1  0.155317  0  0.123757  0.101451  0  0.999113  0
C  C52  1  0.18349055  0.62088700  0.38309537  1  0.49913  0  0.072217  0.166494  0  3.886851  0
C  C53  1  0.18350738  0.87911651  0.61690879  1  0.499268  0  0.072273  0.166506  0  3.887018  0
C  C54  1  0.81650140  0.37911122  0.61690993  1  0.498714  0  0.07222  0.166585  0  3.886879  0
C  C55  1  0.81650032  0.12088632  0.38309495  1  0.499194  0  0.072303  0.166566  0  3.886949  0
C  C56  1  0.19067781  0.60331975  0.45672664  1  -0.013486  0  -0.079079  -0.177425  0  3.921702  0
C  C57  1  0.19068725  0.89668212  0.54327301  1  -0.013377  0  -0.079086  -0.17731  0  3.921362  0
C  C58  1  0.80931238  0.39667529  0.54327599  1  -0.013076  0  -0.079086  -0.177357  0  3.921613  0
C  C59  1  0.80931608  0.10331836  0.45673004  1  -0.013346  0  -0.079093  -0.177347  0  3.921327  0
C  C60  1  0.30217033  0.60690428  0.49094660  1  0.507358  0  0.072629  0.164007  0  3.917825  0
C  C61  1  0.30217773  0.89309761  0.50905110  1  0.507515  0  0.072662  0.163999  0  3.917849  0
C  C62  1  0.69781987  0.39309000  0.50905639  1  0.507307  0  0.072695  0.16391  0  3.917942  0
C  C63  1  0.69782297  0.10690040  0.49094777  1  0.507628  0  0.072624  0.163977  0  3.917844  0
C  C64  1  0.38278639  0.63421793  0.38071388  1  1.520769  0  0.355531  0.524412  0  4.025479  0
C  C65  1  0.38279612  0.86578682  0.61928085  1  1.520367  0  0.355498  0.524281  0  4.025583  0
C  C66  1  0.61720819  0.36577714  0.61928992  1  1.520779  0  0.355496  0.524413  0  4.025206  0
C  C67  1  0.61720721  0.13421422  0.38071542  1  1.520757  0  0.355624  0.524503  0  4.025435  0
C  C68  1  0.51098771  0.62913012  0.26208545  1  1.414739  0  0.257887  0.51251  0  4.073766  0
C  C69  1  0.51100011  0.87087723  0.73791102  1  1.41554  0  0.258086  0.512589  0  4.073923  0
C  C70  1  0.48900862  0.37086259  0.73791709  1  1.414649  0  0.257903  0.512484  0  4.073262  0
C  C71  1  0.48900672  0.12913094  0.26209022  1  1.414666  0  0.257913  0.512367  0  4.073759  0
C  C72  1  0.63752311  0.62906357  0.24092562  1  -0.045562  0  -0.003615  -0.017729  0  3.961543  0
C  C73  1  0.63754092  0.87095172  0.75907008  1  -0.045494  0  -0.003769  -0.017713  0  3.961579  0
C  C74  1  0.36247234  0.37093619  0.75907896  1  -0.044922  0  -0.003606  -0.017651  0  3.961523  0
C  C75  1  0.36247116  0.12906486  0.24092723  1  -0.045025  0  -0.003675  -0.017682  0  3.961549  0
C  C76  1  0.66867580  0.67280181  0.18280733  1  -0.052398  0  -0.073676  -0.077986  0  3.941579  0
C  C77  1  0.66869192  0.82720274  0.81718477  1  -0.052784  0  -0.073757  -0.078206  0  3.941743  0
C  C78  1  0.33131702  0.32719163  0.81719368  1  -0.053425  0  -0.073708  -0.0781  0  3.941727  0
C  C79  1  0.33132017  0.17280682  0.18281166  1  -0.052765  0  -0.073636  -0.077926  0  3.941709  0
C  C80  1  0.78500499  0.67236981  0.15921772  1  -0.031605  0  -0.078578  -0.098817  0  3.967594  0
C  C81  1  0.78501866  0.82763018  0.84077343  1  -0.031421  0  -0.078404  -0.098754  0  3.967195  0
C  C82  1  0.21498783  0.32762506  0.84077966  1  -0.031222  0  -0.078432  -0.098632  0  3.967406  0
C  C83  1  0.21499167  0.17237624  0.15922151  1  -0.031776  0  -0.07845  -0.098781  0  3.96745  0
C  C84  1  0.87115955  0.62630562  0.19199518  1  0.017947  0  -0.008614  -0.030108  0  3.972092  0
C  C85  1  0.87117599  0.87370050  0.80799686  1  0.018442  0  -0.008698  -0.030101  0  3.972413  0
C  C86  1  0.12883415  0.37369551  0.80800401  1  0.01805  0  -0.008658  -0.030207  0  3.972142  0
C  C87  1  0.12883522  0.12630586  0.19199633  1  0.017996  0  -0.008614  -0.029939  0  3.972154  0
C  C88  1  0.84011369  0.58381942  0.25085712  1  -0.045194  0  -0.068596  -0.065447  0  3.912917  0
C  C89  1  0.84012919  0.91618737  0.74913907  1  -0.044649  0  -0.068573  -0.065369  0  3.913411  0
C  C90  1  0.15988088  0.41618254  0.74914347  1  -0.045128  0  -0.068658  -0.065454  0  3.912987  0
C  C91  1  0.15987764  0.08381662  0.25085285  1  -0.045189  0  -0.068575  -0.065441  0  3.913028  0
C  C92  1  0.72379151  0.58532092  0.27527572  1  -0.004331  0  -0.076975  -0.099948  0  3.93518  0
C  C93  1  0.72380506  0.91469191  0.72471954  1  -0.005466  0  -0.076854  -0.099956  0  3.935234  0
C  C94  1  0.27620656  0.41468116  0.72472896  1  -0.004337  0  -0.076944  -0.099962  0  3.9352  0
C  C95  1  0.27620089  0.08532068  0.27527430  1  -0.004228  0  -0.076993  -0.100024  0  3.93521  0
C  C96  1  0.99666781  0.61924380  0.16718504  1  1.391488  0  0.257489  0.510216  0  4.06734  0
C  C97  1  0.99666611  0.88075409  0.83281022  1  1.390708  0  0.257147  0.509588  0  4.067285  0
C  C98  1  0.00332676  0.38074943  0.83280954  1  1.391187  0  0.257403  0.510109  0  4.067404  0
C  C99  1  0.00333459  0.11924695  0.16718605  1  1.391127  0  0.257155  0.509632  0  4.06737  0
C  C100  1  0.12465048  0.62593029  0.05135616  1  1.530287  0  0.350084  0.517264  0  4.031325  0
C  C101  1  0.12465133  0.87406554  0.94864038  1  1.529953  0  0.350071  0.517297  0  4.031087  0
C  C102  1  0.87535110  0.37407019  0.94864690  1  1.530482  0  0.350089  0.517337  0  4.031029  0
C  C103  1  0.87534938  0.12593160  0.05135534  1  1.530308  0  0.350031  0.517249  0  4.031044  0
C  C104  1  0.20789599  0.61519047  0.92836879  1  0.510951  0  0.066208  0.162192  0  3.93707  0
C  C105  1  0.20789310  0.88480364  0.07162634  1  0.51125  0  0.066161  0.162156  0  3.937193  0
C  C106  1  0.79210997  0.38480925  0.07163462  1  0.51119  0  0.066137  0.162064  0  3.937306  0
C  C107  1  0.79210323  0.11519274  0.92836973  1  0.510718  0  0.066249  0.162324  0  3.936942  0
C  C108  1  0.31914241  0.61134030  0.96071673  1  0.030539  0  -0.088343  -0.197848  0  3.944512  0
C  C109  1  0.31914195  0.88864776  0.03928048  1  0.029731  0  -0.088298  -0.197773  0  3.944493  0
C  C110  1  0.68086354  0.38865795  0.03928915  1  0.030476  0  -0.088336  -0.197814  0  3.944511  0
C  C111  1  0.68085525  0.11134639  0.96071842  1  0.030248  0  -0.088343  -0.197927  0  3.944578  0
C  C112  1  0.32447509  0.61997611  0.04329149  1  0.413116  0  0.066673  0.157827  0  3.91066  0
C  C113  1  0.32447955  0.88001352  0.95670503  1  0.413113  0  0.066616  0.157768  0  3.910883  0
C  C114  1  0.67552386  0.38001969  0.95671078  1  0.413191  0  0.066708  0.157857  0  3.910797  0
C  C115  1  0.67551853  0.11997899  0.04329108  1  0.412997  0  0.066618  0.157816  0  3.910887  0
N  N116  1  0.27965166  0.63783712  0.34460184  1  -1.200654  0  -0.321663  -0.348819  0  3.369443  0
N  N117  1  0.27966689  0.86216693  0.65539583  1  -1.200716  0  -0.321659  -0.348761  0  3.369666  0
N  N118  1  0.72034291  0.36215876  0.65540278  1  -1.200667  0  -0.32172  -0.348926  0  3.369484  0
N  N119  1  0.72034257  0.13783501  0.34460417  1  -1.200595  0  -0.3217  -0.348881  0  3.369676  0
N  N120  1  0.39860988  0.62200376  0.45302481  1  -1.180467  0  -0.322445  -0.380155  0  3.235549  0
N  N121  1  0.39861831  0.87799963  0.54697189  1  -1.180209  0  -0.322456  -0.380073  0  3.235662  0
N  N122  1  0.60137944  0.37798975  0.54697854  1  -1.180569  0  -0.322491  -0.380168  0  3.235375  0
N  N123  1  0.60138414  0.12199834  0.45302523  1  -1.180383  0  -0.322471  -0.380183  0  3.235616  0
N  N124  1  0.48758195  0.64570098  0.34353773  1  -1.231409  0  -0.376192  -0.410779  0  3.550552  0
N  N125  1  0.48759711  0.85430527  0.65645430  1  -1.23136  0  -0.376213  -0.410821  0  3.550163  0
N  N126  1  0.51241175  0.35429329  0.65646526  1  -1.231865  0  -0.376136  -0.410748  0  3.550038  0
N  N127  1  0.51241147  0.14569728  0.34354068  1  -1.231485  0  -0.376189  -0.4107  0  3.550539  0
N  N128  1  0.01908796  0.62905574  0.09243155  1  -1.231287  0  -0.383628  -0.419002  0  3.552903  0
N  N129  1  0.01909635  0.87094692  0.90756142  1  -1.231295  0  -0.383536  -0.418581  0  3.553118  0
N  N130  1  0.98091362  0.37094698  0.90756868  1  -1.231207  0  -0.383709  -0.419114  0  3.552845  0
N  N131  1  0.98090785  0.12905643  0.09243436  1  -1.231115  0  -0.383574  -0.41877  0  3.552917  0
N  N132  1  0.11032787  0.62028937  0.97267000  1  -1.20834  0  -0.330925  -0.395815  0  3.244032  0
N  N133  1  0.11032987  0.87970557  0.02732622  1  -1.208459  0  -0.330893  -0.395834  0  3.244175  0
N  N134  1  0.88967196  0.37970951  0.02733143  1  -1.208718  0  -0.330921  -0.395834  0  3.244085  0
N  N135  1  0.88966909  0.12029241  0.97267148  1  -1.208854  0  -0.330913  -0.395839  0  3.244064  0
N  N136  1  0.22738596  0.62960186  0.09030721  1  -1.2055  0  -0.323862  -0.353186  0  3.36733  0
N  N137  1  0.22739350  0.87038695  0.90968703  1  -1.20547  0  -0.323868  -0.353245  0  3.367507  0
N  N138  1  0.77261211  0.37039557  0.90969728  1  -1.205532  0  -0.323855  -0.35319  0  3.367499  0
N  N139  1  0.77260633  0.12960710  0.09030895  1  -1.205249  0  -0.323847  -0.353215  0  3.367232  0
N  N140  1  0.43746306  0.86057786  0.25392457  1  0.806735  0  0.087381  0.707558  0  4.435433  0
N  N141  1  0.43745955  0.63941976  0.74607637  1  0.806701  0  0.087335  0.707419  0  4.435777  0
N  N142  1  0.56253765  0.13941785  0.74607479  1  0.806755  0  0.087294  0.707523  0  4.435325  0
N  N143  1  0.56253677  0.36058076  0.25392785  1  0.80671  0  0.087336  0.707426  0  4.43562  0
N  N144  1  0.07792426  0.86977063  0.30906433  1  0.838295  0  0.093657  0.719146  0  4.403101  0
N  N145  1  0.07792553  0.63022975  0.69094033  1  0.838251  0  0.09364  0.719127  0  4.403367  0
N  N146  1  0.92207820  0.13023277  0.69093321  1  0.838268  0  0.093756  0.7193  0  4.402835  0
N  N147  1  0.92207430  0.36977304  0.30906224  1  0.838353  0  0.093649  0.719115  0  4.403327  0
O  O148  1  0.43530258  0.61635754  0.20710282  1  -1.137798  0  -0.282157  -0.480272  0  2.284762  0
O  O149  1  0.43531987  0.88363898  0.79288853  1  -1.137927  0  -0.28228  -0.480345  0  2.285159  0
O  O150  1  0.56469112  0.38363364  0.79290043  1  -1.137925  0  -0.282145  -0.480225  0  2.284668  0
O  O151  1  0.56469134  0.11636357  0.20710644  1  -1.137749  0  -0.282201  -0.480272  0  2.284739  0
O  O152  1  0.07412872  0.60342977  0.21132691  1  -1.132498  0  -0.272647  -0.461239  0  2.270285  0
O  O153  1  0.07414960  0.89658743  0.78867103  1  -1.132395  0  -0.272435  -0.460949  0  2.269303  0
O  O154  1  0.92586673  0.39657613  0.78867598  1  -1.132311  0  -0.272638  -0.461213  0  2.270316  0
O  O155  1  0.92586337  0.10342619  0.21133063  1  -1.132253  0  -0.272433  -0.460942  0  2.269788  0
O  O156  1  0.37841158  0.84809454  0.31348429  1  -0.584178  0  -0.222811  -0.485502  0  2.028014  0
O  O157  1  0.37840162  0.65189564  0.68651662  1  -0.58408  0  -0.222783  -0.48543  0  2.028101  0
O  O158  1  0.62159000  0.15189964  0.68651578  1  -0.584085  0  -0.222838  -0.485581  0  2.027988  0
O  O159  1  0.62159558  0.34810720  0.31348771  1  -0.584187  0  -0.222822  -0.485453  0  2.027934  0
O  O160  1  0.52555485  0.91768413  0.27062255  1  -0.493828  0  -0.185057  -0.411447  0  1.93962  0
O  O161  1  0.52554987  0.58231182  0.72937761  1  -0.493772  0  -0.185085  -0.411449  0  1.939693  0
O  O162  1  0.47444235  0.08231543  0.72937619  1  -0.493923  0  -0.185004  -0.411396  0  1.939427  0
O  O163  1  0.47444470  0.41768482  0.27062665  1  -0.493879  0  -0.185022  -0.411386  0  1.939518  0
O  O164  1  0.40232667  0.81221052  0.17891647  1  -0.559482  0  -0.204492  -0.484898  0  2.011101  0
O  O165  1  0.40233114  0.68779616  0.82108525  1  -0.559546  0  -0.204447  -0.484801  0  2.011171  0
O  O166  1  0.59767666  0.18778130  0.82108234  1  -0.559423  0  -0.204432  -0.48486  0  2.011264  0
O  O167  1  0.59766519  0.31220819  0.17891777  1  -0.559381  0  -0.204494  -0.484892  0  2.011335  0
O  O168  1  0.11712698  0.83711280  0.23277237  1  -0.596905  0  -0.223883  -0.49  0  2.015298  0
O  O169  1  0.11712821  0.66288707  0.76723110  1  -0.596925  0  -0.223864  -0.489972  0  2.015273  0
O  O170  1  0.88287372  0.16288907  0.76722588  1  -0.596803  0  -0.223847  -0.489947  0  2.01521  0
O  O171  1  0.88287249  0.33711492  0.23277066  1  -0.596982  0  -0.223907  -0.490032  0  2.015341  0
O  O172  1  0.01105990  0.94652052  0.33600628  1  -0.498698  0  -0.175616  -0.409765  0  1.924278  0
O  O173  1  0.01106120  0.55348082  0.66399613  1  -0.498694  0  -0.175683  -0.409859  0  1.924457  0
O  O174  1  0.98894343  0.05348212  0.66399162  1  -0.498688  0  -0.175663  -0.409862  0  1.924198  0
O  O175  1  0.98893600  0.44652352  0.33600631  1  -0.498734  0  -0.175614  -0.409783  0  1.924475  0
O  O176  1  0.11093675  0.82077080  0.35425177  1  -0.556585  0  -0.196457  -0.461899  0  1.996752  0
O  O177  1  0.11094335  0.67923377  0.64575478  1  -0.556495  0  -0.196386  -0.461786  0  1.996775  0
O  O178  1  0.88906308  0.17923105  0.64574589  1  -0.556683  0  -0.196526  -0.462004  0  1.996733  0
O  O179  1  0.88906348  0.32076986  0.35424977  1  -0.556526  0  -0.196435  -0.461837  0  1.996755  0
