# generated using pymatgen
data_AlH15(C9O2)3
_symmetry_space_group_name_H-M   'P 1'
_cell_length_a   4.01628863
_cell_length_b   27.74170227
_cell_length_c   27.80228667
_cell_angle_alpha   59.92577826
_cell_angle_beta   89.67262363
_cell_angle_gamma   89.25509511
_symmetry_Int_Tables_number   1
_chemical_formula_structural   AlH15(C9O2)3
_chemical_formula_sum   'Al3 H45 C81 O18'
_cell_volume   2680.44549957
_cell_formula_units_Z   3
loop_
 _symmetry_equiv_pos_site_id
 _symmetry_equiv_pos_as_xyz
  1  'x, y, z'
loop_
 _atom_site_type_symbol
 _atom_site_label
 _atom_site_symmetry_multiplicity
 _atom_site_fract_x
 _atom_site_fract_y
 _atom_site_fract_z
 _atom_site_occupancy
 _atom_site_pbe_bader_charge
 _atom_site_pbe_bader_spin_density
 _atom_site_pbe_cm5_charge
 _atom_site_pbe_ddec_charge
 _atom_site_pbe_ddec_spin_density
 _atom_site_pbe_ddec_sum_bond_order
 _atom_site_pbe_magmom
Al  Al0  1  0.99849790  0.50009854  0.49968101  1  2.504537  0  0.428793  1.605464  0  2.562459  0
Al  Al1  1  0.95467605  0.83329228  0.83300966  1  2.50228  0  0.4302  1.601293  0  2.570962  0
Al  Al2  1  0.05367837  0.16655986  0.16599879  1  2.504088  0  0.429863  1.59886  0  2.575181  0
H  H3  1  0.51127238  0.07727613  0.92255589  1  0.05097  0  0.097632  0.093694  0  1.032528  0
H  H4  1  0.52275897  0.25622421  0.83287329  1  0.042623  0  0.097797  0.094289  0  1.031922  0
H  H5  1  0.49942510  0.16650978  0.74400115  1  0.039733  0  0.097949  0.094024  0  1.031363  0
H  H6  1  0.76109515  0.92757213  0.90689332  1  0.095807  0  0.107127  0.11165  0  0.986505  0
H  H7  1  0.78363815  0.01648717  0.90716884  1  0.039665  0  0.100207  0.099155  0  1.007311  0
H  H8  1  0.17394963  0.09519455  0.75983804  1  0.048297  0  0.099844  0.098941  0  1.00851  0
H  H9  1  0.15573504  0.00648901  0.75901595  1  0.067618  0  0.107046  0.111311  0  0.984898  0
H  H10  1  0.23961438  0.09301785  0.98197163  1  0.055796  0  0.100105  0.098924  0  1.00812  0
H  H11  1  0.25408321  0.09332405  0.07069755  1  0.081601  0  0.107325  0.11198  0  0.985726  0
H  H12  1  0.84870202  0.24153653  0.99361335  1  0.067739  0  0.107238  0.111656  0  0.984929  0
H  H13  1  0.83900900  0.24057307  0.90511711  1  0.063835  0  0.100074  0.098959  0  1.007533  0
H  H14  1  0.81204156  0.31428711  0.75888355  1  0.058657  0  0.098864  0.098096  0  1.009655  0
H  H15  1  0.81100233  0.40342190  0.66898667  1  0.075153  0  0.108304  0.112161  0  0.990191  0
H  H16  1  0.19973189  0.33041727  0.59664242  1  0.10534  0  0.108343  0.11239  0  0.989876  0
H  H17  1  0.20681232  0.24060723  0.68582378  1  0.054195  0  0.098947  0.098481  0  1.009457  0
H  H18  1  0.50993183  0.49974365  0.07791703  1  0.048625  0  0.097433  0.093603  0  1.032392  0
H  H19  1  0.50550665  0.58947459  0.16679700  1  0.03747  0  0.097806  0.094113  0  1.029759  0
H  H20  1  0.51556062  0.41038593  0.25654017  1  0.039417  0  0.097887  0.094471  0  1.029772  0
H  H21  1  0.23878388  0.33620741  0.09382161  1  0.057619  0  0.107306  0.112011  0  0.985641  0
H  H22  1  0.22560109  0.42541284  0.09374251  1  0.057788  0  0.100177  0.099164  0  1.007439  0
H  H23  1  0.83474822  0.35223811  0.24112978  1  0.071747  0  0.099812  0.098698  0  1.007234  0
H  H24  1  0.84417890  0.26273761  0.24174499  1  0.06096  0  0.106932  0.111108  0  0.985933  0
H  H25  1  0.79443001  0.57457146  0.01853515  1  0.058997  0  0.099998  0.098948  0  1.007396  0
H  H26  1  0.77623465  0.66371277  0.92938704  1  0.070932  0  0.10711  0.111698  0  0.985961  0
H  H27  1  0.16357352  0.73611248  0.00507110  1  0.095367  0  0.106805  0.110898  0  0.985502  0
H  H28  1  0.17865225  0.64668358  0.09404321  1  0.063843  0  0.100076  0.09906  0  1.007146  0
H  H29  1  0.19931829  0.57380442  0.24049159  1  0.082018  0  0.099009  0.098362  0  1.009209  0
H  H30  1  0.19140737  0.57309485  0.33020309  1  0.090369  0  0.108534  0.112346  0  0.989682  0
H  H31  1  0.81913111  0.42702546  0.40337093  1  0.102615  0  0.108163  0.112141  0  0.989794  0
H  H32  1  0.81914069  0.42616535  0.31442383  1  0.05615  0  0.098871  0.098184  0  1.008925  0
H  H33  1  0.49179718  0.92291376  0.49978249  1  0.036925  0  0.097802  0.093837  0  1.031568  0
H  H34  1  0.49015042  0.83360267  0.41055934  1  0.040777  0  0.097825  0.093874  0  1.031367  0
H  H35  1  0.47715698  0.74388296  0.58918670  1  0.053004  0  0.09779  0.094126  0  1.031157  0
H  H36  1  0.75851971  0.90626076  0.66380333  1  0.062978  0  0.107205  0.111863  0  0.985112  0
H  H37  1  0.76741584  0.90690620  0.57456802  1  0.079286  0  0.100042  0.099281  0  1.007812  0
H  H38  1  0.16539571  0.75960611  0.64662871  1  0.07529  0  0.099962  0.098875  0  1.007203  0
H  H39  1  0.16072303  0.75841750  0.73618403  1  0.058567  0  0.107034  0.11141  0  0.985685  0
H  H40  1  0.21209412  0.98375932  0.42350778  1  0.062497  0  0.100095  0.099396  0  1.006475  0
H  H41  1  0.23814238  0.07255795  0.33411640  1  0.050916  0  0.107061  0.111786  0  0.986017  0
H  H42  1  0.84885476  0.99302373  0.26539477  1  0.070828  0  0.106885  0.111118  0  0.984784  0
H  H43  1  0.82624976  0.90448953  0.35503006  1  0.054871  0  0.100074  0.099129  0  1.007628  0
H  H44  1  0.78823606  0.75938622  0.42629771  1  0.071445  0  0.098948  0.098341  0  1.010058  0
H  H45  1  0.79542410  0.66951409  0.42699882  1  0.066547  0  0.108293  0.112453  0  0.990025  0
H  H46  1  0.17705973  0.59696053  0.57254618  1  0.117562  0  0.108402  0.11244  0  0.989537  0
H  H47  1  0.17666574  0.68614963  0.57330313  1  0.04208  0  0.098987  0.098651  0  1.008792  0
C  C48  1  0.49095471  0.57416204  0.49973938  1  1.581496  0  0.272577  0.649428  0  4.066611  0
C  C49  1  0.50244687  0.42600434  0.57369862  1  1.564861  0  0.272739  0.651095  0  4.066524  0
C  C50  1  0.50221114  0.50009604  0.42574563  1  1.586462  0  0.273071  0.649203  0  4.065264  0
C  C51  1  0.45052212  0.90785226  0.83225708  1  1.6139  0  0.285563  0.675026  0  4.040265  0
C  C52  1  0.46011312  0.75957736  0.90771965  1  1.590754  0  0.2854  0.676705  0  4.039765  0
C  C53  1  0.45707373  0.83200042  0.75962151  1  1.596417  0  0.284976  0.676976  0  4.038505  0
C  C54  1  0.55553198  0.16778991  0.09140746  1  1.588499  0  0.285431  0.676224  0  4.039907  0
C  C55  1  0.54776056  0.23999621  0.16752894  1  1.595136  0  0.284881  0.675466  0  4.038845  0
C  C56  1  0.55441065  0.09194332  0.23978961  1  1.590985  0  0.285134  0.675785  0  4.039924  0
C  C57  1  0.52696876  0.16672307  0.88381264  1  -0.028936  0  -0.006846  0.081438  0  4.024423  0
C  C58  1  0.51137932  0.11655970  0.88326825  1  -0.044598  0  -0.089105  -0.17619  0  3.933476  0
C  C59  1  0.49541774  0.11578287  0.83332411  1  -0.01506  0  -0.006625  0.081687  0  4.024369  0
C  C60  1  0.49785132  0.16665351  0.78314441  1  -0.029645  0  -0.090061  -0.17784  0  3.932937  0
C  C61  1  0.51157464  0.21762534  0.78217490  1  -0.027717  0  -0.006778  0.078907  0  4.020182  0
C  C62  1  0.52503121  0.21689713  0.83293191  1  -0.010861  0  -0.089626  -0.178362  0  3.933623  0
C  C63  1  0.62840756  0.96420959  0.87515214  1  -0.053275  0  -0.085699  -0.102907  0  3.994886  0
C  C64  1  0.63899284  0.01426679  0.87528232  1  -0.052843  0  -0.089572  -0.12639  0  3.995123  0
C  C65  1  0.48103631  0.06252982  0.83343321  1  0.013651  0  -0.008928  0.060242  0  4.00539  0
C  C66  1  0.30957920  0.05886516  0.79148112  1  -0.023383  0  -0.089602  -0.126919  0  3.993263  0
C  C67  1  0.29687657  0.00895714  0.79107710  1  0.011545  0  -0.085518  -0.102368  0  3.994925  0
C  C68  1  0.45725552  0.96140655  0.83293673  1  -0.074515  0  -0.010556  -0.029158  0  3.96498  0
C  C69  1  0.38064584  0.12491459  0.98461152  1  -0.031835  0  -0.090028  -0.12707  0  3.994754  0
C  C70  1  0.38605614  0.12514486  0.03451939  1  0.007285  0  -0.085624  -0.101592  0  3.994989  0
C  C71  1  0.55140813  0.16752568  0.03775315  1  -0.121602  0  -0.009759  -0.032523  0  3.968482  0
C  C72  1  0.71148948  0.20939434  0.99077154  1  0.010329  0  -0.086112  -0.102424  0  3.994034  0
C  C73  1  0.70398730  0.20885940  0.94098000  1  -0.033681  0  -0.089864  -0.127047  0  3.991074  0
C  C74  1  0.53800772  0.16678363  0.93689286  1  -0.004126  0  -0.008296  0.06211  0  4.004902  0
C  C75  1  0.67354083  0.31780397  0.72363701  1  -0.052187  0  -0.091326  -0.135758  0  3.989302  0
C  C76  1  0.67515470  0.36770438  0.67338920  1  -0.006615  0  -0.079276  -0.0797  0  3.981848  0
C  C77  1  0.50521825  0.37243975  0.62727357  1  -0.005121  0  -0.012748  -0.048711  0  3.969728  0
C  C78  1  0.33787603  0.32614687  0.63219553  1  -0.059502  0  -0.079486  -0.08032  0  3.982522  0
C  C79  1  0.34457055  0.27591652  0.68211288  1  -0.032639  0  -0.091149  -0.13611  0  3.990462  0
C  C80  1  0.51026945  0.27083644  0.72890405  1  -0.011417  0  -0.003382  0.074549  0  3.989559  0
C  C81  1  0.49863196  0.55074349  0.11620606  1  0.015505  0  -0.007489  0.081022  0  4.023325  0
C  C82  1  0.51026690  0.49977797  0.11710829  1  -0.045168  0  -0.089465  -0.177402  0  3.933175  0
C  C83  1  0.52172192  0.44887065  0.16724330  1  0.002384  0  -0.00693  0.080892  0  4.021888  0
C  C84  1  0.52063153  0.44968102  0.21725609  1  -0.055273  0  -0.089604  -0.177915  0  3.932436  0
C  C85  1  0.51110174  0.49993676  0.21784763  1  0.010834  0  -0.006562  0.079669  0  4.021289  0
C  C86  1  0.50098385  0.55011058  0.16694047  1  -0.049322  0  -0.089742  -0.177861  0  3.933404  0
C  C87  1  0.37328458  0.34005240  0.12565229  1  -0.007418  0  -0.086195  -0.103321  0  3.994333  0
C  C88  1  0.36794142  0.39024157  0.12559957  1  0.009299  0  -0.089909  -0.127645  0  3.994115  0
C  C89  1  0.52882600  0.39548463  0.16745274  1  -0.031006  0  -0.008361  0.062544  0  4.002651  0
C  C90  1  0.69697490  0.34860045  0.20943765  1  -0.105931  0  -0.088777  -0.125914  0  3.990255  0
C  C91  1  0.70465900  0.29824697  0.20974902  1  0.026665  0  -0.08651  -0.103891  0  3.993359  0
C  C92  1  0.54197295  0.29379858  0.16779409  1  -0.04452  0  -0.009226  -0.027985  0  3.962515  0
C  C93  1  0.64949394  0.60949079  0.01549843  1  -0.004063  0  -0.089564  -0.12654  0  3.993274  0
C  C94  1  0.64147003  0.65965293  0.96534967  1  -0.016696  0  -0.085581  -0.101403  0  3.994588  0
C  C95  1  0.46924523  0.70560245  0.96158458  1  -0.021594  0  -0.010047  -0.033313  0  3.968823  0
C  C96  1  0.30583901  0.70085291  0.00832821  1  -0.082347  0  -0.085732  -0.101328  0  3.994963  0
C  C97  1  0.31635455  0.65055836  0.05837651  1  -0.061384  0  -0.089573  -0.127048  0  3.990844  0
C  C98  1  0.48812404  0.60400119  0.06292818  1  -0.036982  0  -0.008058  0.062289  0  4.002725  0
C  C99  1  0.34007111  0.54200511  0.27585457  1  -0.089788  0  -0.091458  -0.13564  0  3.990863  0
C  C100  1  0.33320611  0.54166868  0.32599100  1  -0.08342  0  -0.079602  -0.082199  0  3.980699  0
C  C101  1  0.50519131  0.50009552  0.37227883  1  0.044026  0  -0.012388  -0.042863  0  3.960689  0
C  C102  1  0.67961215  0.45847932  0.36766241  1  -0.062572  0  -0.08001  -0.082167  0  3.978701  0
C  C103  1  0.67760291  0.45809167  0.31788161  1  -0.057472  0  -0.090618  -0.134844  0  3.990131  0
C  C104  1  0.50996839  0.50002846  0.27092215  1  0.012823  0  -0.003108  0.073056  0  3.993046  0
C  C105  1  0.50079212  0.88431362  0.44911157  1  -0.016716  0  -0.007203  0.081135  0  4.023042  0
C  C106  1  0.48857801  0.88358478  0.49986334  1  -0.022258  0  -0.089302  -0.176648  0  3.931018  0
C  C107  1  0.47432291  0.83342246  0.55065693  1  -0.016779  0  -0.007264  0.081184  0  4.021692  0
C  C108  1  0.47351159  0.78324369  0.54994630  1  -0.048046  0  -0.089295  -0.177845  0  3.932573  0
C  C109  1  0.48278183  0.78250150  0.49989452  1  -0.025804  0  -0.006828  0.080553  0  4.02047  0
C  C110  1  0.49511609  0.83344828  0.44983636  1  -0.016263  0  -0.089641  -0.178184  0  3.933953  0
C  C111  1  0.62490715  0.87453659  0.65972906  1  -0.017031  0  -0.08564  -0.100651  0  3.994456  0
C  C112  1  0.62748011  0.87492602  0.60948126  1  -0.073682  0  -0.089983  -0.128068  0  3.993715  0
C  C113  1  0.46777942  0.83321775  0.60391548  1  0.037681  0  -0.008014  0.062361  0  4.002516  0
C  C114  1  0.30261087  0.79114615  0.65051626  1  -0.072534  0  -0.089549  -0.126491  0  3.989091  0
C  C115  1  0.29791752  0.79047122  0.70092633  1  -0.012033  0  -0.086218  -0.101879  0  3.995565  0
C  C116  1  0.46038350  0.83217505  0.70572942  1  -0.049083  0  -0.009404  -0.033982  0  3.971191  0
C  C117  1  0.35855870  0.98586463  0.38937089  1  -0.067973  0  -0.089577  -0.127615  0  3.992424  0
C  C118  1  0.37117725  0.03583051  0.33906817  1  -0.012963  0  -0.08559  -0.101622  0  3.994227  0
C  C119  1  0.54485397  0.03842793  0.29406098  1  -0.005269  0  -0.009796  -0.032482  0  3.968973  0
C  C120  1  0.70563779  0.99074172  0.29988529  1  -0.063812  0  -0.085444  -0.101177  0  3.995827  0
C  C121  1  0.69061449  0.94093212  0.35027406  1  -0.010334  0  -0.090067  -0.127535  0  3.992417  0
C  C122  1  0.51658379  0.93747653  0.39587398  1  0.010401  0  -0.008497  0.062198  0  4.002815  0
C  C123  1  0.64968041  0.72413059  0.45800586  1  -0.10038  0  -0.09168  -0.135607  0  3.991458  0
C  C124  1  0.65587980  0.67390822  0.45831812  1  0.023387  0  -0.079435  -0.080655  0  3.981871  0
C  C125  1  0.48665418  0.62772506  0.49977482  1  -0.098481  0  -0.012455  -0.047198  0  3.966279  0
C  C126  1  0.31456814  0.63259299  0.54119497  1  -0.02539  0  -0.079507  -0.080475  0  3.979955  0
C  C127  1  0.31688791  0.68248864  0.54156712  1  -0.01261  0  -0.090614  -0.135025  0  3.989115  0
C  C128  1  0.48267173  0.72928685  0.49984601  1  0.009443  0  -0.003706  0.071692  0  3.992877  0
O  O129  1  0.73766770  0.47385288  0.46016428  1  -1.259708  0  -0.239956  -0.601447  0  2.3655  0
O  O130  1  0.72719386  0.56601397  0.47352877  1  -1.253376  0  -0.239984  -0.600735  0  2.36305  0
O  O131  1  0.73428062  0.46045255  0.56544642  1  -1.262313  0  -0.240089  -0.60201  0  2.365687  0
O  O132  1  0.26461503  0.52630249  0.43386048  1  -1.25538  0  -0.240172  -0.600746  0  2.362413  0
O  O133  1  0.26859883  0.43416932  0.53933937  1  -1.255607  0  -0.239839  -0.600973  0  2.363048  0
O  O134  1  0.25822797  0.53973539  0.52587835  1  -1.259858  0  -0.239807  -0.600712  0  2.365021  0
O  O135  1  0.69331965  0.80638102  0.79379595  1  -1.25578  0  -0.236842  -0.598642  0  2.339983  0
O  O136  1  0.68450975  0.89912486  0.80625230  1  -1.259243  0  -0.237844  -0.60126  0  2.344634  0
O  O137  1  0.69112842  0.79415894  0.89882975  1  -1.249395  0  -0.237178  -0.600747  0  2.346885  0
O  O138  1  0.21789590  0.85788139  0.76753460  1  -1.256265  0  -0.235201  -0.599459  0  2.350732  0
O  O139  1  0.22253712  0.76734250  0.87432910  1  -1.255138  0  -0.235013  -0.597629  0  2.347479  0
O  O140  1  0.21301572  0.87458917  0.85767871  1  -1.257293  0  -0.234421  -0.596448  0  2.349194  0
O  O141  1  0.79147927  0.12515376  0.23195069  1  -1.251723  0  -0.234151  -0.596006  0  2.349119  0
O  O142  1  0.79433233  0.14199712  0.12490253  1  -1.254458  0  -0.234729  -0.597163  0  2.349168  0
O  O143  1  0.78554384  0.23219105  0.14154881  1  -1.252027  0  -0.235829  -0.599463  0  2.351026  0
O  O144  1  0.32290041  0.10072459  0.20502508  1  -1.256537  0  -0.238012  -0.601018  0  2.344813  0
O  O145  1  0.31416848  0.20577701  0.19294204  1  -1.261734  0  -0.236182  -0.598658  0  2.343206  0
O  O146  1  0.31899683  0.19354820  0.10013678  1  -1.251403  0  -0.237331  -0.599226  0  2.342737  0
