# generated using pymatgen
data_CdH12C12(SeN3)2
_symmetry_space_group_name_H-M   'P 1'
_cell_length_a   5.68382686
_cell_length_b   13.99144167
_cell_length_c   18.83800000
_cell_angle_alpha   90.00000000
_cell_angle_beta   90.00000000
_cell_angle_gamma   90.00000000
_symmetry_Int_Tables_number   1
_chemical_formula_structural   CdH12C12(SeN3)2
_chemical_formula_sum   'Cd4 H48 C48 Se8 N24'
_cell_volume   1498.09066747
_cell_formula_units_Z   4
loop_
 _symmetry_equiv_pos_site_id
 _symmetry_equiv_pos_as_xyz
  1  'x, y, z'
loop_
 _atom_site_type_symbol
 _atom_site_label
 _atom_site_symmetry_multiplicity
 _atom_site_fract_x
 _atom_site_fract_y
 _atom_site_fract_z
 _atom_site_occupancy
 _atom_site_hle17_bader_spin_density
 _atom_site_hle17_ddec_charge
 _atom_site_hle17_ddec_spin_density
 _atom_site_hle17_ddec_sum_bond_order
 _atom_site_hle17_magmom
 _atom_site_hse06_10hf_bader_spin_density
 _atom_site_hse06_10hf_ddec_charge
 _atom_site_hse06_10hf_ddec_spin_density
 _atom_site_hse06_10hf_ddec_sum_bond_order
 _atom_site_hse06_10hf_magmom
 _atom_site_hse06_bader_spin_density
 _atom_site_hse06_ddec_charge
 _atom_site_hse06_ddec_spin_density
 _atom_site_hse06_ddec_sum_bond_order
 _atom_site_hse06_magmom
 _atom_site_pbe_bader_charge
 _atom_site_pbe_bader_spin_density
 _atom_site_pbe_cm5_charge
 _atom_site_pbe_ddec_charge
 _atom_site_pbe_ddec_spin_density
 _atom_site_pbe_ddec_sum_bond_order
 _atom_site_pbe_magmom
Cd  Cd0  1  0.99999352  0.50000280  0.49999894  1  0  0.898578  0  1.948105  0  0  0.719932  0  2.396615  0  0  0.765896  0  2.363684  0  1.115139  0  0.676351  0.688254  0  2.418395  0
Cd  Cd1  1  0.00001056  0.00000214  0.99999788  1  0  0.898585  0  1.948199  0  0  0.719926  0  2.396735  0  0  0.765898  0  2.363798  0  1.115045  0  0.676361  0.688245  0  2.418519  0
Cd  Cd2  1  0.49999412  0.99999416  0.50000319  1  0  0.898554  0  1.948183  0  0  0.719888  0  2.39671  0  0  0.765855  0  2.363776  0  1.115102  0  0.676352  0.688211  0  2.418493  0
Cd  Cd3  1  0.49999588  0.50000137  0.99999947  1  0  0.898639  0  1.947959  0  0  0.719984  0  2.396476  0  0  0.765954  0  2.363539  0  1.115096  0  0.676351  0.688303  0  2.418259  0
H  H4  1  0.57697746  0.63663632  0.43898238  1  0  0.05796  0  1.012253  0  0  0.065521  0  1.084421  0  0  0.066748  0  1.083283  0  0.090742  0  0.096023  0.064546  0  1.085287  0
H  H5  1  0.42301429  0.86335635  0.93898291  1  0  0.058001  0  1.012265  0  0  0.065553  0  1.084443  0  0  0.066782  0  1.083304  0  0.090395  0  0.096036  0.064576  0  1.08531  0
H  H6  1  0.92300313  0.13664210  0.56101656  1  0  0.057981  0  1.012267  0  0  0.065567  0  1.084419  0  0  0.066799  0  1.083282  0  0.090408  0  0.096049  0.064592  0  1.085285  0
H  H7  1  0.07699918  0.36335569  0.06101497  1  0  0.057926  0  1.012325  0  0  0.065527  0  1.084444  0  0  0.066756  0  1.083314  0  0.090279  0  0.09602  0.064552  0  1.08531  0
H  H8  1  0.42299494  0.36336141  0.56101762  1  0  0.057895  0  1.012301  0  0  0.06543  0  1.084502  0  0  0.066659  0  1.083372  0  0.090435  0  0.096003  0.064456  0  1.085367  0
H  H9  1  0.57699858  0.13663781  0.06101815  1  0  0.057913  0  1.012254  0  0  0.06543  0  1.084497  0  0  0.06666  0  1.083363  0  0.090422  0  0.095996  0.064455  0  1.085363  0
H  H10  1  0.07699566  0.86336207  0.43898450  1  0  0.057905  0  1.012326  0  0  0.06543  0  1.084548  0  0  0.066658  0  1.083418  0  0.090388  0  0.095985  0.064455  0  1.085413  0
H  H11  1  0.92300489  0.63663561  0.93898344  1  0  0.057987  0  1.012233  0  0  0.065538  0  1.084424  0  0  0.066772  0  1.083284  0  0.090363  0  0.096033  0.064563  0  1.085291  0
H  H12  1  0.41570760  0.70026808  0.32793556  1  0  0.112661  0  0.973992  0  0  0.122602  0  1.033985  0  0  0.125182  0  1.035365  0  0.097241  0  0.101291  0.120774  0  1.033203  0
H  H13  1  0.58429120  0.79973460  0.82793502  1  0  0.112617  0  0.974065  0  0  0.12257  0  1.034051  0  0  0.125149  0  1.035432  0  0.097231  0  0.101256  0.120745  0  1.033265  0
H  H14  1  0.08427597  0.20027028  0.67206232  1  0  0.112693  0  0.974005  0  0  0.122633  0  1.033988  0  0  0.125213  0  1.035367  0  0.097114  0  0.101244  0.120808  0  1.033203  0
H  H15  1  0.91572459  0.29972823  0.17205967  1  0  0.112693  0  0.974002  0  0  0.122624  0  1.033991  0  0  0.125204  0  1.035369  0  0.097102  0  0.101269  0.120799  0  1.033205  0
H  H16  1  0.58426305  0.29972680  0.67206285  1  0  0.112696  0  0.973991  0  0  0.122623  0  1.033974  0  0  0.125202  0  1.035354  0  0.097087  0  0.101274  0.120798  0  1.033188  0
H  H17  1  0.41573047  0.20027243  0.17206338  1  0  0.112722  0  0.973945  0  0  0.122654  0  1.033929  0  0  0.125234  0  1.035306  0  0.097131  0  0.101262  0.120829  0  1.033144  0
H  H18  1  0.91573514  0.79972531  0.32793874  1  0  0.112768  0  0.9739  0  0  0.122684  0  1.033889  0  0  0.125264  0  1.035266  0  0.097091  0  0.101298  0.120859  0  1.033105  0
H  H19  1  0.08426893  0.70027666  0.82793980  1  0  0.112712  0  0.973958  0  0  0.12264  0  1.033955  0  0  0.12522  0  1.035333  0  0.097126  0  0.101266  0.120815  0  1.03317  0
H  H20  1  0.01880775  0.57855510  0.21945270  1  0  0.118899  0  0.947706  0  0  0.12979  0  1.005461  0  0  0.132695  0  1.006  0  0.083225  0  0.103586  0.127726  0  1.005211  0
H  H21  1  0.98119984  0.92145186  0.71945111  1  0  0.118906  0  0.947743  0  0  0.129802  0  1.005487  0  0  0.132701  0  1.006051  0  0.083169  0  0.103593  0.127738  0  1.005237  0
H  H22  1  0.48118637  0.07855016  0.78054730  1  0  0.11884  0  0.947788  0  0  0.12974  0  1.005531  0  0  0.132642  0  1.006081  0  0.083396  0  0.10357  0.12768  0  1.005279  0
H  H23  1  0.51881594  0.42144549  0.28054624  1  0  0.118894  0  0.947716  0  0  0.129796  0  1.005466  0  0  0.132697  0  1.006016  0  0.083209  0  0.103593  0.127733  0  1.005214  0
H  H24  1  0.98117169  0.42144621  0.78054624  1  0  0.118785  0  0.947784  0  0  0.129703  0  1.005522  0  0  0.132588  0  1.006119  0  0.083183  0  0.103553  0.127643  0  1.005268  0
H  H25  1  0.01882359  0.07855588  0.28054783  1  0  0.118835  0  0.947678  0  0  0.129745  0  1.005413  0  0  0.132624  0  1.006031  0  0.083214  0  0.103588  0.127683  0  1.005162  0
H  H26  1  0.51882650  0.92144329  0.21945376  1  0  0.118866  0  0.947629  0  0  0.129777  0  1.005374  0  0  0.132665  0  1.005964  0  0.083013  0  0.103599  0.127715  0  1.005122  0
H  H27  1  0.48119341  0.57855725  0.71945058  1  0  0.118876  0  0.947746  0  0  0.129779  0  1.005485  0  0  0.132689  0  1.006011  0  0.083196  0  0.103589  0.127716  0  1.005233  0
H  H28  1  0.15568032  0.52026662  0.33683247  1  0  0.072359  0  0.982328  0  0  0.078916  0  1.053244  0  0  0.08101  0  1.050757  0  0.110249  0  0.106046  0.077419  0  1.054961  0
H  H29  1  0.84431671  0.97973464  0.83683247  1  0  0.072371  0  0.982262  0  0  0.078939  0  1.053154  0  0  0.081037  0  1.050662  0  0.110239  0  0.106061  0.07744  0  1.054872  0
H  H30  1  0.34431556  0.02026453  0.66316806  1  0  0.072356  0  0.982288  0  0  0.078914  0  1.053194  0  0  0.08101  0  1.050703  0  0.11073  0  0.106084  0.077416  0  1.054911  0
H  H31  1  0.65568676  0.47973327  0.16316594  1  0  0.072415  0  0.982203  0  0  0.078975  0  1.053093  0  0  0.081072  0  1.050603  0  0.110204  0  0.106091  0.077477  0  1.054811  0
H  H32  1  0.84430616  0.47973827  0.66316753  1  0  0.072548  0  0.982116  0  0  0.079133  0  1.052949  0  0  0.081229  0  1.050459  0  0.110656  0  0.106175  0.077631  0  1.054668  0
H  H33  1  0.15568736  0.02026096  0.16316860  1  0  0.072444  0  0.982171  0  0  0.078986  0  1.05308  0  0  0.081086  0  1.050586  0  0.110702  0  0.106114  0.077489  0  1.054797  0
H  H34  1  0.65568676  0.97973964  0.33683353  1  0  0.072481  0  0.982087  0  0  0.079023  0  1.053013  0  0  0.081121  0  1.050521  0  0.110726  0  0.106113  0.077525  0  1.054731  0
H  H35  1  0.34431907  0.52025804  0.83682875  1  0  0.072486  0  0.982165  0  0  0.079016  0  1.053104  0  0  0.08111  0  1.050617  0  0.110764  0  0.106112  0.077518  0  1.054821  0
H  H36  1  0.45757024  0.70808572  0.19689723  1  0  0.309019  0  0.922415  0  0  0.291147  0  0.99331  0  0  0.297633  0  0.98867  0  0.473655  0  0.290565  0.28659  0  0.996508  0
H  H37  1  0.54243735  0.79191625  0.69689829  1  0  0.308939  0  0.92248  0  0  0.291068  0  0.99339  0  0  0.297554  0  0.988751  0  0.47362  0  0.290501  0.28651  0  0.996588  0
H  H38  1  0.04242740  0.20808578  0.80310171  1  0  0.30903  0  0.92245  0  0  0.29116  0  0.993346  0  0  0.297647  0  0.988704  0  0.47375  0  0.290541  0.286602  0  0.996546  0
H  H39  1  0.95757491  0.29191273  0.30310171  1  0  0.309044  0  0.922417  0  0  0.291178  0  0.993298  0  0  0.297665  0  0.988656  0  0.47376  0  0.290579  0.286621  0  0.996496  0
H  H40  1  0.54241272  0.29191131  0.80309959  1  0  0.309009  0  0.922426  0  0  0.291163  0  0.993309  0  0  0.29765  0  0.988667  0  0.473755  0  0.290534  0.286605  0  0.996508  0
H  H41  1  0.45758255  0.20809149  0.30310171  1  0  0.308987  0  0.922327  0  0  0.291134  0  0.993224  0  0  0.297622  0  0.988582  0  0.473717  0  0.290566  0.286576  0  0.996422  0
H  H42  1  0.95758371  0.79190839  0.19690094  1  0  0.309015  0  0.922328  0  0  0.291142  0  0.993233  0  0  0.297629  0  0.988593  0  0.473716  0  0.290563  0.286584  0  0.996431  0
H  H43  1  0.04242564  0.70809143  0.69690041  1  0  0.309001  0  0.922402  0  0  0.291127  0  0.993289  0  0  0.297613  0  0.988651  0  0.473642  0  0.290578  0.28657  0  0.996485  0
H  H44  1  0.68606242  0.65371534  0.15366334  1  0  0.310611  0  0.935025  0  0  0.292233  0  1.005678  0  0  0.298002  0  1.001784  0  0.476243  0  0.288401  0.288116  0  1.008508  0
H  H45  1  0.31394517  0.84628520  0.65366175  1  0  0.310552  0  0.935044  0  0  0.29218  0  1.005707  0  0  0.297948  0  1.001813  0  0.476293  0  0.28838  0.288063  0  1.008536  0
H  H46  1  0.81393401  0.15371397  0.84633772  1  0  0.310527  0  0.935098  0  0  0.292146  0  1.005772  0  0  0.297915  0  1.001878  0  0.476234  0  0.288365  0.28803  0  1.008601  0
H  H47  1  0.18607182  0.34628740  0.34633666  1  0  0.310538  0  0.935114  0  0  0.292172  0  1.005779  0  0  0.297942  0  1.001883  0  0.475912  0  0.288353  0.288055  0  1.008609  0
H  H48  1  0.31392406  0.34628240  0.84633666  1  0  0.310511  0  0.935198  0  0  0.292146  0  1.005854  0  0  0.297913  0  1.001962  0  0.475931  0  0.288379  0.288028  0  1.008684  0
H  H49  1  0.68607473  0.15371897  0.34633825  1  0  0.310498  0  0.935138  0  0  0.292113  0  1.005821  0  0  0.29788  0  1.00193  0  0.476094  0  0.288408  0.287996  0  1.008647  0
H  H50  1  0.18607534  0.84627877  0.15366440  1  0  0.310556  0  0.935133  0  0  0.292176  0  1.005813  0  0  0.297946  0  1.001917  0  0.475979  0  0.288419  0.288059  0  1.008642  0
H  H51  1  0.81393753  0.65372105  0.65366440  1  0  0.31062  0  0.935046  0  0  0.292256  0  1.005712  0  0  0.298023  0  1.001822  0  0.476167  0  0.288458  0.288139  0  1.008542  0
C  C52  1  0.50333870  0.39638946  0.44160739  1  0  0.223701  0  3.820717  0  0  0.211963  0  4.124056  0  0  0.234531  0  4.134082  0  0.665414  0  0.102101  0.196646  0  4.117033  0
C  C53  1  0.49664954  0.10362049  0.94160474  1  0  0.223707  0  3.820642  0  0  0.211971  0  4.124  0  0  0.234546  0  4.134022  0  0.664822  0  0.102024  0.196649  0  4.116981  0
C  C54  1  0.99663310  0.89637868  0.55839420  1  0  0.22367  0  3.821152  0  0  0.211915  0  4.124511  0  0  0.234482  0  4.134538  0  0.665369  0  0.102028  0.196599  0  4.117485  0
C  C55  1  0.00337273  0.60362615  0.05839686  1  0  0.223781  0  3.821057  0  0  0.212037  0  4.124423  0  0  0.234611  0  4.134451  0  0.664802  0  0.102074  0.196716  0  4.117399  0
C  C56  1  0.49663371  0.60362114  0.55839102  1  0  0.223674  0  3.821262  0  0  0.211919  0  4.124629  0  0  0.234491  0  4.134669  0  0.665243  0  0.102057  0.196602  0  4.117604  0
C  C57  1  0.50336509  0.89637796  0.05838465  1  0  0.223586  0  3.821172  0  0  0.211838  0  4.124562  0  0  0.234415  0  4.13458  0  0.664939  0  0.102027  0.196516  0  4.11754  0
C  C58  1  0.00333402  0.10361477  0.44160898  1  0  0.223651  0  3.821064  0  0  0.211899  0  4.124432  0  0  0.234471  0  4.134463  0  0.665205  0  0.102071  0.196581  0  4.117406  0
C  C59  1  0.99663134  0.39637231  0.94161217  1  0  0.223802  0  3.821009  0  0  0.212048  0  4.124384  0  0  0.234627  0  4.134415  0  0.664856  0  0.102125  0.196727  0  4.11736  0
C  C60  1  0.67178507  0.62497134  0.38958913  1  0  0.148371  0  3.760166  0  0  0.114243  0  4.013664  0  0  0.12514  0  4.031449  0  0.453779  0  0.031096  0.107239  0  4.0014  0
C  C61  1  0.32821197  0.87502563  0.88958860  1  0  0.148313  0  3.760213  0  0  0.114194  0  4.013679  0  0  0.125094  0  4.03146  0  0.453946  0  0.031158  0.107191  0  4.00142  0
C  C62  1  0.82820257  0.12497426  0.61041034  1  0  0.14844  0  3.760187  0  0  0.114266  0  4.013658  0  0  0.125157  0  4.031447  0  0.45384  0  0.031094  0.107262  0  4.001395  0
C  C63  1  0.17180150  0.37502497  0.11040875  1  0  0.148347  0  3.760269  0  0  0.114162  0  4.01375  0  0  0.125053  0  4.031541  0  0.454039  0  0.031041  0.107157  0  4.001488  0
C  C64  1  0.32818910  0.37502497  0.61041034  1  0  0.148491  0  3.760165  0  0  0.114342  0  4.013652  0  0  0.125232  0  4.031446  0  0.454044  0  0.031085  0.107339  0  4.001387  0
C  C65  1  0.67180442  0.12497354  0.11041246  1  0  0.148378  0  3.760353  0  0  0.114252  0  4.013847  0  0  0.125146  0  4.031631  0  0.453916  0  0.031044  0.107248  0  4.001584  0
C  C66  1  0.17180678  0.87502420  0.38959019  1  0  0.148364  0  3.760271  0  0  0.114218  0  4.013765  0  0  0.12511  0  4.031555  0  0.453903  0  0.031085  0.107216  0  4.0015  0
C  C67  1  0.82820785  0.62497134  0.88959125  1  0  0.148409  0  3.760237  0  0  0.114273  0  4.013689  0  0  0.125164  0  4.031476  0  0.453885  0  0.031082  0.107269  0  4.001429  0
C  C68  1  0.58095718  0.66083112  0.32690041  1  0  -0.253034  0  3.701967  0  0  -0.261669  0  3.945289  0  0  -0.273356  0  3.964558  0  0.003503  0  -0.106482  -0.254183  0  3.932419  0
C  C69  1  0.41904690  0.83916871  0.82689882  1  0  -0.252996  0  3.70211  0  0  -0.26163  0  3.945482  0  0  -0.273317  0  3.964751  0  0.003681  0  -0.106474  -0.254147  0  3.93261  0
C  C70  1  0.91903398  0.16083332  0.67309852  1  0  -0.253153  0  3.702079  0  0  -0.261791  0  3.945409  0  0  -0.273477  0  3.964679  0  0.003913  0  -0.106472  -0.254306  0  3.932536  0
C  C71  1  0.08096482  0.33916805  0.17309693  1  0  -0.253092  0  3.702061  0  0  -0.261688  0  3.945375  0  0  -0.273374  0  3.964647  0  0.003895  0  -0.106428  -0.254203  0  3.932502  0
C  C72  1  0.41901875  0.33916591  0.67309693  1  0  -0.253043  0  3.701987  0  0  -0.261633  0  3.945215  0  0  -0.273319  0  3.964492  0  0.003952  0  -0.106439  -0.25415  0  3.932339  0
C  C73  1  0.58097301  0.16083546  0.17309693  1  0  -0.253007  0  3.702041  0  0  -0.261626  0  3.945289  0  0  -0.273309  0  3.964555  0  0.003664  0  -0.106423  -0.254144  0  3.932415  0
C  C74  1  0.08097889  0.83916370  0.32690307  1  0  -0.253029  0  3.70194  0  0  -0.261614  0  3.945146  0  0  -0.273298  0  3.964414  0  0.003731  0  -0.106451  -0.254132  0  3.932272  0
C  C75  1  0.91903222  0.66083326  0.82690201  1  0  -0.252982  0  3.702121  0  0  -0.26161  0  3.94544  0  0  -0.273296  0  3.964713  0  0.003748  0  -0.106403  -0.254128  0  3.932567  0
C  C76  1  0.70226981  0.64510078  0.26257777  1  0  0.360104  0  3.857673  0  0  0.350101  0  4.101521  0  0  0.366228  0  4.117618  0  0.412468  0  0.112406  0.339456  0  4.090217  0
C  C77  1  0.29774482  0.85490118  0.76257883  1  0  0.360296  0  3.857487  0  0  0.350199  0  4.101482  0  0  0.366326  0  4.117575  0  0.412126  0  0.112469  0.339555  0  4.090179  0
C  C78  1  0.79773014  0.14509941  0.73742064  1  0  0.360185  0  3.857618  0  0  0.350193  0  4.101454  0  0  0.366321  0  4.117547  0  0.412337  0  0.112407  0.339547  0  4.09015  0
C  C79  1  0.20227745  0.35489910  0.23741905  1  0  0.360236  0  3.857519  0  0  0.350179  0  4.101448  0  0  0.366306  0  4.117542  0  0.4122  0  0.11238  0.339534  0  4.090144  0
C  C80  1  0.29770435  0.35489695  0.73742117  1  0  0.359972  0  3.857789  0  0  0.350018  0  4.101574  0  0  0.366144  0  4.117672  0  0.412302  0  0.11236  0.339375  0  4.090268  0
C  C81  1  0.70228740  0.14510585  0.23742170  1  0  0.359864  0  3.857676  0  0  0.349906  0  4.101457  0  0  0.366035  0  4.11755  0  0.412598  0  0.112337  0.339263  0  4.090151  0
C  C82  1  0.20229152  0.85489546  0.26257989  1  0  0.359918  0  3.857828  0  0  0.349978  0  4.10157  0  0  0.366106  0  4.117659  0  0.412536  0  0.112366  0.339335  0  4.090265  0
C  C83  1  0.79772486  0.64510507  0.76257989  1  0  0.359981  0  3.857749  0  0  0.349951  0  4.101636  0  0  0.366075  0  4.117736  0  0.412448  0  0.11234  0.339308  0  4.090329  0
C  C84  1  0.91480795  0.59276665  0.26691952  1  0  -0.255546  0  3.698784  0  0  -0.265805  0  3.946284  0  0  -0.277749  0  3.966013  0  -0.020869  0  -0.108426  -0.258084  0  3.933052  0
C  C85  1  0.08520140  0.90723817  0.76691793  1  0  -0.255609  0  3.698674  0  0  -0.265839  0  3.946209  0  0  -0.277789  0  3.965934  0  -0.020764  0  -0.108439  -0.258122  0  3.932981  0
C  C86  1  0.58518848  0.09276028  0.73308207  1  0  -0.255543  0  3.69863  0  0  -0.26582  0  3.946141  0  0  -0.277765  0  3.965865  0  -0.02129  0  -0.108422  -0.258103  0  3.932914  0
C  C87  1  0.41481207  0.40723395  0.23307835  1  0  -0.255594  0  3.698842  0  0  -0.265872  0  3.946382  0  0  -0.277817  0  3.966107  0  -0.020898  0  -0.10845  -0.258151  0  3.933149  0
C  C88  1  0.08517501  0.40723395  0.73308207  1  0  -0.255353  0  3.69879  0  0  -0.265669  0  3.946323  0  0  -0.277619  0  3.966045  0  -0.021318  0  -0.108405  -0.257949  0  3.933091  0
C  C89  1  0.91482203  0.09276885  0.23308154  1  0  -0.255349  0  3.698689  0  0  -0.265631  0  3.946192  0  0  -0.277584  0  3.965907  0  -0.020999  0  -0.108392  -0.257913  0  3.932962  0
C  C90  1  0.41481559  0.90723317  0.26692059  1  0  -0.255404  0  3.698784  0  0  -0.265721  0  3.94633  0  0  -0.277669  0  3.966045  0  -0.020732  0  -0.108418  -0.258001  0  3.933096  0
C  C91  1  0.58519200  0.59276736  0.76691899  1  0  -0.255506  0  3.698816  0  0  -0.265752  0  3.946335  0  0  -0.277696  0  3.966069  0  -0.02091  0  -0.108409  -0.258032  0  3.933102  0
C  C92  1  0.99163647  0.55999018  0.33224758  1  0  0.134527  0  3.764387  0  0  0.101723  0  4.019921  0  0  0.113061  0  4.036746  0  0.438573  0  0.029798  0.094397  0  4.008273  0
C  C93  1  0.00836584  0.94001178  0.83224599  1  0  0.134474  0  3.764241  0  0  0.101665  0  4.019787  0  0  0.113003  0  4.036609  0  0.438356  0  0.029731  0.094342  0  4.008142  0
C  C94  1  0.50835820  0.05998524  0.66775242  1  0  0.134587  0  3.764274  0  0  0.101791  0  4.01979  0  0  0.11313  0  4.036612  0  0.438157  0  0.029781  0.094465  0  4.008144  0
C  C95  1  0.49164059  0.44001041  0.16775242  1  0  0.134404  0  3.764271  0  0  0.101623  0  4.019794  0  0  0.112961  0  4.036617  0  0.438551  0  0.029745  0.094298  0  4.008147  0
C  C96  1  0.00835001  0.44001470  0.66775135  1  0  0.134232  0  3.764191  0  0  0.101418  0  4.019757  0  0  0.112759  0  4.036581  0  0.438288  0  0.029698  0.094093  0  4.00811  0
C  C97  1  0.99164527  0.05998524  0.16775295  1  0  0.134303  0  3.764298  0  0  0.101493  0  4.019878  0  0  0.112838  0  4.03669  0  0.43807  0  0.029694  0.094167  0  4.00823  0
C  C98  1  0.49164411  0.94001464  0.33224758  1  0  0.134269  0  3.764234  0  0  0.101462  0  4.019805  0  0  0.112804  0  4.036622  0  0.438066  0  0.0297  0.094136  0  4.008157  0
C  C99  1  0.50836348  0.55998590  0.83224652  1  0  0.134356  0  3.764493  0  0  0.101539  0  4.020057  0  0  0.112878  0  4.036883  0  0.438055  0  0.029693  0.094213  0  4.008407  0
Se  Se100  1  0.76705187  0.32880815  0.45714301  1  0  -0.248625  0  2.046652  0  0  -0.227658  0  2.416121  0  0  -0.247264  0  2.406577  0  0.004201  0  -0.069522  -0.214006  0  2.42238  0
Se  Se101  1  0.23296276  0.17119322  0.95713505  1  0  -0.248647  0  2.047292  0  0  -0.227672  0  2.416765  0  0  -0.247275  0  2.40722  0  0.004671  0  -0.06947  -0.21401  0  2.423005  0
Se  Se102  1  0.73293401  0.82879951  0.54285965  1  0  -0.248638  0  2.04703  0  0  -0.227656  0  2.416512  0  0  -0.247267  0  2.406974  0  0.004262  0  -0.069463  -0.21401  0  2.422784  0
Se  Se103  1  0.26705071  0.67119531  0.04286655  1  0  -0.248593  0  2.047489  0  0  -0.227621  0  2.416978  0  0  -0.247232  0  2.407444  0  0.004448  0  -0.069424  -0.213971  0  2.423239  0
Se  Se104  1  0.23295045  0.67119388  0.54285646  1  0  -0.248568  0  2.047275  0  0  -0.227593  0  2.416758  0  0  -0.247208  0  2.407223  0  0.004361  0  -0.069444  -0.213937  0  2.423011  0
Se  Se105  1  0.76704835  0.82881095  0.04284637  1  0  -0.248559  0  2.047434  0  0  -0.227614  0  2.416956  0  0  -0.247217  0  2.407409  0  0.004398  0  -0.069456  -0.213952  0  2.423194  0
Se  Se106  1  0.26704367  0.17118894  0.45714354  1  0  -0.248687  0  2.04682  0  0  -0.227731  0  2.416308  0  0  -0.247337  0  2.406762  0  0.004352  0  -0.069576  -0.214083  0  2.422574  0
Se  Se107  1  0.73295864  0.32880815  0.95715469  1  0  -0.248555  0  2.047504  0  0  -0.227588  0  2.416993  0  0  -0.247203  0  2.407462  0  0.004434  0  -0.069405  -0.213933  0  2.423241  0
N  N108  1  0.32654408  0.43955156  0.43252999  1  0  -0.508465  0  2.889306  0  0  -0.450736  0  3.158176  0  0  -0.46849  0  3.163492  0  -1.315382  0  -0.3802  -0.438766  0  3.154572  0
N  N109  1  0.67344944  0.06044481  0.93252840  1  0  -0.508448  0  2.8886  0  0  -0.450738  0  3.157487  0  0  -0.468495  0  3.162804  0  -1.31518  0  -0.380159  -0.438769  0  3.153885  0
N  N110  1  0.17341485  0.93954364  0.56746788  1  0  -0.508415  0  2.889308  0  0  -0.450676  0  3.158167  0  0  -0.468419  0  3.163459  0  -1.315371  0  -0.380184  -0.438705  0  3.154557  0
N  N111  1  0.82656811  0.56045475  0.06747054  1  0  -0.508609  0  2.888676  0  0  -0.450912  0  3.157591  0  0  -0.46866  0  3.162889  0  -1.315006  0  -0.38028  -0.438939  0  3.153985  0
N  N112  1  0.67341953  0.56045547  0.56746682  1  0  -0.508484  0  2.889113  0  0  -0.450798  0  3.158058  0  0  -0.468504  0  3.16326  0  -1.315374  0  -0.380257  -0.438827  0  3.15445  0
N  N113  1  0.32656343  0.93955007  0.06746151  1  0  -0.508411  0  2.888949  0  0  -0.450652  0  3.157744  0  0  -0.468408  0  3.163057  0  -1.315085  0  -0.380213  -0.438683  0  3.154142  0
N  N114  1  0.82654523  0.06044695  0.43253689  1  0  -0.508358  0  2.88937  0  0  -0.450642  0  3.158279  0  0  -0.468361  0  3.163515  0  -1.315307  0  -0.38014  -0.438671  0  3.154673  0
N  N115  1  0.17342893  0.43954513  0.93253212  1  0  -0.50862  0  2.88866  0  0  -0.450917  0  3.157602  0  0  -0.468641  0  3.162837  0  -1.315065  0  -0.380336  -0.438946  0  3.153996  0
N  N116  1  0.87400797  0.57463985  0.39362034  1  0  -0.371355  0  3.277219  0  0  -0.291579  0  3.539875  0  0  -0.315745  0  3.561246  0  -1.237168  0  -0.35005  -0.275192  0  3.524765  0
N  N117  1  0.12599434  0.92536068  0.89362087  1  0  -0.371338  0  3.277172  0  0  -0.291532  0  3.539781  0  0  -0.315699  0  3.561152  0  -1.236638  0  -0.350049  -0.275137  0  3.524646  0
N  N118  1  0.62598494  0.07463777  0.60637966  1  0  -0.371386  0  3.277254  0  0  -0.291573  0  3.539871  0  0  -0.315738  0  3.561241  0  -1.236943  0  -0.350015  -0.275185  0  3.524762  0
N  N119  1  0.37401562  0.42536217  0.10637913  1  0  -0.371195  0  3.277102  0  0  -0.29137  0  3.539692  0  0  -0.315538  0  3.561064  0  -1.237005  0  -0.349931  -0.274985  0  3.524584  0
N  N120  1  0.12597323  0.42536431  0.60637966  1  0  -0.371266  0  3.277184  0  0  -0.291438  0  3.539777  0  0  -0.315609  0  3.561154  0  -1.237024  0  -0.349987  -0.275051  0  3.524666  0
N  N121  1  0.87401853  0.07463563  0.10638125  1  0  -0.371207  0  3.277224  0  0  -0.291388  0  3.539812  0  0  -0.315555  0  3.56118  0  -1.237044  0  -0.349937  -0.275002  0  3.524703  0
N  N122  1  0.37402089  0.92536497  0.39362087  1  0  -0.371164  0  3.277177  0  0  -0.291333  0  3.539756  0  0  -0.315502  0  3.561131  0  -1.237091  0  -0.349937  -0.274946  0  3.524645  0
N  N123  1  0.62598494  0.57463271  0.89361875  1  0  -0.371385  0  3.277406  0  0  -0.291544  0  3.539987  0  0  -0.315714  0  3.561363  0  -1.236967  0  -0.349992  -0.275158  0  3.524878  0
N  N124  1  0.62500145  0.68237500  0.19989224  1  0  -0.660486  0  3.156851  0  0  -0.620749  0  3.387541  0  0  -0.640576  0  3.386857  0  -1.293446  0  -0.584809  -0.606797  0  3.387629  0
N  N125  1  0.37500790  0.81762982  0.69989171  1  0  -0.660456  0  3.156748  0  0  -0.620709  0  3.387469  0  0  -0.640535  0  3.386786  0  -1.293443  0  -0.584801  -0.606757  0  3.387555  0
N  N126  1  0.87499323  0.18237149  0.80010829  1  0  -0.660471  0  3.156803  0  0  -0.620753  0  3.387506  0  0  -0.64058  0  3.38682  0  -1.293444  0  -0.58477  -0.6068  0  3.387597  0
N  N127  1  0.12500733  0.31762703  0.30010617  1  0  -0.660546  0  3.15673  0  0  -0.620828  0  3.387441  0  0  -0.640654  0  3.386753  0  -1.29306  0  -0.58483  -0.606875  0  3.387529  0
N  N128  1  0.37498151  0.31762560  0.80010776  1  0  -0.660373  0  3.157  0  0  -0.620714  0  3.387643  0  0  -0.64054  0  3.386959  0  -1.293102  0  -0.584765  -0.606762  0  3.387733  0
N  N129  1  0.62502080  0.18237863  0.30010776  1  0  -0.660291  0  3.156906  0  0  -0.62059  0  3.387566  0  0  -0.640416  0  3.386884  0  -1.293301  0  -0.584798  -0.606638  0  3.38765  0
N  N130  1  0.12501612  0.81762125  0.19989489  1  0  -0.660408  0  3.156884  0  0  -0.620712  0  3.38755  0  0  -0.640538  0  3.386863  0  -1.293096  0  -0.584858  -0.60676  0  3.387637  0
N  N131  1  0.87499499  0.68237929  0.69989436  1  0  -0.660447  0  3.156838  0  0  -0.620719  0  3.387522  0  0  -0.640549  0  3.386849  0  -1.293298  0  -0.584879  -0.606767  0  3.387608  0
