# generated using pymatgen
data_Zn4H8C58O13F24
_symmetry_space_group_name_H-M   'P 1'
_cell_length_a   21.61593714
_cell_length_b   21.61592756
_cell_length_c   34.45589929
_cell_angle_alpha   89.99976312
_cell_angle_beta   89.99969093
_cell_angle_gamma   89.99956922
_symmetry_Int_Tables_number   1
_chemical_formula_structural   Zn4H8C58O13F24
_chemical_formula_sum   'Zn8 H16 C116 O26 F48'
_cell_volume   16099.46833663
_cell_formula_units_Z   2
loop_
 _symmetry_equiv_pos_site_id
 _symmetry_equiv_pos_as_xyz
  1  'x, y, z'
loop_
 _atom_site_type_symbol
 _atom_site_label
 _atom_site_symmetry_multiplicity
 _atom_site_fract_x
 _atom_site_fract_y
 _atom_site_fract_z
 _atom_site_occupancy
 _atom_site_pbe_bader_charge
 _atom_site_pbe_bader_spin_density
 _atom_site_pbe_cm5_charge
 _atom_site_pbe_ddec_charge
 _atom_site_pbe_ddec_spin_density
 _atom_site_pbe_ddec_sum_bond_order
 _atom_site_pbe_magmom
Zn  Zn0  1  0.55224680  0.55163826  0.03339785  1  1.318069  0  0.679152  0.97328  0  2.356827  0
Zn  Zn1  1  0.44775507  0.55164113  0.96660427  1  1.318164  0  0.679149  0.973278  0  2.357063  0
Zn  Zn2  1  0.44775345  0.44835787  0.03339613  1  1.318258  0  0.679162  0.973238  0  2.356845  0
Zn  Zn3  1  0.55224410  0.44835995  0.96660219  1  1.317916  0  0.679093  0.97315  0  2.35695  0
Zn  Zn4  1  0.44835855  0.44775318  0.46660381  1  1.318229  0  0.679121  0.973185  0  2.356963  0
Zn  Zn5  1  0.44835880  0.55224535  0.53339659  1  1.318109  0  0.679184  0.97327  0  2.35686  0
Zn  Zn6  1  0.55164075  0.55224472  0.46660176  1  1.318046  0  0.679143  0.973181  0  2.35689  0
Zn  Zn7  1  0.55163577  0.44775211  0.53339626  1  1.317871  0  0.679159  0.973281  0  2.356932  0
H  H8  1  0.56917539  0.57130479  0.15157466  1  0.097941  0  0.108899  0.118215  0  0.996042  0
H  H9  1  0.61125920  0.61176579  0.21407559  1  0.064416  0  0.107566  0.11095  0  0.98534  0
H  H10  1  0.43081968  0.42869843  0.15157363  1  0.098155  0  0.108911  0.118245  0  0.996096  0
H  H11  1  0.38873117  0.38823840  0.21407481  1  0.064142  0  0.107555  0.110993  0  0.985171  0
H  H12  1  0.42869724  0.43081428  0.34842294  1  0.098239  0  0.108899  0.118276  0  0.996083  0
H  H13  1  0.38823539  0.38873456  0.28592172  1  0.064517  0  0.107564  0.110969  0  0.985293  0
H  H14  1  0.57130123  0.56917515  0.34842223  1  0.098102  0  0.108886  0.118245  0  0.996193  0
H  H15  1  0.61176084  0.61126315  0.28592308  1  0.064362  0  0.107566  0.111034  0  0.98518  0
H  H16  1  0.43082124  0.57131042  0.84842422  1  0.098215  0  0.108867  0.118169  0  0.996065  0
H  H17  1  0.38873620  0.61176613  0.78592347  1  0.064507  0  0.107572  0.110963  0  0.985304  0
H  H18  1  0.56917987  0.42870255  0.84842620  1  0.098269  0  0.108899  0.118208  0  0.996096  0
H  H19  1  0.61126406  0.38823892  0.78592629  1  0.064163  0  0.107525  0.110968  0  0.985211  0
H  H20  1  0.57130091  0.43081414  0.65157775  1  0.098281  0  0.108903  0.118292  0  0.996087  0
H  H21  1  0.61176168  0.38873323  0.71407908  1  0.064418  0  0.107613  0.111068  0  0.98528  0
H  H22  1  0.42869588  0.56917515  0.65157607  1  0.0983  0  0.108932  0.118286  0  0.996049  0
H  H23  1  0.38823596  0.61126211  0.71407656  1  0.06427  0  0.107567  0.11099  0  0.985326  0
C  C24  1  0.49999988  0.66437951  0.00000265  1  1.618551  0  0.2352  0.65023  0  4.142143  0
C  C25  1  0.33475483  0.49999625  0.00000053  1  1.655313  0  0.232758  0.64619  0  4.153181  0
C  C26  1  0.49999820  0.49999945  0.10470481  1  1.472359  0  0.230908  0.61734  0  4.144502  0
C  C27  1  0.49999742  0.33561777  0.99999901  1  1.618562  0  0.23526  0.650336  0  4.14193  0
C  C28  1  0.66524848  0.50000010  0.00000055  1  1.655924  0  0.232915  0.64663  0  4.153194  0
C  C29  1  0.49999897  0.50000240  0.89529280  1  1.472208  0  0.230966  0.617381  0  4.144503  0
C  C30  1  0.33561825  0.50000339  0.50000083  1  1.618498  0  0.235215  0.650083  0  4.142093  0
C  C31  1  0.50000097  0.66524435  0.49999743  1  1.655349  0  0.232773  0.6462  0  4.153407  0
C  C32  1  0.49999880  0.49999664  0.39529250  1  1.472942  0  0.230952  0.61744  0  4.144695  0
C  C33  1  0.66438077  0.50000678  0.50000201  1  1.61843  0  0.235231  0.650072  0  4.142036  0
C  C34  1  0.49999759  0.33475102  0.49999844  1  1.655946  0  0.232779  0.646427  0  4.153265  0
C  C35  1  0.49999883  0.49999364  0.60470831  1  1.472856  0  0.230918  0.6173  0  4.144993  0
C  C36  1  0.26539615  0.50000062  0.99999863  1  0.105956  0  -0.022637  -0.211041  0  3.982698  0
C  C37  1  0.23181425  0.44912716  0.01391711  1  0.514771  0  0.10126  0.176147  0  4.076388  0
C  C38  1  0.16737013  0.44928655  0.01385366  1  0.580072  0  0.094284  0.135235  0  4.080082  0
C  C39  1  0.23181339  0.55087347  0.98608025  1  0.515136  0  0.101288  0.176137  0  4.076568  0
C  C40  1  0.16736927  0.55071503  0.98614334  1  0.58003  0  0.094193  0.135182  0  4.080451  0
C  C41  1  0.13391122  0.50000112  0.99999827  1  0.140124  0  -0.017634  -0.081165  0  4.080513  0
C  C42  1  0.06560097  0.50000091  0.99999868  1  0.124684  0  -0.017763  -0.089008  0  4.075955  0
C  C43  1  0.03220400  0.50024541  0.96523923  1  0.623906  0  0.096426  0.145091  0  4.077176  0
C  C44  1  0.03220338  0.49975810  0.03475677  1  0.62358  0  0.096471  0.145182  0  4.077324  0
C  C45  1  0.73460842  0.50000030  0.00000043  1  0.105962  0  -0.022635  -0.211262  0  3.982973  0
C  C46  1  0.76819080  0.55087465  0.01391781  1  0.515266  0  0.101357  0.176221  0  4.07675  0
C  C47  1  0.83263630  0.55071481  0.01385501  1  0.57979  0  0.094234  0.135231  0  4.080304  0
C  C48  1  0.76819070  0.44912657  0.98608209  1  0.5153  0  0.101321  0.176237  0  4.076798  0
C  C49  1  0.83263667  0.44928593  0.98614409  1  0.579824  0  0.094166  0.135093  0  4.080426  0
C  C50  1  0.86609414  0.50000021  0.99999820  1  0.140534  0  -0.017581  -0.080975  0  4.080347  0
C  C51  1  0.93440439  0.50000042  0.99999866  1  0.123982  0  -0.017876  -0.089311  0  4.075626  0
C  C52  1  0.96780241  0.50024450  0.03475751  1  0.446845  0  0.096571  0.145447  0  4.076973  0
C  C53  1  0.96780304  0.49975661  0.96523881  1  0.447945  0  0.096509  0.145317  0  4.076951  0
C  C54  1  0.53922994  0.54034943  0.16799981  1  -0.063402  0  -0.07815  -0.138319  0  3.925571  0
C  C55  1  0.54035486  0.54077768  0.20866367  1  0.038511  0  -0.00536  0.076902  0  4.038929  0
C  C56  1  0.58063878  0.58089926  0.23019339  1  0.035765  0  -0.087015  -0.130352  0  4.011457  0
C  C57  1  0.46075990  0.45965507  0.16799946  1  -0.063566  0  -0.078121  -0.138194  0  3.925746  0
C  C58  1  0.45963509  0.45922516  0.20866304  1  0.038916  0  -0.005437  0.07659  0  4.039227  0
C  C59  1  0.41935237  0.41910205  0.23019184  1  0.035666  0  -0.087125  -0.130438  0  4.011235  0
C  C60  1  0.45965260  0.46076020  0.33199838  1  -0.063787  0  -0.078218  -0.138585  0  3.925969  0
C  C61  1  0.45922162  0.45963801  0.29133422  1  0.038514  0  -0.005247  0.077161  0  4.038757  0
C  C62  1  0.41909915  0.41935359  0.26980450  1  -0.153253  0  -0.086999  -0.130392  0  4.011112  0
C  C63  1  0.54034508  0.53923027  0.33199843  1  -0.063266  0  -0.07817  -0.138465  0  3.925748  0
C  C64  1  0.54077318  0.54035827  0.29133340  1  0.038527  0  -0.00536  0.077061  0  4.03893  0
C  C65  1  0.58089491  0.58064377  0.26980431  1  -0.153089  0  -0.087096  -0.130569  0  4.011218  0
C  C66  1  0.49999616  0.50000301  0.14790641  1  0.069785  0  -0.022209  -0.045318  0  4.03226  0
C  C67  1  0.49999674  0.50000228  0.22938216  1  0.075015  0  0.007331  0.007165  0  3.899326  0
C  C68  1  0.49999991  0.49999355  0.35208974  1  0.069936  0  -0.022308  -0.045301  0  4.03286  0
C  C69  1  0.49999795  0.50000075  0.27061573  1  -0.094975  0  0.007035  0.006612  0  3.899716  0
C  C70  1  0.46076553  0.54035217  0.83199915  1  -0.063818  0  -0.078121  -0.138185  0  3.925739  0
C  C71  1  0.45963876  0.54077745  0.79133587  1  0.038772  0  -0.005272  0.076975  0  4.038989  0
C  C72  1  0.41935454  0.58089856  0.76980692  1  -0.153335  0  -0.087116  -0.130439  0  4.011172  0
C  C73  1  0.53923526  0.45965582  0.83200144  1  -0.063596  0  -0.078014  -0.138032  0  3.925511  0
C  C74  1  0.54035868  0.45922525  0.79133613  1  0.038653  0  -0.005417  0.076725  0  4.039007  0
C  C75  1  0.58064447  0.41910105  0.76980888  1  0.035782  0  -0.086959  -0.130244  0  4.011055  0
C  C76  1  0.54034440  0.46076017  0.66800079  1  -0.063627  0  -0.078212  -0.138645  0  3.925825  0
C  C77  1  0.54077447  0.45963540  0.70866756  1  0.038819  0  -0.005294  0.077263  0  4.03905  0
C  C78  1  0.58089585  0.41935424  0.73019535  1  -0.153154  0  -0.087123  -0.130686  0  4.011466  0
C  C79  1  0.45964947  0.53923085  0.66800082  1  -0.063606  0  -0.078213  -0.138477  0  3.925408  0
C  C80  1  0.45922183  0.54035628  0.70866556  1  0.038384  0  -0.005284  0.07707  0  4.038946  0
C  C81  1  0.41909980  0.58064378  0.73019280  1  0.035852  0  -0.087036  -0.13042  0  4.011067  0
C  C82  1  0.49999962  0.50000532  0.85209236  1  0.069901  0  -0.022356  -0.045613  0  4.032872  0
C  C83  1  0.49999811  0.49999772  0.77061778  1  0.075023  0  0.007193  0.00696  0  3.899379  0
C  C84  1  0.49999818  0.49999211  0.64790962  1  0.069848  0  -0.022306  -0.045168  0  4.032735  0
C  C85  1  0.49999552  0.49999647  0.72938333  1  -0.095124  0  0.007077  0.006519  0  3.899895  0
C  C86  1  0.49999444  0.26615140  0.99999997  1  0.127279  0  -0.022811  -0.215068  0  3.978781  0
C  C87  1  0.47769746  0.23240265  0.03184046  1  0.488524  0  0.102437  0.17902  0  4.07091  0
C  C88  1  0.47781197  0.16791271  0.03174767  1  0.615687  0  0.093848  0.133974  0  4.077184  0
C  C89  1  0.52229386  0.23240125  0.96815987  1  0.48874  0  0.102349  0.178907  0  4.071101  0
C  C90  1  0.52217891  0.16791038  0.96825660  1  0.615825  0  0.093834  0.133891  0  4.076959  0
C  C91  1  0.49999910  0.13426763  0.00000246  1  0.125077  0  -0.016233  -0.079672  0  4.071966  0
C  C92  1  0.49999936  0.06582181  0.00000197  1  0.137763  0  -0.01851  -0.088948  0  4.069507  0
C  C93  1  0.55533029  0.03222779  0.99984435  1  0.445116  0  0.096027  0.144689  0  4.073902  0
C  C94  1  0.44466855  0.03222688  0.00015912  1  0.445041  0  0.096023  0.144822  0  4.074073  0
C  C95  1  0.49999592  0.73384542  0.00000110  1  0.127073  0  -0.022732  -0.214908  0  3.979029  0
C  C96  1  0.47769744  0.76759520  0.96816216  1  0.488484  0  0.102334  0.178776  0  4.071124  0
C  C97  1  0.47781655  0.83208700  0.96825466  1  0.615974  0  0.093968  0.134148  0  4.077047  0
C  C98  1  0.52229818  0.76759395  0.03183998  1  0.488549  0  0.102338  0.178825  0  4.071079  0
C  C99  1  0.52218460  0.83208714  0.03174412  1  0.615919  0  0.094001  0.13412  0  4.077089  0
C  C100  1  0.50000144  0.86572826  0.99999977  1  0.125116  0  -0.01636  -0.079942  0  4.072063  0
C  C101  1  0.50000105  0.93417588  0.99999970  1  0.139548  0  -0.018407  -0.088613  0  4.06934  0
C  C102  1  0.44466860  0.96776937  0.99984361  1  0.621686  0  0.095994  0.14448  0  4.074027  0
C  C103  1  0.55533060  0.96776947  0.00015772  1  0.621626  0  0.095975  0.144548  0  4.074143  0
C  C104  1  0.50000025  0.73460386  0.49999908  1  0.10589  0  -0.02268  -0.211075  0  3.982841  0
C  C105  1  0.55087422  0.76818589  0.48608174  1  0.515134  0  0.101287  0.176103  0  4.076562  0
C  C106  1  0.55071391  0.83263096  0.48614464  1  0.580094  0  0.094233  0.135242  0  4.080415  0
C  C107  1  0.44912695  0.76818480  0.51391662  1  0.51484  0  0.10138  0.176348  0  4.076247  0
C  C108  1  0.44928631  0.83263033  0.51385327  1  0.579737  0  0.094291  0.135145  0  4.080006  0
C  C109  1  0.50000114  0.86608746  0.49999920  1  0.140391  0  -0.017643  -0.081237  0  4.080648  0
C  C110  1  0.49999996  0.93439681  0.49999998  1  0.125507  0  -0.017636  -0.088748  0  4.075766  0
C  C111  1  0.49975403  0.96779475  0.53475945  1  0.623133  0  0.096417  0.145193  0  4.077195  0
C  C112  1  0.50024702  0.96779729  0.46524160  1  0.623916  0  0.09643  0.145063  0  4.077215  0
C  C113  1  0.50000062  0.26539198  0.49999998  1  0.105974  0  -0.022605  -0.211131  0  3.982826  0
C  C114  1  0.44912584  0.23180865  0.48608232  1  0.515208  0  0.101313  0.176131  0  4.076681  0
C  C115  1  0.44928477  0.16736542  0.48614654  1  0.579823  0  0.094231  0.135248  0  4.080224  0
C  C116  1  0.55087473  0.23180956  0.51391889  1  0.515221  0  0.101201  0.175976  0  4.076721  0
C  C117  1  0.55071675  0.16736541  0.51385599  1  0.579989  0  0.094072  0.135044  0  4.080459  0
C  C118  1  0.50000158  0.13390653  0.50000218  1  0.140521  0  -0.017575  -0.080865  0  4.080222  0
C  C119  1  0.49999998  0.06559532  0.50000140  1  0.122714  0  -0.017924  -0.089693  0  4.07596  0
C  C120  1  0.49976062  0.03219738  0.46524223  1  0.448097  0  0.096535  0.145694  0  4.076901  0
C  C121  1  0.50023821  0.03219530  0.53476066  1  0.448159  0  0.096588  0.14544  0  4.076801  0
C  C122  1  0.73384618  0.50000745  0.50000276  1  0.127135  0  -0.022807  -0.214981  0  3.978919  0
C  C123  1  0.76759587  0.52230487  0.46816023  1  0.488509  0  0.102406  0.178869  0  4.070845  0
C  C124  1  0.83208718  0.52218712  0.46825619  1  0.615819  0  0.093938  0.134169  0  4.077366  0
C  C125  1  0.76759576  0.47770792  0.53183995  1  0.488727  0  0.102323  0.178897  0  4.071394  0
C  C126  1  0.83208661  0.47781732  0.53174552  1  0.615794  0  0.093932  0.133992  0  4.076967  0
C  C127  1  0.86573082  0.50000047  0.49999935  1  0.125445  0  -0.016349  -0.079896  0  4.072052  0
C  C128  1  0.93417708  0.50000299  0.50000068  1  0.138694  0  -0.018446  -0.08879  0  4.069602  0
C  C129  1  0.96777240  0.44467237  0.50015539  1  0.444065  0  0.095972  0.144676  0  4.074147  0
C  C130  1  0.96777106  0.55533336  0.49984586  1  0.44528  0  0.096028  0.144693  0  4.074397  0
C  C131  1  0.26615237  0.50000782  0.50000065  1  0.127136  0  -0.022858  -0.215069  0  3.978937  0
C  C132  1  0.23240390  0.52230344  0.53184167  1  0.488566  0  0.102497  0.178926  0  4.070905  0
C  C133  1  0.16791121  0.52218432  0.53174514  1  0.615445  0  0.093896  0.13405  0  4.077139  0
C  C134  1  0.23240527  0.47770736  0.46816120  1  0.488613  0  0.10243  0.17898  0  4.071289  0
C  C135  1  0.16791720  0.47781771  0.46825447  1  0.615805  0  0.093957  0.133987  0  4.077096  0
C  C136  1  0.13427190  0.50000137  0.50000088  1  0.125346  0  -0.016381  -0.07995  0  4.07213  0
C  C137  1  0.06582472  0.50000256  0.49999954  1  0.139557  0  -0.018375  -0.088501  0  4.069441  0
C  C138  1  0.03223078  0.55533318  0.50015741  1  0.621624  0  0.095997  0.144485  0  4.074464  0
C  C139  1  0.03223119  0.44467172  0.49984179  1  0.621666  0  0.09589  0.144377  0  4.074239  0
O  O140  1  0.50000096  0.49999887  0.99999996  1  -1.235377  0  -0.57534  -1.042732  0  2.548886  0
O  O141  1  0.54646517  0.63837994  0.01568758  1  -1.152811  0  -0.307447  -0.534769  0  2.308659  0
O  O142  1  0.36071150  0.52495094  0.97084117  1  -1.154156  0  -0.307359  -0.533872  0  2.315801  0
O  O143  1  0.47128814  0.45578731  0.08781173  1  -1.169714  0  -0.316278  -0.549184  0  2.33134  0
O  O144  1  0.45352911  0.63837617  0.98431432  1  -1.152697  0  -0.307511  -0.53485  0  2.308094  0
O  O145  1  0.52871349  0.54421494  0.08781239  1  -1.16872  0  -0.316357  -0.549233  0  2.330942  0
O  O146  1  0.36070787  0.47504733  0.02915285  1  -1.154836  0  -0.307151  -0.533596  0  2.316596  0
O  O147  1  0.45353431  0.36162140  0.01568838  1  -1.152776  0  -0.307424  -0.534824  0  2.308613  0
O  O148  1  0.63929365  0.47504503  0.97084598  1  -1.15474  0  -0.307279  -0.533902  0  2.316294  0
O  O149  1  0.54646528  0.36161879  0.98430872  1  -1.152569  0  -0.307525  -0.53478  0  2.308025  0
O  O150  1  0.63929334  0.52495392  0.02915522  1  -1.154668  0  -0.30731  -0.533907  0  2.31627  0
O  O151  1  0.47128380  0.54421799  0.91218859  1  -1.168934  0  -0.316426  -0.549323  0  2.330864  0
O  O152  1  0.52871445  0.45578993  0.91218716  1  -1.169375  0  -0.316269  -0.549097  0  2.33123  0
O  O153  1  0.49999974  0.49999954  0.49999881  1  -1.235375  0  -0.57534  -1.042725  0  2.548851  0
O  O154  1  0.36161829  0.45353807  0.48431006  1  -1.152521  0  -0.30744  -0.534663  0  2.308424  0
O  O155  1  0.47504898  0.63928942  0.52915478  1  -1.154616  0  -0.307349  -0.533911  0  2.316135  0
O  O156  1  0.54421091  0.52871367  0.41218557  1  -1.169342  0  -0.316246  -0.549139  0  2.331193  0
O  O157  1  0.36162150  0.54646759  0.51569179  1  -1.152848  0  -0.307529  -0.534767  0  2.308319  0
O  O158  1  0.45578563  0.47128320  0.41218696  1  -1.169638  0  -0.31641  -0.54935  0  2.331052  0
O  O159  1  0.52495038  0.63929127  0.47084247  1  -1.154371  0  -0.307152  -0.533554  0  2.316472  0
O  O160  1  0.63837763  0.54646666  0.48430889  1  -1.152792  0  -0.307514  -0.534771  0  2.308462  0
O  O161  1  0.52495672  0.36070576  0.52915186  1  -1.154612  0  -0.307294  -0.533937  0  2.316201  0
O  O162  1  0.63837830  0.45354017  0.51569464  1  -1.152586  0  -0.307446  -0.534644  0  2.308111  0
O  O163  1  0.47503871  0.36070476  0.47084611  1  -1.154726  0  -0.307183  -0.53367  0  2.316354  0
O  O164  1  0.45578882  0.52871481  0.58781370  1  -1.169321  0  -0.316304  -0.549181  0  2.331289  0
O  O165  1  0.54420621  0.47126980  0.58781421  1  -1.169365  0  -0.316366  -0.549281  0  2.331227  0
F  F166  1  0.26090521  0.60214624  0.97345879  1  -0.609113  0  -0.082963  -0.096076  0  1.368674  0
F  F167  1  0.13686618  0.60119463  0.97317951  1  -0.613313  0  -0.088899  -0.103472  0  1.356875  0
F  F168  1  0.26090450  0.39785648  0.02654022  1  -0.608697  0  -0.083007  -0.096109  0  1.368717  0
F  F169  1  0.13686684  0.39880625  0.02681672  1  -0.613155  0  -0.08902  -0.103567  0  1.356733  0
F  F170  1  0.06262615  0.50017139  0.93101834  1  -0.60929  0  -0.087297  -0.10104  0  1.354345  0
F  F171  1  0.93738166  0.49983132  0.93101889  1  -0.610329  0  -0.087286  -0.101019  0  1.354364  0
F  F172  1  0.06262708  0.49982819  0.06897814  1  -0.609547  0  -0.087326  -0.101095  0  1.354236  0
F  F173  1  0.93738027  0.50016771  0.06897811  1  -0.610279  0  -0.087335  -0.101097  0  1.354314  0
F  F174  1  0.86314080  0.39880734  0.97318086  1  -0.613388  0  -0.088891  -0.103454  0  1.356913  0
F  F175  1  0.73909853  0.39785712  0.97346056  1  -0.609  0  -0.083035  -0.09611  0  1.368859  0
F  F176  1  0.86313855  0.60119317  0.02681784  1  -0.613343  0  -0.088945  -0.103527  0  1.356836  0
F  F177  1  0.73909951  0.60214386  0.02654233  1  -0.609036  0  -0.083043  -0.096122  0  1.36886  0
F  F178  1  0.54256042  0.26136418  0.93597170  1  -0.608902  0  -0.083978  -0.097472  0  1.366932  0
F  F179  1  0.54294948  0.13755455  0.93656334  1  -0.614988  0  -0.088679  -0.102827  0  1.35586  0
F  F180  1  0.45743160  0.26136553  0.06402972  1  -0.608839  0  -0.083947  -0.097465  0  1.366711  0
F  F181  1  0.45703283  0.13755821  0.06343869  1  -0.614699  0  -0.088681  -0.102863  0  1.35611  0
F  F182  1  0.60994774  0.06253071  0.99987759  1  -0.608124  0  -0.086642  -0.100567  0  1.354657  0
F  F183  1  0.60994921  0.93746754  0.00012313  1  -0.608204  0  -0.086643  -0.100567  0  1.35478  0
F  F184  1  0.39005132  0.06252928  0.00012667  1  -0.608133  0  -0.086671  -0.100658  0  1.354797  0
F  F185  1  0.39005022  0.93746831  0.99987683  1  -0.608208  0  -0.08664  -0.100548  0  1.354701  0
F  F186  1  0.54295375  0.86244004  0.06343732  1  -0.61493  0  -0.088783  -0.10291  0  1.356025  0
F  F187  1  0.54256838  0.73863179  0.06402722  1  -0.60878  0  -0.083952  -0.097413  0  1.366844  0
F  F188  1  0.45704255  0.86243933  0.93656284  1  -0.615003  0  -0.088781  -0.102936  0  1.356029  0
F  F189  1  0.45743300  0.73863433  0.93597239  1  -0.608685  0  -0.083913  -0.097383  0  1.366745  0
F  F190  1  0.39785465  0.73909482  0.52653926  1  -0.608737  0  -0.083031  -0.096155  0  1.368633  0
F  F191  1  0.39880394  0.86313345  0.52681452  1  -0.613183  0  -0.089049  -0.103567  0  1.356656  0
F  F192  1  0.60214627  0.73909608  0.47345831  1  -0.609098  0  -0.082963  -0.096062  0  1.368668  0
F  F193  1  0.60119605  0.86313009  0.47317982  1  -0.613338  0  -0.088991  -0.10355  0  1.356875  0
F  F194  1  0.49982709  0.93736800  0.56897830  1  -0.609594  0  -0.087379  -0.101181  0  1.354225  0
F  F195  1  0.50015560  0.06261442  0.56898088  1  -0.610413  0  -0.087242  -0.10099  0  1.354204  0
F  F196  1  0.50017511  0.93737308  0.43102137  1  -0.609633  0  -0.087316  -0.101101  0  1.354254  0
F  F197  1  0.49984346  0.06261904  0.43102163  1  -0.610316  0  -0.087335  -0.10121  0  1.354205  0
F  F198  1  0.60119484  0.13686036  0.52681890  1  -0.613414  0  -0.088837  -0.103394  0  1.356903  0
F  F199  1  0.60214368  0.26090454  0.52654302  1  -0.609069  0  -0.082881  -0.095956  0  1.368765  0
F  F200  1  0.39880783  0.13685898  0.47318430  1  -0.613383  0  -0.088965  -0.103529  0  1.356797  0
F  F201  1  0.39785575  0.26090363  0.47346073  1  -0.608974  0  -0.08302  -0.0961  0  1.368784  0
F  F202  1  0.73863374  0.45744092  0.56402900  1  -0.608992  0  -0.083978  -0.097463  0  1.366875  0
F  F203  1  0.86244054  0.45704399  0.56343818  1  -0.614964  0  -0.088711  -0.102836  0  1.356  0
F  F204  1  0.73863489  0.54256607  0.43597099  1  -0.608687  0  -0.083892  -0.097376  0  1.366879  0
F  F205  1  0.86244123  0.54296577  0.43656488  1  -0.61504  0  -0.088718  -0.102938  0  1.356128  0
F  F206  1  0.93746997  0.39005396  0.50011894  1  -0.608137  0  -0.086621  -0.100569  0  1.354848  0
F  F207  1  0.06253265  0.39005448  0.49987460  1  -0.608091  0  -0.086642  -0.100541  0  1.354874  0
F  F208  1  0.93747145  0.60995246  0.49988299  1  -0.608209  0  -0.086614  -0.100537  0  1.354782  0
F  F209  1  0.06253136  0.60995159  0.50012246  1  -0.608242  0  -0.086613  -0.100522  0  1.354871  0
F  F210  1  0.13756111  0.45704204  0.43656244  1  -0.614945  0  -0.088706  -0.10283  0  1.355956  0
F  F211  1  0.26137208  0.45743805  0.43597365  1  -0.608892  0  -0.084073  -0.097508  0  1.366878  0
F  F212  1  0.13755377  0.54295698  0.56343785  1  -0.614605  0  -0.088747  -0.102897  0  1.355894  0
F  F213  1  0.26136334  0.54256791  0.56403086  1  -0.608866  0  -0.083926  -0.097357  0  1.366822  0
