# generated using pymatgen
data_ZnH13C19I2NO4
_symmetry_space_group_name_H-M   'P 1'
_cell_length_a   10.85179353
_cell_length_b   14.71293220
_cell_length_c   16.17175392
_cell_angle_alpha   89.40465954
_cell_angle_beta   89.60795205
_cell_angle_gamma   88.31248117
_symmetry_Int_Tables_number   1
_chemical_formula_structural   ZnH13C19I2NO4
_chemical_formula_sum   'Zn2 H26 C38 I4 N2 O8'
_cell_volume   2580.69543229
_cell_formula_units_Z   2
loop_
 _symmetry_equiv_pos_site_id
 _symmetry_equiv_pos_as_xyz
  1  'x, y, z'
loop_
 _atom_site_type_symbol
 _atom_site_label
 _atom_site_symmetry_multiplicity
 _atom_site_fract_x
 _atom_site_fract_y
 _atom_site_fract_z
 _atom_site_occupancy
 _atom_site_pbe_bader_charge
 _atom_site_pbe_bader_spin_density
 _atom_site_pbe_cm5_charge
 _atom_site_pbe_ddec_charge
 _atom_site_pbe_ddec_spin_density
 _atom_site_pbe_ddec_sum_bond_order
 _atom_site_pbe_magmom
Zn  Zn0  1  0.49733831  0.40290157  0.50308751  1  1.316892  0  0.686328  0.895603  0  2.429981  0
Zn  Zn1  1  0.50025371  0.59590800  0.49628167  1  1.316778  0  0.68651  0.89585  0  2.430305  0
H  H2  1  0.90855628  0.58750202  0.38485616  1  0.106303  0  0.113428  0.129016  0  0.955045  0
H  H3  1  0.44485976  0.94075047  0.29508286  1  0.036243  0  0.100122  0.098933  0  0.98285  0
H  H4  1  0.48455642  0.83835382  0.34653736  1  0.071851  0  0.103206  0.105518  0  0.973137  0
H  H5  1  0.77278993  0.05865183  0.65207305  1  0.054908  0  0.08564  0.113026  0  1.021237  0
H  H6  1  0.74043898  0.16059556  0.59520291  1  0.034462  0  0.080765  0.111783  0  1.037506  0
H  H7  1  0.73417825  0.16125577  0.70466820  1  0.040308  0  0.09609  0.130214  0  0.98281  0
H  H8  1  0.52146891  0.16215730  0.65010946  1  0.067462  0  0.10294  0.104036  0  0.976368  0
H  H9  1  0.55230989  0.06053024  0.70495691  1  0.038987  0  0.099024  0.094064  0  0.984667  0
H  H10  1  0.74271498  0.81457656  0.56927751  1  0.054225  0  0.080716  0.108519  0  1.041491  0
H  H11  1  0.76757617  0.81400166  0.67694905  1  0.065866  0  0.087705  0.123863  0  1.006483  0
H  H12  1  0.79785804  0.91323420  0.61723291  1  0.041309  0  0.082037  0.109347  0  1.022971  0
H  H13  1  0.08927835  0.41214698  0.61535733  1  0.122034  0  0.11355  0.129551  0  0.954448  0
H  H14  1  0.59719056  0.92896148  0.69846956  1  0.074482  0  0.098786  0.097424  0  0.988231  0
H  H15  1  0.54277745  0.83185398  0.64950473  1  0.07353  0  0.104467  0.109267  0  0.963106  0
H  H16  1  0.58792967  0.17684054  0.33470634  1  0.050756  0  0.092133  0.125242  0  0.998807  0
H  H17  1  0.57495169  0.07611769  0.27598855  1  0.032091  0  0.085847  0.109423  0  1.009401  0
H  H18  1  0.48912553  0.17678796  0.24793270  1  0.063644  0  0.095667  0.129873  0  0.98517  0
H  H19  1  0.34954437  0.06837184  0.31957962  1  0.058453  0  0.100492  0.100258  0  0.98299  0
H  H20  1  0.36493023  0.16726147  0.37812842  1  0.055032  0  0.102229  0.103955  0  0.980032  0
H  H21  1  0.48298952  0.35021248  0.07310850  1  0.07711  0  0.108063  0.110528  0  0.987321  0
H  H22  1  0.51861938  0.64761548  0.92628289  1  0.057098  0  0.109202  0.112609  0  0.984284  0
H  H23  1  0.49135552  0.35621532  0.91892395  1  0.092513  0  0.109864  0.113287  0  0.982227  0
H  H24  1  0.51036381  0.64158908  0.08047092  1  0.102287  0  0.109845  0.11318  0  0.983222  0
H  H25  1  0.27260566  0.83294107  0.41062553  1  0.031104  0  0.082012  0.112957  0  1.037075  0
H  H26  1  0.23070938  0.93750627  0.36084884  1  0.02179  0  0.085655  0.111322  0  1.008789  0
H  H27  1  0.26502724  0.83867495  0.30134525  1  0.025039  0  0.095959  0.131661  0  0.981832  0
C  C28  1  0.49020660  0.49475703  0.33892633  1  1.721571  0  0.211608  0.658366  0  4.26606  0
C  C29  1  0.49579463  0.49558237  0.08682637  1  0.136556  0  0.00352  0.135075  0  4.108629  0
C  C30  1  0.26055129  0.51505960  0.50589393  1  1.642904  0  0.210487  0.601979  0  4.191853  0
C  C31  1  0.73729952  0.48461742  0.49385124  1  1.601827  0  0.209231  0.599998  0  4.193117  0
C  C32  1  0.48888919  0.49258573  0.24962756  1  -0.025431  0  -0.04853  -0.178086  0  3.979879  0
C  C33  1  0.51014309  0.50530259  0.74972596  1  0.201952  0  -0.048501  -0.178847  0  3.982503  0
C  C34  1  0.45899068  0.04913894  0.42858224  1  0.064584  0  0.013882  0.05501  0  3.899343  0
C  C35  1  0.55084962  0.94939305  0.57068319  1  0.012316  0  0.015459  0.05922  0  3.886152  0
C  C36  1  0.54112482  0.04466769  0.57371810  1  0.061388  0  0.01436  0.053069  0  3.892809  0
C  C37  1  0.46766462  0.95393085  0.42583787  1  -0.000662  0  0.014433  0.055337  0  3.899749  0
C  C38  1  0.49610008  0.09114349  0.50232644  1  0.079875  0  0.011096  -0.059046  0  4.050469  0
C  C39  1  0.50792265  0.50324148  0.66042762  1  1.688651  0  0.211479  0.658355  0  4.264748  0
C  C40  1  0.51215925  0.90744184  0.49714596  1  0.137011  0  0.010715  -0.059632  0  4.045187  0
C  C41  1  0.05173244  0.47212667  0.42856162  1  -0.140108  0  -0.035897  0.038565  0  3.554158  0
C  C42  1  0.94611016  0.52750969  0.57159007  1  -0.138549  0  -0.035603  0.038437  0  3.553409  0
C  C43  1  0.97720466  0.41000560  0.49007557  1  -0.144551  0  -0.037201  0.049273  0  3.537948  0
C  C44  1  0.02067765  0.58959714  0.51010647  1  -0.131702  0  -0.036892  0.047034  0  3.543084  0
C  C45  1  0.95024791  0.54881426  0.43595460  1  -0.008438  0  -0.075694  -0.097502  0  3.647279  0
C  C46  1  0.04763380  0.45083396  0.56424143  1  -0.02547  0  -0.075402  -0.096712  0  3.644549  0
C  C47  1  0.87480494  0.48712207  0.49605587  1  0.035725  0  -0.005481  -0.037522  0  3.6274  0
C  C48  1  0.12306130  0.51249224  0.50413730  1  -0.012561  0  -0.005613  -0.038416  0  3.629806  0
C  C49  1  0.48862702  0.18753534  0.50467965  1  0.784006  0  0.243906  0.317196  0  3.968992  0
C  C50  1  0.50880284  0.50496402  0.82507420  1  -0.566894  0  -0.03842  -0.063233  0  4.108837  0
C  C51  1  0.51545002  0.81102395  0.49519705  1  0.792445  0  0.246231  0.32256  0  3.963537  0
C  C52  1  0.42758697  0.90113760  0.35168385  1  -0.01643  0  -0.157064  -0.153752  0  3.97963  0
C  C53  1  0.29096062  0.87634922  0.35653019  1  -0.034742  0  -0.239645  -0.351599  0  3.941624  0
C  C54  1  0.57668589  0.09830539  0.64849227  1  -0.01584  0  -0.155941  -0.147155  0  3.977169  0
C  C55  1  0.71411879  0.12072405  0.65001556  1  -0.081827  0  -0.239534  -0.34718  0  3.933132  0
C  C56  1  0.60160517  0.89092459  0.64050663  1  -0.048107  0  -0.156561  -0.148394  0  3.962023  0
C  C57  1  0.73505400  0.85652944  0.62490134  1  -0.111551  0  -0.244986  -0.360249  0  3.953778  0
C  C58  1  0.41553203  0.10632661  0.35588562  1  -0.037646  0  -0.156433  -0.155893  0  3.977789  0
C  C59  1  0.52335187  0.13553620  0.30034585  1  -0.090316  0  -0.236403  -0.348318  0  3.93634  0
C  C60  1  0.49146848  0.49288222  0.17426756  1  -0.336288  0  -0.038028  -0.063234  0  4.108291  0
C  C61  1  0.49549078  0.41831029  0.95482421  1  -0.02157  0  -0.077907  -0.117148  0  3.956272  0
C  C62  1  0.50615080  0.57950605  0.04455415  1  -0.024631  0  -0.077918  -0.117066  0  3.958375  0
C  C63  1  0.49068062  0.41499999  0.04049836  1  -0.055756  0  -0.079209  -0.12019  0  3.961866  0
C  C64  1  0.51091187  0.58282331  0.95888506  1  -0.018239  0  -0.078615  -0.120257  0  3.962385  0
C  C65  1  0.50547681  0.50225381  0.91253760  1  0.104777  0  0.003444  0.135795  0  4.109161  0
I  I66  1  0.13562310  0.43149265  0.31634706  1  0.09467  0  0.040498  -0.050233  0  1.345735  0
I  I67  1  0.86205831  0.56805157  0.68386315  1  0.094936  0  0.050032  -0.043491  0  1.354473  0
I  I68  1  0.95050677  0.26943745  0.47503715  1  0.067902  0  0.020177  -0.082086  0  1.337163  0
I  I69  1  0.04770203  0.73010294  0.52512503  1  0.075209  0  0.039775  -0.06254  0  1.366857  0
N  N70  1  0.51583564  0.73219284  0.49340783  1  -1.171629  0  -0.283946  -0.298737  0  3.107097  0
N  N71  1  0.48372375  0.26643068  0.50618303  1  -1.135078  0  -0.283318  -0.299159  0  3.111084  0
O  O72  1  0.49206342  0.41822218  0.37658735  1  -1.143841  0  -0.316851  -0.55263  0  2.278855  0
O  O73  1  0.50351281  0.57978028  0.62284893  1  -1.139578  0  -0.317879  -0.554113  0  2.277665  0
O  O74  1  0.50985559  0.42453255  0.62824180  1  -1.135839  0  -0.317054  -0.545573  0  2.259019  0
O  O75  1  0.49023958  0.57343496  0.37104420  1  -1.144233  0  -0.317184  -0.545927  0  2.260398  0
O  O76  1  0.31288222  0.43678080  0.51091669  1  -1.158048  0  -0.315785  -0.549549  0  2.330879  0
O  O77  1  0.68513682  0.56303172  0.49021174  1  -1.162921  0  -0.315576  -0.549243  0  2.332883  0
O  O78  1  0.68698665  0.40817088  0.49762840  1  -1.144591  0  -0.309512  -0.53044  0  2.332875  0
O  O79  1  0.31072209  0.59146126  0.50024876  1  -1.157793  0  -0.310033  -0.532424  0  2.334692  0
