# generated using pymatgen
data_ZnH24C28(N3O2)2
_symmetry_space_group_name_H-M   'P 1'
_cell_length_a   7.87453492
_cell_length_b   8.01296251
_cell_length_c   20.31100000
_cell_angle_alpha   81.53131293
_cell_angle_beta   85.89327510
_cell_angle_gamma   86.62387490
_symmetry_Int_Tables_number   1
_chemical_formula_structural   ZnH24C28(N3O2)2
_chemical_formula_sum   'Zn2 H48 C56 N12 O8'
_cell_volume   1262.84312894
_cell_formula_units_Z   2
loop_
 _symmetry_equiv_pos_site_id
 _symmetry_equiv_pos_as_xyz
  1  'x, y, z'
loop_
 _atom_site_type_symbol
 _atom_site_label
 _atom_site_symmetry_multiplicity
 _atom_site_fract_x
 _atom_site_fract_y
 _atom_site_fract_z
 _atom_site_occupancy
 _atom_site_hle17_bader_spin_density
 _atom_site_hle17_ddec_charge
 _atom_site_hle17_ddec_spin_density
 _atom_site_hle17_ddec_sum_bond_order
 _atom_site_hle17_magmom
 _atom_site_hse06_10hf_bader_spin_density
 _atom_site_hse06_10hf_ddec_charge
 _atom_site_hse06_10hf_ddec_spin_density
 _atom_site_hse06_10hf_ddec_sum_bond_order
 _atom_site_hse06_10hf_magmom
 _atom_site_hse06_bader_spin_density
 _atom_site_hse06_ddec_charge
 _atom_site_hse06_ddec_spin_density
 _atom_site_hse06_ddec_sum_bond_order
 _atom_site_hse06_magmom
 _atom_site_pbe_bader_charge
 _atom_site_pbe_bader_spin_density
 _atom_site_pbe_cm5_charge
 _atom_site_pbe_ddec_charge
 _atom_site_pbe_ddec_spin_density
 _atom_site_pbe_ddec_sum_bond_order
 _atom_site_pbe_magmom
Zn  Zn0  1  0.76514437  0.77562839  0.75411222  1  0  0.986972  0  1.851731  0  0  0.791393  0  2.324585  0  0  0.840017  0  2.269442  0  1.243468  0  0.687481  0.75758  0  2.362257  0
Zn  Zn1  1  0.23485557  0.22437139  0.24588824  1  0  0.986933  0  1.851784  0  0  0.791345  0  2.324641  0  0  0.83997  0  2.2695  0  1.243419  0  0.687474  0.75753  0  2.362312  0
H  H2  1  0.36003902  0.72239492  0.43534703  1  0  0.257179  0  0.890561  0  0  0.24934  0  0.940073  0  0  0.255496  0  0.936409  0  0.443684  0  0.324022  0.244819  0  0.94298  0
H  H3  1  0.63996347  0.27760486  0.56465336  1  0  0.257165  0  0.890549  0  0  0.249319  0  0.940067  0  0  0.255474  0  0.936402  0  0.443665  0  0.324004  0.244797  0  0.942975  0
H  H4  1  0.85165871  0.35013452  0.10254362  1  0  0.281709  0  0.918612  0  0  0.264657  0  0.982733  0  0  0.272335  0  0.976854  0  0.502485  0  0.313225  0.259152  0  0.987  0
H  H5  1  0.14834111  0.64986778  0.89745620  1  0  0.281701  0  0.918582  0  0  0.264651  0  0.982707  0  0  0.272329  0  0.976828  0  0.502488  0  0.313215  0.259145  0  0.986974  0
H  H6  1  0.47022251  0.99327801  0.78416323  1  0  0.077114  0  0.945941  0  0  0.087682  0  1.008023  0  0  0.090489  0  1.005149  0  0.085176  0  0.115583  0.085607  0  1.010137  0
H  H7  1  0.52977476  0.00672429  0.21583617  1  0  0.077137  0  0.945875  0  0  0.087719  0  1.007934  0  0  0.090526  0  1.005062  0  0.085344  0  0.115593  0.085643  0  1.01005  0
H  H8  1  0.19120321  0.09704435  0.73613640  1  0  0.104328  0  0.967199  0  0  0.11353  0  1.028582  0  0  0.115801  0  1.029341  0  0.111628  0  0.107302  0.111879  0  1.02823  0
H  H9  1  0.80879558  0.90295291  0.26386325  1  0  0.10432  0  0.967144  0  0  0.113526  0  1.028528  0  0  0.115796  0  1.029287  0  0.111622  0  0.107302  0.111874  0  1.028175  0
H  H10  1  0.12975554  0.02772840  0.62544019  1  0  0.09699  0  0.937999  0  0  0.112011  0  0.991494  0  0  0.114541  0  0.989912  0  0.081007  0  0.109787  0.110128  0  0.992709  0
H  H11  1  0.87024581  0.97226885  0.37455939  1  0  0.09696  0  0.938019  0  0  0.111997  0  0.991491  0  0  0.114526  0  0.989912  0  0.080987  0  0.109796  0.110115  0  0.992707  0
H  H12  1  0.62012152  0.75499189  0.62056760  1  0  0.09212  0  0.985622  0  0  0.093024  0  1.061557  0  0  0.097066  0  1.057083  0  0.158913  0  0.115297  0.090088  0  1.06478  0
H  H13  1  0.37988230  0.24500662  0.37943381  1  0  0.092042  0  0.985682  0  0  0.092982  0  1.061593  0  0  0.097026  0  1.057114  0  0.15897  0  0.115261  0.090046  0  1.064817  0
H  H14  1  0.16754063  0.01414338  0.49333458  1  0  0.120549  0  0.947612  0  0  0.143757  0  1.007968  0  0  0.144874  0  1.00787  0  0.080036  0  0.098951  0.142949  0  1.008007  0
H  H15  1  0.83245695  0.98585261  0.50666666  1  0  0.120618  0  0.947599  0  0  0.143819  0  1.007963  0  0  0.144937  0  1.007861  0  0.079986  0  0.098953  0.14301  0  1.008003  0
H  H16  1  0.07432881  0.86099397  0.55557083  1  0  0.119752  0  0.951889  0  0  0.143436  0  1.008308  0  0  0.144335  0  1.008645  0  0.043353  0  0.099262  0.142724  0  1.008126  0
H  H17  1  0.92567138  0.13900076  0.44443041  1  0  0.119718  0  0.951968  0  0  0.143455  0  1.008328  0  0  0.144355  0  1.008661  0  0.043388  0  0.099238  0.142743  0  1.008147  0
H  H18  1  0.15512749  0.80242072  0.47864429  1  0  0.11087  0  0.962028  0  0  0.132874  0  1.021899  0  0  0.134958  0  1.020511  0  0.024291  0  0.097605  0.131301  0  1.022996  0
H  H19  1  0.84487264  0.19757527  0.52135687  1  0  0.110878  0  0.962023  0  0  0.132895  0  1.021882  0  0  0.134969  0  1.020503  0  0.024348  0  0.097599  0.131323  0  1.022977  0
H  H20  1  0.47423847  0.57601929  0.35035522  1  0  0.114429  0  0.968375  0  0  0.125817  0  1.028938  0  0  0.129545  0  1.026408  0  0.091223  0  0.104179  0.123141  0  1.03085  0
H  H21  1  0.52576250  0.42398555  0.64964491  1  0  0.114462  0  0.968405  0  0  0.12584  0  1.028973  0  0  0.129569  0  1.02644  0  0.091203  0  0.104191  0.123166  0  1.03088  0
H  H22  1  0.73213413  0.44592825  0.29382476  1  0  0.092822  0  0.957996  0  0  0.102438  0  1.022316  0  0  0.104783  0  1.02129  0  0.059414  0  0.101796  0.100757  0  1.023041  0
H  H23  1  0.26786321  0.55407280  0.70617422  1  0  0.092812  0  0.957984  0  0  0.102425  0  1.022308  0  0  0.104771  0  1.02128  0  0.059454  0  0.101792  0.100745  0  1.023033  0
H  H24  1  0.04225861  0.56923815  0.44276618  1  0  0.083619  0  0.982875  0  0  0.091507  0  1.051865  0  0  0.094642  0  1.049275  0  0.067327  0  0.094689  0.089245  0  1.053696  0
H  H25  1  0.95774140  0.43076037  0.55723386  1  0  0.083606  0  0.982926  0  0  0.091501  0  1.051911  0  0  0.094636  0  1.049322  0  0.067339  0  0.094688  0.089239  0  1.053742  0
H  H26  1  0.78474363  0.69274764  0.50191251  1  0  0.103563  0  0.971165  0  0  0.109283  0  1.040892  0  0  0.113011  0  1.038861  0  0.091957  0  0.100988  0.106668  0  1.042365  0
H  H27  1  0.21525638  0.30725088  0.49808654  1  0  0.103575  0  0.971117  0  0  0.109262  0  1.040882  0  0  0.112989  0  1.038857  0  0.091942  0  0.100973  0.106647  0  1.042355  0
H  H28  1  0.53657465  0.51525809  0.74091002  1  0  0.077744  0  0.980619  0  0  0.084672  0  1.05073  0  0  0.087097  0  1.048115  0  0.120289  0  0.114272  0.082951  0  1.052537  0
H  H29  1  0.46342529  0.48474169  0.25908945  1  0  0.077734  0  0.980637  0  0  0.084661  0  1.050747  0  0  0.087087  0  1.048132  0  0.1203  0  0.11428  0.082941  0  1.052554  0
H  H30  1  0.41929562  0.25552573  0.80843240  1  0  0.100203  0  0.954508  0  0  0.113297  0  1.010004  0  0  0.11534  0  1.010874  0  0.051961  0  0.108114  0.111797  0  1.009638  0
H  H31  1  0.58070305  0.74447405  0.19156711  1  0  0.100151  0  0.954587  0  0  0.113254  0  1.010078  0  0  0.115288  0  1.010959  0  0.051978  0  0.108106  0.111754  0  1.009712  0
H  H32  1  0.49129187  0.18080053  0.92704494  1  0  0.089166  0  0.95195  0  0  0.104413  0  1.00941  0  0  0.1066  0  1.008108  0  0.083952  0  0.105671  0.10272  0  1.010499  0
H  H33  1  0.50870934  0.81919925  0.07295499  1  0  0.089172  0  0.951946  0  0  0.104418  0  1.009406  0  0  0.106605  0  1.008103  0  0.083946  0  0.105673  0.102725  0  1.010494  0
H  H34  1  0.78132378  0.63041243  0.90068203  1  0  0.089478  0  0.982133  0  0  0.089154  0  1.06044  0  0  0.093304  0  1.055708  0  0.160666  0  0.116049  0.08609  0  1.063915  0
H  H35  1  0.21867744  0.36958735  0.09931740  1  0  0.089582  0  0.981996  0  0  0.089148  0  1.060406  0  0  0.093296  0  1.055675  0  0.160676  0  0.116066  0.086088  0  1.063872  0
H  H36  1  0.67723189  0.18957635  0.08690052  1  0  0.120986  0  0.953191  0  0  0.140861  0  1.013757  0  0  0.143607  0  1.011856  0  0.062489  0  0.099283  0.138886  0  1.015122  0
H  H37  1  0.32277060  0.81042343  0.91309937  1  0  0.120936  0  0.953127  0  0  0.140815  0  1.013703  0  0  0.14356  0  1.011805  0  0.062496  0  0.099251  0.138841  0  1.015068  0
H  H38  1  0.68228107  0.09451910  0.01331507  1  0  0.114973  0  0.952618  0  0  0.138344  0  1.01223  0  0  0.139095  0  1.012728  0  0.034078  0  0.095141  0.137793  0  1.011865  0
H  H39  1  0.31772270  0.90548068  0.98668479  1  0  0.114992  0  0.952537  0  0  0.138333  0  1.012193  0  0  0.139083  0  1.012692  0  0.034097  0  0.095135  0.137782  0  1.011828  0
H  H40  1  0.49314301  0.20320306  0.04026092  1  0  0.118324  0  0.938144  0  0  0.140098  0  0.999526  0  0  0.141295  0  0.999076  0  0.024532  0  0.097054  0.139241  0  0.999823  0
H  H41  1  0.50685820  0.79679672  0.95973852  1  0  0.118349  0  0.938208  0  0  0.140114  0  0.999583  0  0  0.141314  0  0.999129  0  0.024481  0  0.097051  0.139257  0  0.99988  0
H  H42  1  0.94596205  0.46747429  0.19346684  1  0  0.112635  0  0.979416  0  0  0.119449  0  1.046058  0  0  0.12355  0  1.043571  0  0.115718  0  0.102088  0.116532  0  1.047926  0
H  H43  1  0.05403663  0.53252549  0.80653267  1  0  0.112634  0  0.979395  0  0  0.119451  0  1.046029  0  0  0.123553  0  1.043544  0  0.115718  0  0.102093  0.116535  0  1.047896  0
H  H44  1  0.05850898  0.71400692  0.23431805  1  0  0.097987  0  0.948855  0  0  0.108104  0  1.010531  0  0  0.110763  0  1.008856  0  0.090317  0  0.101253  0.106185  0  1.011735  0
H  H45  1  0.94149103  0.28599160  0.76568149  1  0  0.0979  0  0.948865  0  0  0.108029  0  1.010545  0  0  0.110686  0  1.008868  0  0.090311  0  0.101232  0.106111  0  1.011747  0
H  H46  1  0.95074347  0.02507936  0.05033485  1  0  0.086742  0  0.987095  0  0  0.097303  0  1.051989  0  0  0.099695  0  1.050659  0  0.080159  0  0.097724  0.095555  0  1.052912  0
H  H47  1  0.04925895  0.97492168  0.94966497  1  0  0.086773  0  0.987115  0  0  0.097346  0  1.051979  0  0  0.099737  0  1.05065  0  0.080186  0  0.09774  0.095596  0  1.052904  0
H  H48  1  0.84839408  0.77562966  0.00609644  1  0  0.104197  0  0.967525  0  0  0.108331  0  1.039812  0  0  0.112554  0  1.036955  0  0.083367  0  0.1003  0.105331  0  1.041947  0
H  H49  1  0.15161089  0.22437139  0.99390282  1  0  0.104061  0  0.967639  0  0  0.108258  0  1.039863  0  0  0.112484  0  1.036997  0  0.083375  0  0.100257  0.105256  0  1.041998  0
C  C50  1  0.43714218  0.96617366  0.73576924  1  0  0.10345  0  3.710148  0  0  0.068154  0  3.963019  0  0  0.07631  0  3.978827  0  0.412155  0  0.034462  0.062914  0  3.952262  0
C  C51  1  0.56285891  0.03382865  0.26423153  1  0  0.103381  0  3.710122  0  0  0.06807  0  3.963005  0  0  0.07623  0  3.978812  0  0.412068  0  0.034379  0.06283  0  3.952246  0
C  C52  1  0.06997421  0.03978236  0.16773491  1  0  0.63497  0  3.944501  0  0  0.589496  0  4.232267  0  0  0.623992  0  4.225487  0  1.504076  0  0.193858  0.566092  0  4.236124  0
C  C53  1  0.93002695  0.96021868  0.83226544  1  0  0.635076  0  3.944573  0  0  0.589601  0  4.232334  0  0  0.624099  0  4.225552  0  1.504541  0  0.193885  0.566196  0  4.236191  0
C  C54  1  0.28398664  0.02306826  0.70868392  1  0  -0.097754  0  3.737894  0  0  -0.108742  0  3.990313  0  0  -0.114943  0  4.011142  0  0.043793  0  -0.080053  -0.105003  0  3.976541  0
C  C55  1  0.71601215  0.97692899  0.29131720  1  0  -0.097741  0  3.737909  0  0  -0.108739  0  3.990325  0  0  -0.114941  0  4.011151  0  0.043624  0  -0.080019  -0.104999  0  3.976554  0
C  C56  1  0.25066083  0.98407774  0.64634010  1  0  -0.019915  0  3.662712  0  0  -0.050643  0  3.913567  0  0  -0.045806  0  3.929148  0  -0.0502  0  -0.060254  -0.053559  0  3.903099  0
C  C57  1  0.74933930  0.01591825  0.35366057  1  0  -0.019834  0  3.662756  0  0  -0.050569  0  3.913612  0  0  -0.045732  0  3.929195  0  -0.049996  0  -0.060227  -0.053487  0  3.903148  0
C  C58  1  0.37324543  0.89048713  0.61141535  1  0  -0.024091  0  3.754994  0  0  -0.007407  0  3.99457  0  0  -0.011946  0  4.016766  0  0.026709  0  -0.00046  -0.004853  0  3.979671  0
C  C59  1  0.62675451  0.10951265  0.38858511  1  0  -0.024048  0  3.755005  0  0  -0.007375  0  3.99458  0  0  -0.011914  0  4.016775  0  0.026594  0  -0.000455  -0.004822  0  3.979681  0
C  C60  1  0.52400262  0.83599167  0.64316618  1  0  0.097743  0  3.653684  0  0  0.058076  0  3.903682  0  0  0.066177  0  3.918128  0  0.475707  0  0.051188  0.052483  0  3.894674  0
C  C61  1  0.47599987  0.16400811  0.35683322  1  0  0.097756  0  3.653774  0  0  0.058048  0  3.903764  0  0  0.066149  0  3.918214  0  0.475708  0  0.051195  0.052456  0  3.894754  0
C  C62  1  0.34762522  0.84341707  0.54574224  1  0  0.200173  0  3.735375  0  0  0.199346  0  4.006233  0  0  0.205696  0  4.024487  0  0.619727  0  0.117404  0.195399  0  3.99359  0
C  C63  1  0.65237599  0.15658271  0.45425769  1  0  0.200146  0  3.735408  0  0  0.199346  0  4.006249  0  0  0.205696  0  4.024503  0  0.619708  0  0.117404  0.195399  0  3.993604  0
C  C64  1  0.17785319  0.88127549  0.51664247  1  0  -0.362411  0  3.721832  0  0  -0.44694  0  3.959595  0  0  -0.449371  0  3.967838  0  -0.088714  0  -0.235478  -0.444938  0  3.953761  0
C  C65  1  0.82214561  0.11872176  0.48335916  1  0  -0.362468  0  3.721908  0  0  -0.447054  0  3.959641  0  0  -0.449477  0  3.967889  0  -0.088779  0  -0.235448  -0.445053  0  3.953807  0
C  C66  1  0.61574156  0.64628646  0.42820626  1  0  0.235145  0  3.824766  0  0  0.222177  0  4.080978  0  0  0.234551  0  4.100799  0  0.393658  0  0.101115  0.21413  0  4.067204  0
C  C67  1  0.38425947  0.35371711  0.57179394  1  0  0.235141  0  3.824747  0  0  0.22218  0  4.08092  0  0  0.234552  0  4.100744  0  0.393667  0  0.101154  0.214146  0  4.067132  0
C  C68  1  0.60027600  0.57664081  0.36944931  1  0  -0.1888  0  3.73487  0  0  -0.207954  0  3.9907  0  0  -0.216796  0  4.012314  0  -0.034648  0  -0.10246  -0.202082  0  3.975902  0
C  C69  1  0.39972503  0.42336276  0.63055040  1  0  -0.188882  0  3.734935  0  0  -0.208029  0  3.990759  0  0  -0.216872  0  4.012373  0  -0.034683  0  -0.102487  -0.202159  0  3.975958  0
C  C70  1  0.74303629  0.50381302  0.33853031  1  0  -0.052785  0  3.766436  0  0  -0.076416  0  4.017813  0  0  -0.073617  0  4.040561  0  -0.029709  0  -0.087245  -0.077775  0  4.002034  0
C  C71  1  0.25696226  0.49618929  0.66146905  1  0  -0.052819  0  3.76645  0  0  -0.076431  0  4.017826  0  0  -0.073632  0  4.040572  0  -0.029699  0  -0.087279  -0.077792  0  4.002048  0
C  C72  1  0.90384018  0.50187014  0.36448277  1  0  -0.09731  0  3.791192  0  0  -0.07419  0  4.021714  0  0  -0.087157  0  4.049232  0  -0.011631  0  -0.036476  -0.065895  0  4.003206  0
C  C73  1  0.09615977  0.49812964  0.63551670  1  0  -0.097171  0  3.791172  0  0  -0.074104  0  4.021747  0  0  -0.087067  0  4.04926  0  -0.011567  0  -0.036433  -0.065807  0  4.003238  0
C  C74  1  0.91709440  0.57305696  0.42281328  1  0  -0.067193  0  3.797129  0  0  -0.086485  0  4.039863  0  0  -0.083952  0  4.061667  0  -0.053432  0  -0.092676  -0.087691  0  4.024859  0
C  C75  1  0.08290554  0.42694282  0.57718669  1  0  -0.067272  0  3.797287  0  0  -0.086557  0  4.040028  0  0  -0.084026  0  4.061833  0  -0.053454  0  -0.092687  -0.087763  0  4.025022  0
C  C76  1  0.77542649  0.64243480  0.45545425  1  0  -0.185591  0  3.759316  0  0  -0.206614  0  4.020103  0  0  -0.214827  0  4.040873  0  -0.06245  0  -0.107148  -0.201289  0  4.006041  0
C  C77  1  0.22457333  0.35756750  0.54454557  1  0  -0.185514  0  3.759294  0  0  -0.206508  0  4.020072  0  0  -0.214722  0  4.040844  0  -0.062409  0  -0.107114  -0.201186  0  4.006006  0
C  C78  1  0.06006817  0.42264776  0.33359539  1  0  0.626869  0  3.946506  0  0  0.581004  0  4.236364  0  0  0.615343  0  4.230012  0  1.521069  0  0.193263  0.557717  0  4.239899  0
C  C79  1  0.93993056  0.57735076  0.66640419  1  0  0.626934  0  3.946494  0  0  0.58109  0  4.236335  0  0  0.615429  0  4.229981  0  1.520973  0  0.193338  0.557801  0  4.239872  0
C  C80  1  0.56045439  0.47985669  0.79326093  1  0  0.110288  0  3.698091  0  0  0.074207  0  3.952572  0  0  0.083248  0  3.967904  0  0.395479  0  0.035225  0.068136  0  3.942519  0
C  C81  1  0.43954295  0.52014435  0.20673904  1  0  0.110311  0  3.698038  0  0  0.074229  0  3.952529  0  0  0.08327  0  3.967857  0  0.395492  0  0.035216  0.068159  0  3.942474  0
C  C82  1  0.49925721  0.33482137  0.83093516  1  0  -0.097177  0  3.750246  0  0  -0.110749  0  4.006726  0  0  -0.116606  0  4.026388  0  -0.01095  0  -0.080957  -0.107205  0  3.993692  0
C  C83  1  0.50073879  0.66518093  0.16906477  1  0  -0.097081  0  3.750283  0  0  -0.110663  0  4.00676  0  0  -0.116514  0  4.026424  0  -0.010948  0  -0.080928  -0.10712  0  3.993727  0
C  C84  1  0.53942218  0.29455519  0.89724978  1  0  -0.033282  0  3.673346  0  0  -0.064311  0  3.923945  0  0  -0.059617  0  3.94005  0  0.020943  0  -0.06613  -0.067072  0  3.913091  0
C  C85  1  0.46057643  0.70544586  0.10275015  1  0  -0.033318  0  3.673417  0  0  -0.064363  0  3.924005  0  0  -0.059668  0  3.940108  0  0.020933  0  -0.066142  -0.067125  0  3.91315  0
C  C86  1  0.63906694  0.40210222  0.92525063  1  0  -0.023166  0  3.749166  0  0  -0.003778  0  3.983976  0  0  -0.008799  0  4.007517  0  0.002534  0  -4e-06  -0.001003  0  3.968292  0
C  C87  1  0.36093167  0.59789883  0.07474930  1  0  -0.023181  0  3.749228  0  0  -0.003737  0  3.983926  0  0  -0.00876  0  4.00747  0  0.00266  0  1e-06  -0.000961  0  3.968242  0
C  C88  1  0.69745505  0.54567848  0.88305599  1  0  0.107273  0  3.654244  0  0  0.06795  0  3.903706  0  0  0.075981  0  3.919398  0  0.482381  0  0.054935  0.062834  0  3.893138  0
C  C89  1  0.30254617  0.45432130  0.11694247  1  0  0.107182  0  3.654148  0  0  0.06794  0  3.903603  0  0  0.075971  0  3.919293  0  0.482193  0  0.054943  0.062821  0  3.893038  0
C  C90  1  0.68638296  0.36663387  0.99473671  1  0  0.196707  0  3.733945  0  0  0.195681  0  4.005983  0  0  0.201418  0  4.025018  0  0.609775  0  0.11588  0.192152  0  3.992883  0
C  C91  1  0.31361953  0.63336591  0.00526269  1  0  0.196839  0  3.733786  0  0  0.195815  0  4.005773  0  0  0.201553  0  4.024808  0  0.609785  0  0.115927  0.192284  0  3.992675  0
C  C92  1  0.63341201  0.20509036  0.03630350  1  0  -0.364261  0  3.715864  0  0  -0.446148  0  3.952305  0  0  -0.448185  0  3.95907  0  -0.042105  0  -0.237839  -0.444467  0  3.947465  0
C  C93  1  0.36659430  0.79490942  0.96369580  1  0  -0.364292  0  3.715688  0  0  -0.446168  0  3.952161  0  0  -0.448205  0  3.958922  0  -0.042112  0  -0.237822  -0.444487  0  3.947321  0
C  C94  1  0.88877179  0.60633609  0.09725622  1  0  0.23514  0  3.81144  0  0  0.222297  0  4.063465  0  0  0.234516  0  4.084381  0  0.34279  0  0.103104  0.21441  0  4.048895  0
C  C95  1  0.11122809  0.39366495  0.90274367  1  0  0.235116  0  3.811456  0  0  0.222288  0  4.063469  0  0  0.234506  0  4.084387  0  0.342771  0  0.103126  0.214402  0  4.048898  0
C  C96  1  0.94758406  0.58980516  0.16189220  1  0  -0.189907  0  3.738036  0  0  -0.206032  0  3.993715  0  0  -0.215401  0  4.015717  0  -0.031867  0  -0.104323  -0.199866  0  3.978736  0
C  C97  1  0.05241588  0.41019461  0.83810776  1  0  -0.189899  0  3.738006  0  0  -0.206024  0  3.993688  0  0  -0.215396  0  4.01569  0  -0.031857  0  -0.104322  -0.199859  0  3.978708  0
C  C98  1  0.00972499  0.72802650  0.18479498  1  0  -0.053482  0  3.759762  0  0  -0.078231  0  4.012599  0  0  -0.07478  0  4.034138  0  -0.070034  0  -0.089849  -0.080067  0  3.997718  0
C  C99  1  0.99027374  0.27197202  0.81520559  1  0  -0.053359  0  3.75962  0  0  -0.078129  0  4.012474  0  0  -0.074672  0  4.03401  0  -0.070024  0  -0.08983  -0.079966  0  3.997594  0
C  C100  1  0.00958968  0.88682370  0.14489424  1  0  -0.11231  0  3.817758  0  0  -0.091598  0  4.055333  0  0  -0.104991  0  4.082776  0  0.01365  0  -0.042547  -0.082925  0  4.036743  0
C  C101  1  0.99040772  0.11317608  0.85510727  1  0  -0.112401  0  3.817875  0  0  -0.091678  0  4.055455  0  0  -0.105072  0  4.082899  0  0.013617  0  -0.042576  -0.083002  0  4.036859  0
C  C102  1  0.94918716  0.90171745  0.08092478  1  0  -0.071301  0  3.805912  0  0  -0.091394  0  4.048738  0  0  -0.088972  0  4.071737  0  -0.032253  0  -0.095237  -0.092488  0  4.032847  0
C  C103  1  0.05081145  0.09828360  0.91907564  1  0  -0.071286  0  3.805982  0  0  -0.091391  0  4.048827  0  0  -0.088969  0  4.071828  0  -0.032251  0  -0.095236  -0.092485  0  4.032935  0
C  C104  1  0.89113523  0.76439681  0.05645006  1  0  -0.186728  0  3.758955  0  0  -0.206483  0  4.019584  0  0  -0.215002  0  4.040292  0  -0.075061  0  -0.108717  -0.200963  0  4.00553  0
C  C105  1  0.10886465  0.23560423  0.94354934  1  0  -0.186629  0  3.759035  0  0  -0.206435  0  4.019641  0  0  -0.214952  0  4.040351  0  -0.075056  0  -0.108679  -0.200914  0  4.005586  0
N  N106  1  0.55474102  0.87235061  0.70334835  1  0  -0.331369  0  3.33711  0  0  -0.244089  0  3.614361  0  0  -0.263232  0  3.628155  0  -1.275134  0  -0.333836  -0.23119  0  3.604717  0
N  N107  1  0.44526007  0.12765170  0.29665144  1  0  -0.331353  0  3.337116  0  0  -0.244056  0  3.614356  0  0  -0.263205  0  3.628156  0  -1.275179  0  -0.333823  -0.231157  0  3.604712  0
N  N108  1  0.48002654  0.77278481  0.51683402  1  0  -0.192213  0  3.139484  0  0  -0.17985  0  3.42357  0  0  -0.184463  0  3.442156  0  -0.702193  0  -0.198364  -0.176709  0  3.410676  0
N  N109  1  0.51997704  0.22721876  0.48316514  1  0  -0.192213  0  3.139436  0  0  -0.179879  0  3.423521  0  0  -0.184491  0  3.442106  0  -0.702164  0  -0.198405  -0.176736  0  3.410627  0
N  N110  1  0.47214691  0.72007559  0.45798579  1  0  -0.218593  0  3.480794  0  0  -0.166221  0  3.728787  0  0  -0.186008  0  3.748191  0  -0.791157  0  -0.285736  -0.152679  0  3.715224  0
N  N111  1  0.52785418  0.27992672  0.54201351  1  0  -0.218576  0  3.480752  0  0  -0.166179  0  3.728716  0  0  -0.185963  0  3.748118  0  -0.791136  0  -0.285724  -0.152643  0  3.715155  0
N  N112  1  0.65859251  0.58347374  0.81927208  1  0  -0.338452  0  3.342965  0  0  -0.24954  0  3.622044  0  0  -0.269704  0  3.636471  0  -1.26601  0  -0.334761  -0.23602  0  3.612102  0
N  N113  1  0.34140623  0.41652477  0.18072750  1  0  -0.338454  0  3.342943  0  0  -0.249539  0  3.621981  0  0  -0.269698  0  3.636402  0  -1.265968  0  -0.33477  -0.236019  0  3.612042  0
N  N114  1  0.76667923  0.48545669  0.01489970  1  0  -0.192022  0  3.129025  0  0  -0.180351  0  3.412729  0  0  -0.184163  0  3.431222  0  -0.714226  0  -0.199604  -0.1778  0  3.399966  0
N  N115  1  0.23332199  0.51454309  0.98510023  1  0  -0.192157  0  3.129009  0  0  -0.180488  0  3.412713  0  0  -0.1843  0  3.431205  0  -0.714227  0  -0.19966  -0.177936  0  3.399952  0
N  N116  1  0.82480065  0.46742249  0.07583540  1  0  -0.235312  0  3.444329  0  0  -0.176527  0  3.686612  0  0  -0.198463  0  3.706761  0  -0.797851  0  -0.286161  -0.161512  0  3.672516  0
N  N117  1  0.17520184  0.53257729  0.92416400  1  0  -0.235212  0  3.444266  0  0  -0.176446  0  3.686561  0  0  -0.198382  0  3.706713  0  -0.797862  0  -0.286135  -0.161431  0  3.672464  0
O  O118  1  0.03331969  0.31293678  0.29449194  1  0  -0.648064  0  2.050596  0  0  -0.570738  0  2.322523  0  0  -0.599634  0  2.306907  0  -1.165105  0  -0.337551  -0.550436  0  2.332364  0
O  O119  1  0.96667777  0.68706174  0.70550767  1  0  -0.648125  0  2.050621  0  0  -0.570804  0  2.322542  0  0  -0.5997  0  2.306922  0  -1.165109  0  -0.337603  -0.550509  0  2.3324  0
O  O120  1  0.20493050  0.46120729  0.34672892  1  0  -0.631101  0  1.923426  0  0  -0.588368  0  2.152834  0  0  -0.610856  0  2.14245  0  -1.189073  0  -0.333172  -0.572515  0  2.159403  0
O  O121  1  0.79506703  0.53878996  0.65327175  1  0  -0.631153  0  1.923462  0  0  -0.588409  0  2.15285  0  0  -0.610897  0  2.142466  0  -1.189104  0  -0.333204  -0.572556  0  2.15942  0
O  O122  1  0.17513163  0.01429244  0.21501314  1  0  -0.648963  0  2.021217  0  0  -0.574479  0  2.284023  0  0  -0.603285  0  2.268741  0  -1.158457  0  -0.342902  -0.554349  0  2.293769  0
O  O123  1  0.82486965  0.98570607  0.78498735  1  0  -0.649039  0  2.021299  0  0  -0.57455  0  2.284093  0  0  -0.603359  0  2.268814  0  -1.15889  0  -0.342933  -0.55442  0  2.293841  0
O  O124  1  0.02029870  0.18499580  0.14089394  1  0  -0.638617  0  1.953335  0  0  -0.588847  0  2.183472  0  0  -0.611411  0  2.172693  0  -1.203613  0  -0.327591  -0.572989  0  2.190337  0
O  O125  1  0.97970252  0.81500398  0.85910648  1  0  -0.638659  0  1.953289  0  0  -0.588905  0  2.183439  0  0  -0.611469  0  2.17266  0  -1.203645  0  -0.327608  -0.57305  0  2.190314  0
