# generated using pymatgen
data_Zn4H8C40N6O25
_symmetry_space_group_name_H-M   'P 1'
_cell_length_a   19.61510068
_cell_length_b   19.61335767
_cell_length_c   29.26134116
_cell_angle_alpha   70.41523736
_cell_angle_beta   70.41163908
_cell_angle_gamma   90.01983454
_symmetry_Int_Tables_number   1
_chemical_formula_structural   Zn4H8C40N6O25
_chemical_formula_sum   'Zn8 H16 C80 N12 O50'
_cell_volume   9911.35930917
_cell_formula_units_Z   2
loop_
 _symmetry_equiv_pos_site_id
 _symmetry_equiv_pos_as_xyz
  1  'x, y, z'
loop_
 _atom_site_type_symbol
 _atom_site_label
 _atom_site_symmetry_multiplicity
 _atom_site_fract_x
 _atom_site_fract_y
 _atom_site_fract_z
 _atom_site_occupancy
 _atom_site_pbe_bader_charge
 _atom_site_pbe_bader_spin_density
 _atom_site_pbe_cm5_charge
 _atom_site_pbe_ddec_charge
 _atom_site_pbe_ddec_spin_density
 _atom_site_pbe_ddec_sum_bond_order
 _atom_site_pbe_magmom
Zn  Zn0  1  0.69062112  0.27195264  0.45548391  1  1.318679  0  0.680695  0.967952  0  2.362011  0
Zn  Zn1  1  0.30939812  0.72738298  0.54449667  1  1.318097  0  0.68049  0.967631  0  2.36169  0
Zn  Zn2  1  0.27184464  0.85393562  0.45540746  1  1.320273  0  0.680849  0.968213  0  2.362609  0
Zn  Zn3  1  0.72740523  0.14605470  0.54457925  1  1.320551  0  0.680838  0.967903  0  2.362365  0
Zn  Zn4  1  0.85392891  0.27258779  0.45541931  1  1.320252  0  0.680917  0.96804  0  2.362426  0
Zn  Zn5  1  0.14605848  0.72813687  0.54459722  1  1.320283  0  0.680844  0.968143  0  2.36291  0
Zn  Zn6  1  0.27260575  0.69057599  0.45551882  1  1.318137  0  0.680443  0.967588  0  2.361604  0
Zn  Zn7  1  0.72802767  0.30937184  0.54451136  1  1.318943  0  0.680605  0.967721  0  2.362281  0
H  H8  1  0.02550939  0.35268487  0.95095372  1  0.118205  0  0.124251  0.129399  0  0.969135  0
H  H9  1  0.97604033  0.64737543  0.04904021  1  0.125122  0  0.12402  0.129173  0  0.969619  0
H  H10  1  0.35268408  0.02325654  0.95097554  1  0.123633  0  0.124098  0.129399  0  0.969228  0
H  H11  1  0.64736229  0.97513114  0.04902814  1  0.12648  0  0.123957  0.129203  0  0.969577  0
H  H12  1  0.02345782  0.69643980  0.95091135  1  0.109444  0  0.123668  0.129019  0  0.968193  0
H  H13  1  0.97491776  0.30362824  0.04907529  1  0.109494  0  0.123938  0.128863  0  0.968854  0
H  H14  1  0.69640026  0.02577391  0.95090765  1  0.122547  0  0.123654  0.12864  0  0.968272  0
H  H15  1  0.30361458  0.97583186  0.04909856  1  0.108927  0  0.123941  0.129116  0  0.968747  0
H  H16  1  0.96102275  0.37141448  0.29464951  1  0.1655  0  0.131502  0.147792  0  0.970927  0
H  H17  1  0.25580680  0.62856224  0.70539740  1  0.156605  0  0.131809  0.148013  0  0.972289  0
H  H18  1  0.37176220  0.74422547  0.29459937  1  0.152027  0  0.131798  0.147879  0  0.972709  0
H  H19  1  0.62881803  0.03889812  0.70536310  1  0.166417  0  0.131325  0.147571  0  0.970497  0
H  H20  1  0.74417371  0.33413677  0.29462174  1  0.143694  0  0.131692  0.147972  0  0.971726  0
H  H21  1  0.03904425  0.66599277  0.70529465  1  0.162931  0  0.131339  0.147618  0  0.970514  0
H  H22  1  0.33367896  0.96087889  0.29471893  1  0.164569  0  0.131303  0.147565  0  0.970303  0
H  H23  1  0.66557339  0.25586959  0.70536898  1  0.148256  0  0.131636  0.148065  0  0.972025  0
C  C24  1  0.01415464  0.38938152  0.97276424  1  -0.097408  0  -0.052837  -0.059484  0  3.910147  0
C  C25  1  0.98660098  0.61069163  0.02721610  1  -0.112514  0  -0.052873  -0.059279  0  3.909654  0
C  C26  1  0.38936203  0.01288648  0.97279310  1  -0.110527  0  -0.053103  -0.059958  0  3.91039  0
C  C27  1  0.61066434  0.98631187  0.02722094  1  -0.115521  0  -0.052517  -0.059463  0  3.910796  0
C  C28  1  0.01307097  0.63793032  0.97273778  1  0.095202  0  -0.052094  -0.058925  0  3.907136  0
C  C29  1  0.98621385  0.36214090  0.02724642  1  0.070797  0  -0.052296  -0.058504  0  3.906578  0
C  C30  1  0.63789668  0.01425967  0.97274041  1  0.085637  0  -0.051575  -0.05792  0  3.906808  0
C  C31  1  0.36212671  0.98641526  0.02727148  1  0.09819  0  -0.052382  -0.059079  0  3.907401  0
C  C32  1  0.95017366  0.39955928  0.22008850  1  0.127009  0  0.097446  0.0259  0  3.860992  0
C  C33  1  0.17027226  0.60051531  0.77993365  1  0.235457  0  0.097131  0.025225  0  3.858782  0
C  C34  1  0.39973296  0.82974278  0.22007221  1  0.234104  0  0.096843  0.024938  0  3.859457  0
C  C35  1  0.60057446  0.04979547  0.77991983  1  0.127741  0  0.097229  0.024792  0  3.860868  0
C  C36  1  0.82972080  0.38045719  0.22007238  1  0.175564  0  0.097034  0.024736  0  3.859908  0
C  C37  1  0.04983827  0.61963103  0.77988259  1  0.211831  0  0.097274  0.02536  0  3.86169  0
C  C38  1  0.38019666  0.95011270  0.22012496  1  0.242262  0  0.097513  0.026026  0  3.861603  0
C  C39  1  0.61935907  0.17031880  0.77992332  1  0.17666  0  0.096842  0.024596  0  3.860197  0
C  C40  1  0.90421332  0.40424969  0.19158726  1  0.512512  0  0.130162  0.145136  0  3.960278  0
C  C41  1  0.09578644  0.59584915  0.80839856  1  0.449647  0  0.130508  0.147036  0  3.959454  0
C  C42  1  0.40420227  0.90419884  0.19160890  1  0.420509  0  0.129822  0.144562  0  3.961077  0
C  C43  1  0.59574241  0.09579918  0.80841215  1  0.512455  0  0.130191  0.146352  0  3.959951  0
C  C44  1  0.67949603  0.17970738  0.64068127  1  1.540645  0  0.235584  0.608203  0  4.167024  0
C  C45  1  0.32037223  0.82022903  0.35933749  1  1.550198  0  0.235785  0.607619  0  4.166655  0
C  C46  1  0.17974305  0.67960458  0.64067228  1  1.552299  0  0.235639  0.607904  0  4.1668  0
C  C47  1  0.82026872  0.32046381  0.35931971  1  1.53973  0  0.235677  0.608389  0  4.166483  0
C  C48  1  0.62042128  0.37957633  0.49999394  1  1.664157  0  0.238297  0.669492  0  4.24284  0
C  C49  1  0.38001117  0.61996771  0.50000334  1  1.677841  0  0.240904  0.671477  0  4.241474  0
C  C50  1  0.37952725  0.87969774  0.49985808  1  1.667066  0  0.239093  0.668686  0  4.245401  0
C  C51  1  0.62007061  0.11992156  0.50004790  1  1.675722  0  0.239067  0.669532  0  4.244685  0
C  C52  1  0.87955898  0.12042456  0.49999189  1  1.69899  0  0.238867  0.670928  0  4.244036  0
C  C53  1  0.11995461  0.88002868  0.50000990  1  1.719072  0  0.240165  0.670905  0  4.245993  0
C  C54  1  0.12029119  0.62046174  0.50013914  1  1.666556  0  0.238994  0.668636  0  4.245025  0
C  C55  1  0.88006301  0.37991602  0.49995611  1  1.675327  0  0.239013  0.669658  0  4.244115  0
C  C56  1  0.92367588  0.37333536  0.27401573  1  0.18208  0  -0.048075  -0.094338  0  3.882922  0
C  C57  1  0.19780696  0.62671859  0.72599695  1  0.105909  0  -0.048555  -0.094981  0  3.885529  0
C  C58  1  0.37347996  0.80220427  0.27400480  1  0.11044  0  -0.048121  -0.094582  0  3.885857  0
C  C59  1  0.62676285  0.07627931  0.72599452  1  0.181414  0  -0.047643  -0.093417  0  3.881635  0
C  C60  1  0.80219016  0.35283589  0.27400719  1  0.094245  0  -0.04841  -0.09458  0  3.885296  0
C  C61  1  0.07635218  0.64727745  0.72595884  1  0.043447  0  -0.047589  -0.093703  0  3.882939  0
C  C62  1  0.35254072  0.92359614  0.27405040  1  0.041979  0  -0.047386  -0.093592  0  3.882323  0
C  C63  1  0.64696664  0.19783789  0.72598891  1  0.090026  0  -0.047956  -0.094901  0  3.886493  0
C  C64  1  0.56815871  0.06807815  0.50006228  1  0.182077  0  -0.001648  -0.133708  0  3.846652  0
C  C65  1  0.43142005  0.93154157  0.49984894  1  0.153938  0  -0.001249  -0.132915  0  3.847126  0
C  C66  1  0.06810371  0.93187011  0.50000816  1  0.179536  0  -0.001862  -0.134028  0  3.846634  0
C  C67  1  0.93141369  0.06857126  0.49999040  1  0.159109  0  -0.001043  -0.133545  0  3.8466  0
C  C68  1  0.93190070  0.43183163  0.49994285  1  0.182429  0  -0.001628  -0.133586  0  3.846955  0
C  C69  1  0.06844585  0.56857219  0.50014412  1  0.155116  0  -0.00131  -0.133134  0  3.847129  0
C  C70  1  0.43185606  0.56812466  0.50000152  1  0.182955  0  -0.001749  -0.134288  0  3.846528  0
C  C71  1  0.56856002  0.43142651  0.49999775  1  0.162187  0  -0.001316  -0.133416  0  3.846414  0
C  C72  1  0.52407944  0.02406356  0.50002023  1  -0.312777  0  0.005245  0.043044  0  4.215378  0
C  C73  1  0.47547159  0.97550785  0.49996220  1  -0.175875  0  0.004455  0.042583  0  4.215732  0
C  C74  1  0.02404787  0.97592058  0.50000082  1  -0.33015  0  0.005688  0.043868  0  4.213447  0
C  C75  1  0.97545807  0.02451769  0.49999311  1  -0.197364  0  0.004121  0.042403  0  4.213965  0
C  C76  1  0.97592212  0.47591291  0.49997700  1  -0.312834  0  0.005313  0.043069  0  4.215849  0
C  C77  1  0.02447780  0.52452073  0.50003342  1  -0.176598  0  0.004612  0.042806  0  4.215796  0
C  C78  1  0.47591189  0.52406626  0.49999949  1  -0.332744  0  0.005854  0.044106  0  4.213245  0
C  C79  1  0.52451020  0.47546976  0.49999847  1  -0.198885  0  0.004278  0.04229  0  4.21418  0
C  C80  1  0.84933944  0.34953258  0.30117143  1  0.016857  0  0.000596  -0.008667  0  3.946099  0
C  C81  1  0.15067780  0.65055574  0.69882213  1  0.048856  0  8.9e-05  -0.009676  0  3.947163  0
C  C82  1  0.34943475  0.84929744  0.30118574  1  0.048478  0  -0.000106  -0.009009  0  3.946272  0
C  C83  1  0.65040021  0.15065167  0.69883051  1  0.016598  0  0.000289  -0.009028  0  3.946789  0
C  C84  1  0.05410348  0.62026497  0.88816890  1  1.41701  0  0.248233  0.456112  0  4.087865  0
C  C85  1  0.94247874  0.37980522  0.11181956  1  1.331644  0  0.248292  0.453824  0  4.090755  0
C  C86  1  0.62020589  0.05783465  0.88816887  1  1.328045  0  0.248324  0.455011  0  4.089934  0
C  C87  1  0.37978969  0.94561482  0.11183771  1  1.412812  0  0.248182  0.454817  0  4.088799  0
C  C88  1  0.05770255  0.49164152  0.88817085  1  1.301538  0  0.249111  0.456553  0  4.08469  0
C  C89  1  0.94583643  0.50844365  0.11179859  1  1.434184  0  0.248439  0.455774  0  4.085427  0
C  C90  1  0.49159067  0.05388831  0.88820560  1  1.435795  0  0.248905  0.456768  0  4.08506  0
C  C91  1  0.50841713  0.94253116  0.11182289  1  1.338382  0  0.248575  0.455839  0  4.085882  0
C  C92  1  0.02779420  0.46415346  0.94551639  1  0.07542  0  0.00488  -0.044499  0  3.952  0
C  C93  1  0.97322392  0.53591866  0.05445433  1  -0.012694  0  0.005646  -0.045163  0  3.949438  0
C  C94  1  0.46412406  0.02649965  0.94554990  1  -0.029649  0  0.005537  -0.045174  0  3.949677  0
C  C95  1  0.53590063  0.97243670  0.05447623  1  0.081615  0  0.004838  -0.045165  0  3.952036  0
C  C96  1  0.02668056  0.59039634  0.94551263  1  -0.074997  0  0.005405  -0.044413  0  3.948964  0
C  C97  1  0.97245198  0.40967008  0.05447299  1  0.038633  0  0.005525  -0.044912  0  3.948928  0
C  C98  1  0.59036687  0.02779756  0.94551630  1  0.011642  0  0.005372  -0.044769  0  3.949402  0
C  C99  1  0.40965874  0.97305295  0.05449350  1  -0.077051  0  0.005154  -0.043957  0  3.947477  0
C  C100  1  0.01385367  0.51386241  0.97233778  1  0.073083  0  0.012835  0.037283  0  3.970211  0
C  C101  1  0.98624267  0.48620611  0.02763847  1  -0.06627  0  0.012429  0.040304  0  3.968188  0
C  C102  1  0.51383747  0.01372695  0.97236077  1  -0.04971  0  0.012591  0.039358  0  3.967316  0
C  C103  1  0.48619068  0.98612413  0.02766342  1  0.075802  0  0.012724  0.038584  0  3.968446  0
N  N104  1  0.06805625  0.56814522  0.86379620  1  -1.186278  0  -0.239822  -0.247533  0  3.680415  0
N  N105  1  0.93195169  0.43193766  0.13618612  1  -1.227949  0  -0.240065  -0.245772  0  3.680785  0
N  N106  1  0.56807826  0.06807062  0.86381033  1  -1.22633  0  -0.240079  -0.24736  0  3.681547  0
N  N107  1  0.43191445  0.93193977  0.13620740  1  -1.218888  0  -0.239791  -0.245938  0  3.681281  0
N  N108  1  0.02988858  0.42294759  0.19388043  1  0.401731  0  0.065837  0.524748  0  4.193707  0
N  N109  1  0.22367786  0.57703479  0.80619478  1  0.415859  0  0.065556  0.523873  0  4.197273  0
N  N110  1  0.42347818  0.77637461  0.19381020  1  0.406  0  0.066163  0.525852  0  4.193637  0
N  N111  1  0.57744580  0.97002799  0.80613445  1  0.408052  0  0.066036  0.525536  0  4.1937  0
N  N112  1  0.77631030  0.38312692  0.19381805  1  0.406247  0  0.066371  0.52562  0  4.193243  0
N  N113  1  0.97012819  0.61687018  0.80607555  1  0.406752  0  0.065417  0.524608  0  4.193057  0
N  N114  1  0.38272462  0.02978460  0.19393780  1  0.432976  0  0.06625  0.524707  0  4.190926  0
N  N115  1  0.61653221  0.22376423  0.80617527  1  0.40599  0  0.066609  0.526356  0  4.195138  0
O  O116  1  0.75001442  0.24997167  0.49999667  1  -1.230955  0  -0.56847  -1.039019  0  2.524852  0
O  O117  1  0.24996407  0.75002567  0.50000509  1  -1.231511  0  -0.568232  -1.03875  0  2.524574  0
O  O118  1  0.68857953  0.13260087  0.61866301  1  -1.163907  0  -0.304521  -0.531406  0  2.329646  0
O  O119  1  0.30715022  0.86733285  0.38134674  1  -1.159566  0  -0.304851  -0.531182  0  2.33186  0
O  O120  1  0.13265012  0.69279137  0.61865893  1  -1.158667  0  -0.30482  -0.531362  0  2.33176  0
O  O121  1  0.86736253  0.31143602  0.38134167  1  -1.163393  0  -0.304561  -0.531571  0  2.329601  0
O  O122  1  0.69248524  0.24883336  0.61860992  1  -1.156981  0  -0.305005  -0.53209  0  2.330399  0
O  O123  1  0.31156572  0.75111576  0.38141628  1  -1.170603  0  -0.304723  -0.531602  0  2.328851  0
O  O124  1  0.24885412  0.68844244  0.61859400  1  -1.173194  0  -0.304531  -0.531343  0  2.328744  0
O  O125  1  0.75114748  0.30744464  0.38138474  1  -1.157016  0  -0.305123  -0.532214  0  2.330096  0
O  O126  1  0.65287415  0.37168207  0.53227104  1  -1.129123  0  -0.300633  -0.525961  0  2.277306  0
O  O127  1  0.34646234  0.62681054  0.46847740  1  -1.12416  0  -0.301782  -0.526791  0  2.275867  0
O  O128  1  0.37153746  0.81498286  0.53220013  1  -1.14578  0  -0.301272  -0.526201  0  2.277934  0
O  O129  1  0.62699313  0.18499154  0.46847160  1  -1.141871  0  -0.300959  -0.526008  0  2.278041  0
O  O130  1  0.81488115  0.09608404  0.53241137  1  -1.14647  0  -0.300975  -0.526789  0  2.277868  0
O  O131  1  0.18493535  0.90462912  0.46823072  1  -1.143884  0  -0.301187  -0.526589  0  2.278402  0
O  O132  1  0.09593476  0.65288102  0.53244333  1  -1.127402  0  -0.300664  -0.52543  0  2.277572  0
O  O133  1  0.90476371  0.34642192  0.46839326  1  -1.124518  0  -0.300786  -0.525629  0  2.276652  0
O  O134  1  0.34711653  0.90405106  0.46755314  1  -1.127538  0  -0.300735  -0.525554  0  2.2777  0
O  O135  1  0.65357154  0.09522481  0.53160278  1  -1.124496  0  -0.300681  -0.525488  0  2.276928  0
O  O136  1  0.62832259  0.34712200  0.46771406  1  -1.129678  0  -0.30063  -0.526208  0  2.277218  0
O  O137  1  0.37316054  0.65352165  0.53152970  1  -1.123768  0  -0.301706  -0.526774  0  2.275725  0
O  O138  1  0.18500884  0.62844519  0.46780226  1  -1.145644  0  -0.301276  -0.526223  0  2.277742  0
O  O139  1  0.81499396  0.37298565  0.53153373  1  -1.142433  0  -0.300953  -0.526184  0  2.277725  0
O  O140  1  0.90389464  0.18510715  0.46757421  1  -1.145751  0  -0.300905  -0.526749  0  2.277694  0
O  O141  1  0.09536407  0.81504404  0.53178973  1  -1.143869  0  -0.301307  -0.526591  0  2.278106  0
O  O142  1  0.06452867  0.68557590  0.86189038  1  -1.100494  0  -0.273791  -0.431625  0  2.050287  0
O  O143  1  0.92661673  0.31449718  0.13811110  1  -1.099902  0  -0.274045  -0.430737  0  2.05144  0
O  O144  1  0.68549510  0.07399127  0.86187217  1  -1.098858  0  -0.273859  -0.430884  0  2.050126  0
O  O145  1  0.31447215  0.93495811  0.13812184  1  -1.098884  0  -0.273609  -0.431292  0  2.050198  0
O  O146  1  0.07364860  0.45262894  0.86189293  1  -1.09016  0  -0.274188  -0.431502  0  2.048015  0
O  O147  1  0.93538232  0.54749058  0.13806092  1  -1.089689  0  -0.273831  -0.431366  0  2.048349  0
O  O148  1  0.45255483  0.06411431  0.86194642  1  -1.091382  0  -0.274306  -0.431643  0  2.04819  0
O  O149  1  0.54744418  0.92678399  0.13809572  1  -1.090844  0  -0.273759  -0.431262  0  2.048416  0
O  O150  1  0.06039620  0.41540992  0.15169907  1  -0.426202  0  -0.12179  -0.313914  0  1.889492  0
O  O151  1  0.06023259  0.44736668  0.21699391  1  -0.415889  0  -0.120286  -0.31157  0  1.850443  0
O  O152  1  0.21199070  0.58461809  0.84836464  1  -0.427756  0  -0.121836  -0.313511  0  1.889416  0
O  O153  1  0.27705867  0.55248198  0.78313823  1  -0.425837  0  -0.1197  -0.310795  0  1.853931  0
O  O154  1  0.41594284  0.78793977  0.15163968  1  -0.422691  0  -0.122144  -0.314267  0  1.888005  0
O  O155  1  0.44819271  0.72313885  0.21687145  1  -0.420631  0  -0.11969  -0.311307  0  1.851876  0
O  O156  1  0.58502687  0.93964585  0.84831340  1  -0.426382  0  -0.12233  -0.314515  0  1.889094  0
O  O157  1  0.55318083  0.93952530  0.78303656  1  -0.423987  0  -0.119881  -0.311434  0  1.851495  0
O  O158  1  0.78796036  0.43288064  0.15164760  1  -0.420084  0  -0.122288  -0.314354  0  1.888225  0
O  O159  1  0.72297985  0.33541556  0.21688147  1  -0.426947  0  -0.119841  -0.311116  0  1.851741  0
O  O160  1  0.93954854  0.56714554  0.84825893  1  -0.420664  0  -0.122221  -0.314059  0  1.887833  0
O  O161  1  0.93987019  0.66446313  0.78294369  1  -0.426365  0  -0.119662  -0.311371  0  1.851269  0
O  O162  1  0.43239689  0.06046292  0.15174581  1  -0.442678  0  -0.122543  -0.31433  0  1.88762  0
O  O163  1  0.33500080  0.05992199  0.21707897  1  -0.430395  0  -0.120066  -0.311196  0  1.849783  0
O  O164  1  0.56673943  0.21207246  0.84833416  1  -0.422043  0  -0.122224  -0.314286  0  1.889279  0
O  O165  1  0.66416725  0.27716054  0.78312020  1  -0.425177  0  -0.120214  -0.311863  0  1.852047  0
