# generated using pymatgen
data_CoH18C22(NO)4
_symmetry_space_group_name_H-M   'P 1'
_cell_length_a   10.33878335
_cell_length_b   10.43936981
_cell_length_c   10.73491773
_cell_angle_alpha   84.03937466
_cell_angle_beta   61.21262289
_cell_angle_gamma   77.54451938
_symmetry_Int_Tables_number   1
_chemical_formula_structural   CoH18C22(NO)4
_chemical_formula_sum   'Co2 H36 C44 N8 O8'
_cell_volume   991.53336710
_cell_formula_units_Z   2
loop_
 _symmetry_equiv_pos_site_id
 _symmetry_equiv_pos_as_xyz
  1  'x, y, z'
loop_
 _atom_site_type_symbol
 _atom_site_label
 _atom_site_symmetry_multiplicity
 _atom_site_fract_x
 _atom_site_fract_y
 _atom_site_fract_z
 _atom_site_occupancy
 _atom_site_hle17_ddec_charge
 _atom_site_hle17_ddec_spin_density
 _atom_site_hle17_ddec_sum_bond_order
 _atom_site_hle17_magmom
 _atom_site_hse06_10hf_ddec_charge
 _atom_site_hse06_10hf_ddec_spin_density
 _atom_site_hse06_10hf_ddec_sum_bond_order
 _atom_site_hse06_10hf_magmom
 _atom_site_hse06_ddec_charge
 _atom_site_hse06_ddec_spin_density
 _atom_site_hse06_ddec_sum_bond_order
 _atom_site_hse06_magmom
 _atom_site_pbe_cm5_charge
 _atom_site_pbe_ddec_charge
 _atom_site_pbe_ddec_spin_density
 _atom_site_pbe_ddec_sum_bond_order
 _atom_site_pbe_magmom
Co  Co0  1  0.39805959  0.08729183  0.39872425  1  0.936424  2.816054  2.0128  2.534  0.880348  2.823855  2.456506  2.593  0.973708  2.870228  2.369427  2.682  0.667294  0.806954  2.778169  2.522499  2.509
Co  Co1  1  0.79679894  0.58727448  0.60128854  1  0.936135  2.816025  2.012913  2.534  0.880279  2.823862  2.456573  2.593  0.97361  2.870226  2.369505  2.682  0.667268  0.806866  2.778161  2.522563  2.509
H  H2  1  0.08954692  0.22364988  0.37166015  1  0.119413  -0.000153  0.946323  0.0  0.127068  9e-06  1.009818  0.0  0.130555  -4.1e-05  1.005669  0.0  0.137248  0.123987  6.4e-05  1.013447  0.0
H  H3  1  0.46122763  0.72363902  0.62834763  1  0.119352  -0.000153  0.946246  0.0  0.126979  9e-06  1.009757  0.0  0.130488  -4.1e-05  1.005584  0.0  0.137256  0.123897  6.5e-05  1.013386  0.0
H  H4  1  0.21377098  0.87009939  0.55029036  1  0.106906  0.00017  0.980588  0.001  0.113945  0.000288  1.045117  0.001  0.116607  0.000198  1.043383  0.001  0.117702  0.112099  0.000379  1.04638  0.001
H  H5  1  0.76408634  0.37008462  0.44972020  1  0.106893  0.00017  0.980637  0.001  0.113941  0.000288  1.045154  0.001  0.11661  0.000198  1.043409  0.001  0.117656  0.112089  0.000379  1.046417  0.001
H  H6  1  0.95943214  0.85593052  0.52307394  1  0.134716  -4.7e-05  0.973858  0.0  0.14095  -6e-05  1.038335  0.0  0.144667  -0.000124  1.035717  0.0  0.124491  0.137812  1.2e-05  1.041046  0.0
H  H7  1  0.48252706  0.35590588  0.47695062  1  0.134613  -4.6e-05  0.973892  0.0  0.140847  -6e-05  1.03839  0.0  0.144568  -0.000124  1.035769  0.0  0.124378  0.137714  1.1e-05  1.041091  0.0
H  H8  1  0.78837580  0.17402490  0.46689697  1  0.085297  -5.3e-05  0.935905  0.0  0.100726  4.3e-05  0.999483  0.0  0.101422  1.5e-05  0.999329  0.0  0.111808  0.099854  2.2e-05  0.999975  0.0
H  H9  1  0.25531133  0.67401349  0.53308996  1  0.085324  -5.1e-05  0.935957  0.0  0.100721  4.3e-05  0.99949  0.0  0.101419  1.5e-05  0.999343  0.0  0.111791  0.099852  2.2e-05  0.99998  0.0
H  H10  1  0.79943985  0.00605689  0.45003416  1  0.106855  0.000137  0.958363  0.0  0.120682  0.000131  1.021482  0.0  0.122888  5.8e-05  1.019747  0.0  0.116414  0.118978  0.000186  1.022746  0.0
H  H11  1  0.24951062  0.50604478  0.54994724  1  0.107042  0.000137  0.958108  0.0  0.120728  0.000131  1.02134  0.0  0.122937  5.8e-05  1.019603  0.0  0.116515  0.119033  0.000186  1.02261  0.0
H  H12  1  0.72848864  0.26267603  0.28036431  1  0.092968  -8.4e-05  0.967233  0.0  0.105428  -9.5e-05  1.027941  0.0  0.107625  -0.000104  1.027925  0.0  0.100416  0.103615  -8.7e-05  1.028515  0.0
H  H13  1  0.00885267  0.76266114  0.71962153  1  0.092995  -8.2e-05  0.967138  0.0  0.10544  -9.5e-05  1.02785  0.0  0.107652  -0.000104  1.027816  0.0  0.100464  0.103628  -8.7e-05  1.028423  0.0
H  H14  1  0.80875127  0.29699467  0.02541693  1  0.087649  -2.2e-05  0.974531  0.0  0.097964  -2.7e-05  1.036704  0.0  0.100818  -2.5e-05  1.035261  0.0  0.098636  0.095966  -2.3e-05  1.037723  0.0
H  H15  1  0.83414960  0.79697860  0.97456785  1  0.087735  -2.3e-05  0.974515  0.0  0.098118  -2.7e-05  1.03661  0.0  0.100972  -2.5e-05  1.035168  0.0  0.098742  0.09612  -2.3e-05  1.037632  0.0
H  H16  1  0.18768006  0.98010552  0.92476139  1  0.100854  -6e-06  0.953815  0.0  0.111964  -1.1e-05  1.012599  0.0  0.114983  -1.7e-05  1.011576  0.0  0.101776  0.109621  -3e-06  1.013494  0.0
H  H17  1  0.11244382  0.48012426  0.07522972  1  0.100837  -7e-06  0.953766  0.0  0.111892  -1.1e-05  1.012626  0.0  0.114906  -1.7e-05  1.011591  0.0  0.101765  0.10955  -3e-06  1.013516  0.0
H  H18  1  0.11340212  0.95218251  0.18092500  1  0.088386  -1e-05  0.966396  0.0  0.101246  6e-06  1.025903  0.0  0.103753  4e-06  1.02518  0.0  0.098378  0.099353  9e-06  1.026645  0.0
H  H19  1  0.29433950  0.45219778  0.81906767  1  0.088413  -9e-06  0.966308  0.0  0.101184  5e-06  1.025915  0.0  0.103736  4e-06  1.025141  0.0  0.09839  0.099291  9e-06  1.026656  0.0
H  H20  1  0.15735562  0.20637917  0.74934198  1  0.093532  -0.000229  0.915761  0.0  0.110023  -0.000156  0.977156  0.0  0.110513  -0.000146  0.976872  0.0  0.120447  0.109514  -0.000129  0.977484  0.0
H  H21  1  0.90670364  0.70638377  0.25064250  1  0.093458  -0.000233  0.915815  0.0  0.109957  -0.000156  0.97723  0.0  0.110441  -0.000146  0.976949  0.0  0.120463  0.10945  -0.000129  0.97756  0.0
H  H22  1  0.09291437  0.06535463  0.74578647  1  0.099037  -8.2e-05  0.92816  0.0  0.112567  -2.9e-05  0.99137  0.0  0.113455  -5e-05  0.991125  0.0  0.116903  0.112138  1.8e-05  0.991173  0.0
H  H23  1  0.83868194  0.56537085  0.25420256  1  0.099088  -8.3e-05  0.928069  0.0  0.112634  -2.9e-05  0.991285  0.0  0.113515  -5e-05  0.991038  0.0  0.11695  0.112192  1.8e-05  0.991096  0.0
H  H24  1  0.04306587  0.41604711  0.68537718  1  0.104008  -1.9e-05  0.948341  0.0  0.112532  9.4e-05  1.013169  0.0  0.114813  4.4e-05  1.010407  0.0  0.139396  0.110577  0.000126  1.015596  0.0
H  H25  1  0.72844531  0.91607953  0.31460424  1  0.104003  -1.7e-05  0.948505  0.0  0.112593  9.4e-05  1.013281  0.0  0.114879  4.4e-05  1.010514  0.0  0.13943  0.110654  0.000126  1.015668  0.0
H  H26  1  0.78393868  0.11759977  0.82762073  1  0.115806  0.000291  0.963969  0.0  0.127255  0.000269  1.022068  0.0  0.129374  0.0002  1.022079  0.0  0.121526  0.125711  0.000356  1.022168  0.0
H  H27  1  0.61155239  0.61761879  0.17238316  1  0.115759  0.000289  0.96407  0.0  0.127223  0.000269  1.022143  0.0  0.129333  0.0002  1.022172  0.0  0.121527  0.12569  0.000356  1.022215  0.0
H  H28  1  0.63433402  0.33450173  0.74529627  1  0.099547  1.8e-05  0.971331  0.0  0.108252  0.000177  1.032866  0.0  0.10962  0.000114  1.034116  0.0  0.114831  0.107159  0.000255  1.032402  0.001
H  H29  1  0.37960668  0.83451946  0.25473043  1  0.099447  1.9e-05  0.971088  0.0  0.108182  0.000177  1.032617  0.0  0.109551  0.000114  1.033866  0.0  0.114791  0.10709  0.000256  1.032152  0.001
H  H30  1  0.13440489  0.74219156  0.21137485  1  0.084184  -2.3e-05  0.971121  0.0  0.093022  3e-05  1.037492  0.0  0.096103  4e-06  1.035986  0.0  0.097088  0.090779  5e-05  1.038761  0.0
H  H31  1  0.34577253  0.24218240  0.78862536  1  0.084191  -2.6e-05  0.97101  0.0  0.093068  3e-05  1.037343  0.0  0.096148  4e-06  1.03584  0.0  0.097144  0.090825  5e-05  1.038617  0.0
H  H32  1  0.37192723  0.76484865  0.98975214  1  0.092682  -2e-05  0.946819  0.0  0.104666  -3.6e-05  1.003513  0.0  0.107307  -3.8e-05  1.002741  0.0  0.102251  0.102655  -3e-05  1.004319  0.0
H  H33  1  0.36165322  0.26485301  0.01025392  1  0.092647  -1.9e-05  0.946706  0.0  0.104589  -3.6e-05  1.003437  0.0  0.107234  -3.8e-05  1.002665  0.0  0.10223  0.102578  -3e-05  1.004242  0.0
H  H34  1  0.59208488  0.58343263  0.91357531  1  0.103692  -0.000518  0.993208  0.0  0.108335  -0.00019  1.06253  0.0  0.111875  -0.000215  1.060574  0.0  0.099345  0.105733  3.1e-05  1.064014  0.0
H  H35  1  0.50564467  0.08344059  0.08641931  1  0.103778  -0.000521  0.993287  0.0  0.108367  -0.000189  1.062659  0.0  0.111903  -0.000215  1.060708  0.0  0.099352  0.10573  3.1e-05  1.064181  0.0
H  H36  1  0.57758286  0.37911948  0.06169410  1  0.09271  0.000178  0.971497  0.0  0.100886  0.000121  1.037486  0.0  0.104135  5.7e-05  1.035843  0.0  0.099371  0.098757  0.000178  1.03835  0.0
H  H37  1  0.63926629  0.87911957  0.93830835  1  0.092773  0.00018  0.971509  0.0  0.100912  0.000121  1.037541  0.0  0.104159  5.7e-05  1.035894  0.0  0.099396  0.098782  0.000178  1.038408  0.0
C  C38  1  0.09253348  0.12443929  0.41449484  1  0.174725  -0.001312  3.58615  0.0  0.116999  0.00393  3.852821  0.005  0.133005  0.003352  3.865363  0.005  0.147205  0.105937  0.004133  3.844542  0.006
C  C39  1  0.50704933  0.62442754  0.58551119  1  0.174614  -0.001302  3.586143  0.0  0.116945  0.003929  3.852837  0.005  0.132924  0.00335  3.865375  0.005  0.147051  0.105882  0.004132  3.844558  0.006
C  C40  1  0.15019384  0.93906820  0.50814088  1  -0.027827  -0.004362  3.790372  -0.003  -0.059423  0.000316  4.068427  0.001  -0.056767  -8.6e-05  4.088313  0.001  -0.011109  -0.061628  0.000836  4.055017  0.002
C  C41  1  0.65836679  0.43905242  0.49187062  1  -0.027893  -0.004372  3.790128  -0.003  -0.0595  0.000316  4.068152  0.001  -0.056841  -8.4e-05  4.088039  0.001  -0.011117  -0.0617  0.000836  4.054737  0.002
C  C42  1  0.02387739  0.93279040  0.49886550  1  -0.071737  0.003317  3.665232  0.004  -0.110985  0.001585  3.92149  0.002  -0.108879  0.001051  3.93808  0.002  -0.00102  -0.112759  0.002287  3.911794  0.003
C  C43  1  0.52276980  0.43277083  0.50114659  1  -0.071535  0.003322  3.664352  0.004  -0.110743  0.001586  3.920558  0.002  -0.108649  0.001051  3.93714  0.002  -0.00079  -0.112515  0.002289  3.910862  0.003
C  C44  1  0.86399792  0.08576220  0.40684671  1  -0.050709  0.000717  3.634205  0.001  -0.118987  0.000621  3.882542  0.001  -0.114831  0.000428  3.892014  0.001  -0.048606  -0.121485  0.000836  3.876053  0.001
C  C45  1  0.27087268  0.58575586  0.59314389  1  -0.051004  0.000716  3.634016  0.001  -0.119082  0.000621  3.882241  0.001  -0.114934  0.000429  3.891712  0.001  -0.048696  -0.121606  0.000836  3.875786  0.001
C  C46  1  0.91508610  0.10521612  0.24959550  1  0.062295  -0.000444  3.7623  0.0  0.080819  -0.000187  4.005767  0.0  0.079898  -0.000167  4.030641  0.0  -0.016785  0.081555  -2.5e-05  3.988784  0.0
C  C47  1  0.16468484  0.60521568  0.75039028  1  0.061937  -0.000403  3.762248  0.0  0.080476  -0.000191  4.005579  0.0  0.079542  -0.000169  4.030483  0.0  -0.01698  0.081221  -2.5e-05  3.988591  0.0
C  C48  1  0.83056910  0.20129037  0.20329632  1  -0.107219  8.6e-05  3.750404  0.0  -0.125912  7e-06  3.99358  0.0  -0.12851  -3.3e-05  4.01553  0.0  -0.091607  -0.124284  8.5e-05  3.979262  0.0
C  C49  1  0.03386439  0.70127610  0.79669141  1  -0.106968  6.3e-05  3.750551  0.0  -0.125651  8e-06  3.993742  0.0  -0.128257  -3.1e-05  4.015689  0.0  -0.091521  -0.124022  8.5e-05  3.979414  0.0
C  C50  1  0.87535754  0.21988781  0.05865541  1  -0.112937  -0.00021  3.770233  0.0  -0.133561  -5.4e-05  4.016563  0.0  -0.135549  -6.1e-05  4.037684  0.0  -0.095816  -0.132385  -1e-06  4.002043  0.0
C  C51  1  0.93399955  0.71987502  0.94132692  1  -0.113168  -0.000166  3.770258  0.0  -0.133894  -5.5e-05  4.016527  0.0  -0.135887  -6.2e-05  4.03766  0.0  -0.09593  -0.132722  -1e-06  4.00202  0.0
C  C52  1  0.00385254  0.14107300  0.95696476  1  0.060368  0.000196  3.755521  0.0  0.079997  0.000147  3.993392  0.0  0.078822  0.000106  4.018203  0.0  -0.01521  0.081347  0.000194  3.975793  0.0
C  C53  1  0.96081407  0.64106927  0.04302241  1  0.060355  0.000178  3.755333  0.0  0.080157  0.000147  3.992983  0.0  0.078975  0.000106  4.017787  0.0  -0.015154  0.081504  0.000194  3.975383  0.0
C  C54  1  0.08738703  0.04281532  0.00303304  1  -0.109213  -0.00018  3.753727  0.0  -0.125268  -5.1e-05  3.996116  0.0  -0.128104  -5.9e-05  4.018985  0.0  -0.091214  -0.123058  4.3e-05  3.980077  0.0
C  C55  1  0.09041891  0.54282255  0.99695419  1  -0.109341  -0.000156  3.75394  0.0  -0.125409  -5.2e-05  3.996311  0.0  -0.128234  -5.8e-05  4.019184  0.0  -0.091314  -0.123202  4.3e-05  3.98028  0.0
C  C56  1  0.04431960  0.02635097  0.14738358  1  -0.123729  0.000125  3.765511  0.0  -0.146205  7.3e-05  4.01574  0.0  -0.149259  5.5e-05  4.038458  0.0  -0.097873  -0.143982  9.3e-05  4.000026  0.0
C  C57  1  0.19170811  0.52635434  0.85261196  1  -0.123495  0.000112  3.765298  0.0  -0.145919  7.5e-05  4.015524  0.0  -0.149003  5.5e-05  4.038223  0.0  -0.097819  -0.143697  9.3e-05  3.999801  0.0
C  C58  1  0.05767486  0.16034561  0.79906801  1  -0.038789  0.000406  3.642247  0.001  -0.106677  0.000391  3.892797  0.001  -0.101982  0.000268  3.903153  0.0  -0.040842  -0.109745  0.000544  3.885558  0.001
C  C59  1  0.85673635  0.66035887  0.20091500  1  -0.038806  0.000413  3.642111  0.001  -0.106803  0.000392  3.892761  0.001  -0.102084  0.000269  3.903086  0.0  -0.04092  -0.109866  0.000544  3.885534  0.001
C  C60  1  0.94965363  0.36777571  0.71471493  1  0.187144  -0.009383  3.616186  -0.006  0.128071  0.000655  3.884388  0.001  0.14488  0.000414  3.896301  0.001  0.151777  0.116194  0.000866  3.876656  0.002
C  C61  1  0.66436063  0.86780295  0.28528455  1  0.186808  -0.009411  3.616756  -0.006  0.127674  0.000655  3.884903  0.001  0.144476  0.000415  3.896819  0.001  0.151556  0.115799  0.000865  3.877184  0.002
C  C62  1  0.81421420  0.21169526  0.78563507  1  -0.061238  0.00269  3.670811  0.004  -0.102133  0.001105  3.926716  0.002  -0.100286  0.000748  3.945196  0.001  0.00168  -0.103752  0.0015  3.915467  0.002
C  C63  1  0.59983625  0.71171609  0.21437100  1  -0.061385  0.002723  3.671407  0.004  -0.102286  0.001103  3.92733  0.002  -0.100437  0.000744  3.945808  0.001  0.001704  -0.103906  0.0015  3.916073  0.002
C  C64  1  0.74118643  0.32015224  0.74522898  1  -0.004649  -0.003175  3.755091  -0.002  -0.032588  0.000776  4.024717  0.002  -0.030361  0.000476  4.046862  0.001  -0.003217  -0.034941  0.000943  4.010941  0.002
C  C65  1  0.48641136  0.82016616  0.25478111  1  -0.004381  -0.003239  3.754985  -0.002  -0.032346  0.000777  4.02459  0.002  -0.03012  0.00048  4.04673  0.001  -0.003087  -0.034697  0.000943  4.010815  0.002
C  C66  1  0.35051320  0.44817217  0.21986185  1  -0.08137  0.004162  3.752227  0.006  -0.066114  0.002392  3.980546  0.003  -0.072559  0.001575  4.001008  0.002  -0.017929  -0.062099  0.003116  3.967649  0.004
C  C67  1  0.57037187  0.94816708  0.78013597  1  -0.08165  0.004207  3.752621  0.006  -0.066352  0.002391  3.980913  0.003  -0.072796  0.001575  4.001373  0.002  -0.018019  -0.062336  0.003115  3.968019  0.004
C  C68  1  0.22329817  0.54938377  0.26018480  1  -0.049728  0.000784  3.723744  0.002  -0.032803  0.000725  3.951155  0.001  -0.035415  -3.6e-05  3.969747  0.0  -0.007563  -0.031338  0.001288  3.939131  0.002
C  C69  1  0.48348684  0.04936973  0.73980501  1  -0.049535  0.000719  3.723636  0.002  -0.032629  0.000724  3.951044  0.001  -0.035248  -3.6e-05  3.969647  0.0  -0.007509  -0.031162  0.001289  3.939018  0.002
C  C70  1  0.23319520  0.66378418  0.17813356  1  -0.100808  0.001886  3.76048  0.002  -0.123046  0.001134  4.011791  0.001  -0.125705  0.000795  4.032355  0.001  -0.091306  -0.121201  0.001535  3.997865  0.002
C  C71  1  0.41132608  0.16378268  0.82187170  1  -0.100773  0.001929  3.760287  0.003  -0.123052  0.001134  4.011569  0.001  -0.12571  0.000796  4.032138  0.001  -0.091278  -0.121212  0.001536  3.997647  0.002
C  C72  1  0.36532098  0.67591894  0.05384701  1  -0.048447  -0.003049  3.750949  -0.002  -0.06222  -0.000688  4.001348  0.0  -0.062265  -0.000768  4.021306  0.0  -0.084997  -0.061996  -0.000325  3.987639  0.0
C  C73  1  0.41916033  0.17591108  0.94615335  1  -0.048484  -0.003143  3.751684  -0.002  -0.062157  -0.000687  4.002005  0.0  -0.062212  -0.000766  4.021975  0.0  -0.085086  -0.061929  -0.000325  3.988282  0.0
C  C74  1  0.48945900  0.57304497  0.01040418  1  -0.081431  0.001984  3.76282  0.003  -0.096769  0.001165  4.01554  0.001  -0.099728  0.000794  4.03599  0.001  -0.095664  -0.094533  0.001603  4.001429  0.002
C  C75  1  0.49984465  0.07306153  0.98960224  1  -0.081557  0.002037  3.762955  0.003  -0.096899  0.001165  4.015668  0.001  -0.099854  0.000794  4.036114  0.001  -0.095677  -0.094632  0.001605  4.001582  0.002
C  C76  1  0.48174402  0.46028055  0.09352749  1  -0.082485  -0.001833  3.755543  -0.001  -0.103095  0.000187  4.002685  0.0  -0.102903  -9.8e-05  4.021911  0.0  -0.088964  -0.103251  0.000378  3.989609  0.0
C  C77  1  0.57526844  0.96027510  0.90646567  1  -0.082439  -0.001942  3.755169  -0.001  -0.103021  0.000187  4.002296  0.0  -0.102825  -9.9e-05  4.021513  0.0  -0.088935  -0.103178  0.000378  3.989214  0.0
C  C78  1  0.34928178  0.33157575  0.31321280  1  0.621401  -0.007357  3.920923  -0.007  0.577722  0.000986  4.217795  0.0  0.6135  0.000371  4.213901  0.0  0.199084  0.552192  0.001358  4.219407  0.0
C  C79  1  0.66248745  0.83155687  0.68678640  1  0.621479  -0.007363  3.920823  -0.007  0.577782  0.000987  4.217714  0.0  0.613559  0.000374  4.213816  0.0  0.199031  0.552249  0.001361  4.219335  0.0
C  C80  1  0.07078920  0.53181834  0.37571659  1  0.63854  -0.006709  3.930822  -0.006  0.589161  0.000979  4.241546  0.0  0.626005  0.000704  4.234772  0.0  0.200772  0.562755  0.001384  4.244839  0.0
C  C81  1  0.44647964  0.03182136  0.62429539  1  0.638528  -0.006693  3.930716  -0.006  0.58917  0.000977  4.241401  0.0  0.626011  0.000701  4.234624  0.0  0.200813  0.562769  0.001385  4.244694  0.0
N  N82  1  0.19295744  0.05804328  0.45409246  1  -0.385381  0.037231  3.361409  0.056  -0.340277  0.027228  3.685353  0.032  -0.370914  0.021158  3.699981  0.023  -0.369342  -0.317304  0.03306  3.674767  0.039
N  N83  1  0.64707143  0.55802577  0.54590992  1  -0.385256  0.037233  3.361684  0.056  -0.340209  0.027231  3.68565  0.032  -0.370847  0.02116  3.7003  0.023  -0.369332  -0.317226  0.033065  3.675056  0.039
N  N84  1  0.98896912  0.05059468  0.43981969  1  -0.05514  0.000686  3.574309  0.001  0.040362  0.001388  3.789767  0.002  0.025717  0.000979  3.81512  0.001  -0.240379  0.049942  0.001854  3.77273  0.003
N  N85  1  0.42881234  0.55058772  0.56018978  1  -0.054978  0.000684  3.574011  0.001  0.040442  0.001388  3.789474  0.002  0.025806  0.000979  3.814833  0.001  -0.240294  0.050024  0.001853  3.772442  0.003
N  N86  1  0.94602822  0.24345304  0.76542161  1  -0.056051  0.001046  3.584104  0.002  0.037623  0.00147  3.80151  0.003  0.023077  0.001112  3.82618  0.002  -0.240894  0.047113  0.001909  3.785445  0.003
N  N87  1  0.71144179  0.74347429  0.23457520  1  -0.055638  0.001043  3.583935  0.002  0.038046  0.00147  3.801354  0.003  0.023497  0.001112  3.826021  0.002  -0.240867  0.047534  0.00191  3.78529  0.003
N  N88  1  0.82719373  0.41706141  0.70042712  1  -0.38071  0.03884  3.330444  0.062  -0.33346  0.029148  3.642397  0.038  -0.363294  0.023476  3.655937  0.03  -0.362874  -0.311651  0.034115  3.633884  0.044
N  N89  1  0.52761424  0.91708507  0.29958077  1  -0.380738  0.038854  3.330573  0.062  -0.333438  0.029153  3.642489  0.038  -0.36328  0.02348  3.656035  0.03  -0.362852  -0.311636  0.034118  3.63398  0.044
O  O90  1  0.44401879  0.22533866  0.25216146  1  -0.614268  0.055432  2.05787  0.094  -0.574081  0.040348  2.33285  0.063  -0.617164  0.029898  2.323087  0.047  -0.323793  -0.539755  0.050144  2.337535  0.077
O  O91  1  0.69617575  0.72532118  0.74785482  1  -0.614235  0.055449  2.057635  0.095  -0.574127  0.040355  2.332731  0.063  -0.617217  0.029903  2.32296  0.047  -0.323781  -0.539796  0.050155  2.337423  0.077
O  O92  1  0.26235881  0.33815885  0.44511628  1  -0.611097  0.011189  1.955005  0.02  -0.574084  0.012273  2.195541  0.021  -0.602669  0.008761  2.188852  0.016  -0.306452  -0.552373  0.016039  2.199132  0.027
O  O93  1  0.70746864  0.83812356  0.55489712  1  -0.610907  0.011185  1.955187  0.02  -0.574047  0.012268  2.195985  0.021  -0.602584  0.008758  2.189208  0.016  -0.306345  -0.552339  0.016032  2.199576  0.027
O  O94  1  0.01295003  0.44280611  0.36392935  1  -0.613911  0.007399  1.908544  0.013  -0.576446  0.008831  2.141392  0.015  -0.604494  0.006302  2.134055  0.011  -0.313486  -0.554371  0.011848  2.145257  0.019
O  O95  1  0.37682511  0.94282811  0.63610228  1  -0.613992  0.00739  1.908367  0.013  -0.576523  0.008827  2.141204  0.015  -0.604574  0.0063  2.133874  0.011  -0.313592  -0.55445  0.011843  2.145074  0.019
O  O96  1  0.00064607  0.61920946  0.47586261  1  -0.620106  0.054326  2.045993  0.09  -0.58434  0.0387  2.331852  0.058  -0.62734  0.02832  2.320325  0.042  -0.328857  -0.550262  0.048777  2.338726  0.073
O  O97  1  0.47649194  0.11920658  0.52414990  1  -0.620208  0.054319  2.046137  0.09  -0.584399  0.0387  2.331984  0.058  -0.627406  0.028321  2.320456  0.042  -0.328805  -0.550325  0.048774  2.338857  0.073
