# generated using pymatgen
data_CdH10C16(NO)4
_symmetry_space_group_name_H-M   'P 1'
_cell_length_a   11.75968763
_cell_length_b   11.74415306
_cell_length_c   14.89300000
_cell_angle_alpha   79.16545425
_cell_angle_beta   79.17993943
_cell_angle_gamma   60.39751023
_symmetry_Int_Tables_number   1
_chemical_formula_structural   CdH10C16(NO)4
_chemical_formula_sum   'Cd4 H40 C64 N16 O16'
_cell_volume   1745.61264430
_cell_formula_units_Z   4
loop_
 _symmetry_equiv_pos_site_id
 _symmetry_equiv_pos_as_xyz
  1  'x, y, z'
loop_
 _atom_site_type_symbol
 _atom_site_label
 _atom_site_symmetry_multiplicity
 _atom_site_fract_x
 _atom_site_fract_y
 _atom_site_fract_z
 _atom_site_occupancy
 _atom_site_hle17_bader_spin_density
 _atom_site_hle17_ddec_charge
 _atom_site_hle17_ddec_spin_density
 _atom_site_hle17_ddec_sum_bond_order
 _atom_site_hle17_magmom
 _atom_site_hse06_10hf_bader_spin_density
 _atom_site_hse06_10hf_ddec_charge
 _atom_site_hse06_10hf_ddec_spin_density
 _atom_site_hse06_10hf_ddec_sum_bond_order
 _atom_site_hse06_10hf_magmom
 _atom_site_hse06_bader_spin_density
 _atom_site_hse06_ddec_charge
 _atom_site_hse06_ddec_spin_density
 _atom_site_hse06_ddec_sum_bond_order
 _atom_site_hse06_magmom
 _atom_site_pbe_bader_charge
 _atom_site_pbe_bader_spin_density
 _atom_site_pbe_cm5_charge
 _atom_site_pbe_ddec_charge
 _atom_site_pbe_ddec_spin_density
 _atom_site_pbe_ddec_sum_bond_order
 _atom_site_pbe_magmom
Cd  Cd0  1  0.70677175  0.36205749  0.06351865  1  0  1.088811  0  1.706973  0  0  0.88368  0  2.154085  0  0  0.942383  0  2.104538  0  1.283531  0  0.770416  0.841987  0  2.187868  0
Cd  Cd1  1  0.36205899  0.70680733  0.56345071  1  0  1.088006  0  1.709292  0  0  0.88324  0  2.156161  0  0  0.941785  0  2.106721  0  1.282508  0  0.771172  0.841646  0  2.189881  0
Cd  Cd2  1  0.13169621  0.74837803  0.83099086  1  0  1.092623  0  1.779094  0  0  0.890523  0  2.24521  0  0  0.946022  0  2.19511  0  1.277528  0  0.783318  0.850537  0  2.280247  0
Cd  Cd3  1  0.74830985  0.13152952  0.33112304  1  0  1.093551  0  1.776885  0  0  0.891279  0  2.242892  0  0  0.946897  0  2.192733  0  1.277447  0  0.78271  0.85122  0  2.277944  0
H  H4  1  0.69211455  0.58807797  0.51365137  1  0  0.120489  0  0.951269  0  0  0.126374  0  1.013204  0  0  0.131355  0  1.008599  0  0.167005  0  0.125255  0.122596  0  1.016893  0
H  H5  1  0.58808987  0.69219392  0.01362374  1  0  0.120679  0  0.951533  0  0  0.126609  0  1.013344  0  0  0.131592  0  1.008744  0  0.167311  0  0.125377  0.122827  0  1.017032  0
H  H6  1  0.89636730  0.49904351  0.59663097  1  0  0.091161  0  0.917163  0  0  0.100494  0  0.974051  0  0  0.104335  0  0.970839  0  0.097127  0  0.123431  0.097501  0  0.976737  0
H  H7  1  0.49886894  0.89681708  0.09654989  1  0  0.090882  0  0.91666  0  0  0.100091  0  0.973811  0  0  0.103947  0  0.970591  0  0.104855  0  0.123212  0.097092  0  0.976493  0
H  H8  1  0.32061176  0.67843097  0.00683363  1  0  0.099433  0  0.953825  0  0  0.105131  0  1.021626  0  0  0.108765  0  1.018829  0  0.130824  0  0.115435  0.102276  0  1.024039  0
H  H9  1  0.67824874  0.32091547  0.50689754  1  0  0.099823  0  0.953213  0  0  0.105463  0  1.021104  0  0  0.109135  0  1.018262  0  0.129066  0  0.115419  0.10258  0  1.023547  0
H  H10  1  0.27782447  0.78497018  0.15361278  1  0  0.075019  0  0.954632  0  0  0.080937  0  1.020102  0  0  0.083184  0  1.01976  0  0.08627  0  0.10811  0.079194  0  1.020632  0
H  H11  1  0.78473638  0.27813857  0.65364452  1  0  0.075164  0  0.954908  0  0  0.080789  0  1.020715  0  0  0.083006  0  1.020392  0  0.084037  0  0.108077  0.079062  0  1.02122  0
H  H12  1  0.83291285  0.55755035  0.04774574  1  0  0.087281  0  0.93455  0  0  0.097926  0  0.9932  0  0  0.099609  0  0.992136  0  0.117674  0  0.122167  0.096666  0  0.994058  0
H  H13  1  0.55733081  0.83253347  0.54767270  1  0  0.087317  0  0.93569  0  0  0.098101  0  0.99411  0  0  0.099769  0  0.993085  0  0.119663  0  0.122359  0.096864  0  0.994924  0
H  H14  1  0.03987855  0.55635006  0.06295049  1  0  0.116138  0  0.943101  0  0  0.126438  0  1.001149  0  0  0.128919  0  1.001355  0  0.106191  0  0.112415  0.124654  0  1.00115  0
H  H15  1  0.55603299  0.03985895  0.56299234  1  0  0.115967  0  0.943066  0  0  0.126213  0  1.001134  0  0  0.128693  0  1.001343  0  0.108157  0  0.112497  0.124428  0  1.001136  0
H  H16  1  0.22280800  0.13032824  0.10686027  1  0  0.105039  0  0.94345  0  0  0.11734  0  1.000235  0  0  0.119944  0  1.000252  0  0.069012  0  0.109522  0.115628  0  1.000201  0
H  H17  1  0.13062986  0.22285419  0.60690406  1  0  0.105031  0  0.943585  0  0  0.117352  0  1.000344  0  0  0.11991  0  1.000403  0  0.068835  0  0.109699  0.115674  0  1.000284  0
H  H18  1  0.00715887  0.15028482  0.08930497  1  0  0.085139  0  0.973471  0  0  0.089075  0  1.043447  0  0  0.091287  0  1.041787  0  0.130556  0  0.114827  0.087438  0  1.044742  0
H  H19  1  0.15064365  0.00683614  0.58923247  1  0  0.085764  0  0.972735  0  0  0.089585  0  1.042851  0  0  0.091816  0  1.04117  0  0.13266  0  0.115203  0.087942  0  1.044158  0
H  H20  1  0.18898245  0.51732480  0.15914478  1  0  0.108587  0  0.939542  0  0  0.121703  0  0.992117  0  0  0.124478  0  0.992063  0  0.076883  0  0.111691  0.119792  0  0.992257  0
H  H21  1  0.51717022  0.18886169  0.65914195  1  0  0.108762  0  0.939293  0  0  0.121903  0  0.99183  0  0  0.124683  0  0.991765  0  0.079083  0  0.111702  0.119969  0  0.991999  0
H  H22  1  0.40304647  0.51360666  0.15387536  1  0  0.065373  0  0.957291  0  0  0.072913  0  1.024838  0  0  0.073823  0  1.02484  0  0.08365  0  0.112299  0.072349  0  1.024711  0
H  H23  1  0.51338651  0.40333945  0.65377660  1  0  0.065661  0  0.95784  0  0  0.073174  0  1.025349  0  0  0.074084  0  1.025353  0  0.084925  0  0.112342  0.072611  0  1.025221  0
H  H24  1  0.60791634  0.16604924  0.03190635  1  0  0.11116  0  0.924532  0  0  0.118353  0  0.98392  0  0  0.121192  0  0.981425  0  0.165045  0  0.127945  0.116228  0  0.985852  0
H  H25  1  0.16610976  0.60841198  0.53188770  1  0  0.111307  0  0.924843  0  0  0.118338  0  0.984549  0  0  0.121171  0  0.982065  0  0.163596  0  0.127925  0.116214  0  0.986481  0
H  H26  1  0.40202407  0.15496576  0.03155139  1  0  0.100538  0  0.949474  0  0  0.112738  0  1.007468  0  0  0.115902  0  1.006133  0  0.060925  0  0.109284  0.110445  0  1.008694  0
H  H27  1  0.15513406  0.40209186  0.53165874  1  0  0.100459  0  0.949946  0  0  0.11272  0  1.007837  0  0  0.115814  0  1.006564  0  0.064825  0  0.109272  0.110471  0  1.009006  0
H  H28  1  0.94234574  0.05623042  0.82948723  1  0  0.098327  0  0.923879  0  0  0.10529  0  0.986708  0  0  0.108255  0  0.983522  0  0.128066  0  0.124604  0.103184  0  0.989003  0
H  H29  1  0.05656959  0.94197584  0.32953005  1  0  0.098795  0  0.922921  0  0  0.105593  0  0.985862  0  0  0.108548  0  0.982711  0  0.12576  0  0.124572  0.103495  0  0.988138  0
H  H30  1  0.93675828  0.26349954  0.84547457  1  0  0.117411  0  0.97583  0  0  0.124375  0  1.040581  0  0  0.127493  0  1.039619  0  0.124926  0  0.109628  0.12212  0  1.041527  0
H  H31  1  0.26346951  0.93647992  0.34544508  1  0  0.117337  0  0.976017  0  0  0.12436  0  1.040753  0  0  0.127479  0  1.039787  0  0.123849  0  0.109589  0.122096  0  1.041719  0
H  H32  1  0.36357264  0.04955294  0.82729256  1  0  0.104579  0  0.94757  0  0  0.118403  0  1.000197  0  0  0.121748  0  0.998924  0  0.069364  0  0.10837  0.116101  0  1.001141  0
H  H33  1  0.04960059  0.36385596  0.32727909  1  0  0.104188  0  0.947705  0  0  0.117972  0  1.000387  0  0  0.121316  0  0.999123  0  0.068138  0  0.108093  0.115674  0  1.001333  0
H  H34  1  0.34898176  0.84982240  0.81755468  1  0  0.079261  0  0.945344  0  0  0.089916  0  1.005048  0  0  0.091683  0  1.003827  0  0.101337  0  0.115757  0.088693  0  1.005882  0
H  H35  1  0.85025980  0.34913810  0.31756202  1  0  0.079038  0  0.945116  0  0  0.089635  0  1.004862  0  0  0.091404  0  1.003637  0  0.103754  0  0.115763  0.088425  0  1.00569  0
H  H36  1  0.94699776  0.43117479  0.81810851  1  0  0.106034  0  1.016323  0  0  0.10704  0  1.09133  0  0  0.110978  0  1.088921  0  0.132597  0  0.103948  0.104142  0  1.093349  0
H  H37  1  0.43103972  0.94682924  0.31810450  1  0  0.105712  0  1.017146  0  0  0.106589  0  1.092312  0  0  0.110518  0  1.089903  0  0.130776  0  0.103781  0.103697  0  1.094314  0
H  H38  1  0.95483482  0.63475138  0.82729372  1  0  0.106653  0  0.914446  0  0  0.116637  0  0.969241  0  0  0.119719  0  0.966235  0  0.153403  0  0.127993  0.114369  0  0.971491  0
H  H39  1  0.63422993  0.95472377  0.32726259  1  0  0.106678  0  0.914317  0  0  0.116634  0  0.969221  0  0  0.119712  0  0.966202  0  0.156985  0  0.128068  0.114369  0  0.971459  0
H  H40  1  0.34916618  0.42850813  0.86786906  1  0  0.088146  0  0.942628  0  0  0.097161  0  1.003712  0  0  0.099363  0  1.002372  0  0.123338  0  0.116141  0.095547  0  1.004701  0
H  H41  1  0.42819523  0.34952045  0.36789919  1  0  0.088229  0  0.942602  0  0  0.097231  0  1.003636  0  0  0.099525  0  1.002192  0  0.122635  0  0.116228  0.095617  0  1.004624  0
H  H42  1  0.35943274  0.21356523  0.86294269  1  0  0.097798  0  0.955511  0  0  0.111848  0  1.010198  0  0  0.114954  0  1.008902  0  0.06216  0  0.106952  0.109725  0  1.011157  0
H  H43  1  0.21364701  0.35974659  0.36294716  1  0  0.098036  0  0.954329  0  0  0.111952  0  1.00921  0  0  0.115066  0  1.0079  0  0.061668  0  0.106776  0.109799  0  1.01019  0
C  C44  1  0.68290717  0.46890318  0.87579299  1  0  0.619801  0  4.004444  0  0  0.563545  0  4.315181  0  0  0.59899  0  4.305399  0  1.642946  0  0.188775  0.53924  0  4.32137  0
C  C45  1  0.46893754  0.68292467  0.37574300  1  0  0.620234  0  4.004242  0  0  0.564194  0  4.314695  0  0  0.599648  0  4.304874  0  1.664073  0  0.188979  0.53989  0  4.320905  0
C  C46  1  0.67860719  0.51063155  0.77341291  1  0  0.096226  0  3.655211  0  0  0.097102  0  3.903744  0  0  0.099822  0  3.915968  0  0.529668  0  0.136379  0.094584  0  3.896463  0
C  C47  1  0.51060501  0.67867537  0.27337316  1  0  0.09619  0  3.655031  0  0  0.096885  0  3.903738  0  0  0.09956  0  3.915947  0  0.50907  0  0.136386  0.094396  0  3.896481  0
C  C48  1  0.56384412  0.57223372  0.72842986  1  0  0.035241  0  3.695425  0  0  0.034398  0  3.936927  0  0  0.03205  0  3.954969  0  0.484652  0  0.115234  0.035375  0  3.92532  0
C  C49  1  0.57228575  0.56375777  0.22843293  1  0  0.036568  0  3.694614  0  0  0.035508  0  3.936235  0  0  0.033232  0  3.954225  0  0.487351  0  0.115801  0.036402  0  3.924724  0
C  C50  1  0.69009517  0.56713790  0.58829953  1  0  0.058436  0  3.683353  0  0  0.025575  0  3.945783  0  0  0.028541  0  3.960315  0  0.525501  0  0.048463  0.023079  0  3.936435  0
C  C51  1  0.56712373  0.69021413  0.08826855  1  0  0.05878  0  3.682472  0  0  0.025989  0  3.944533  0  0  0.02896  0  3.959084  0  0.526925  0  0.048668  0.023478  0  3.935188  0
C  C52  1  0.80150024  0.51496364  0.63437504  1  0  0.091703  0  3.710088  0  0  0.066027  0  3.974586  0  0  0.069733  0  3.987705  0  0.479095  0  0.063363  0.063693  0  3.965942  0
C  C53  1  0.51483394  0.80179299  0.13431864  1  0  0.091378  0  3.708749  0  0  0.06573  0  3.973211  0  0  0.06942  0  3.986348  0  0.468053  0  0.063301  0.063411  0  3.964557  0
C  C54  1  0.42803567  0.61688201  0.78066475  1  0  0.599614  0  3.97196  0  0  0.546872  0  4.274826  0  0  0.580624  0  4.26815  0  1.594971  0  0.194451  0.524074  0  4.278593  0
C  C55  1  0.61704229  0.42777791  0.28069062  1  0  0.598544  0  3.972136  0  0  0.545924  0  4.274842  0  0  0.579659  0  4.2682  0  1.597083  0  0.194067  0.523141  0  4.278604  0
C  C56  1  0.84813013  0.04025412  0.12341381  1  0  0.665518  0  3.931743  0  0  0.60248  0  4.245459  0  0  0.639365  0  4.233204  0  1.658891  0  0.214265  0.577039  0  4.253328  0
C  C57  1  0.04036380  0.84805350  0.62334781  1  0  0.665368  0  3.932364  0  0  0.602674  0  4.245587  0  0  0.639609  0  4.23322  0  1.659177  0  0.214423  0.5772  0  4.253548  0
C  C58  1  0.97725838  0.92029175  0.09936798  1  0  0.086291  0  3.656228  0  0  0.091285  0  3.901218  0  0  0.092903  0  3.912933  0  0.559617  0  0.134675  0.089606  0  3.894265  0
C  C59  1  0.92039412  0.97721396  0.59930366  1  0  0.086478  0  3.656259  0  0  0.091181  0  3.901031  0  0  0.092781  0  3.912758  0  0.562716  0  0.134626  0.089503  0  3.894099  0
C  C60  1  0.99819208  0.85059894  0.02504448  1  0  0.054032  0  3.66836  0  0  0.051401  0  3.906878  0  0  0.051799  0  3.923218  0  0.488034  0  0.118188  0.050451  0  3.896719  0
C  C61  1  0.85074924  0.99806041  0.52500546  1  0  0.053871  0  3.668337  0  0  0.052011  0  3.905767  0  0  0.052405  0  3.922151  0  0.487324  0  0.118339  0.051055  0  3.895591  0
C  C62  1  0.22212155  0.74414449  0.03702953  1  0  0.050338  0  3.737518  0  0  0.013905  0  4.008287  0  0  0.017514  0  4.02419  0  0.444505  0  0.03209  0.010893  0  3.998412  0
C  C63  1  0.74403086  0.22230331  0.53705569  1  0  0.050285  0  3.736361  0  0  0.01382  0  4.007061  0  0  0.017407  0  4.022953  0  0.448607  0  0.032262  0.010818  0  3.997201  0
C  C64  1  0.19811177  0.80564515  0.11493092  1  0  0.056752  0  3.747188  0  0  0.036879  0  4.009262  0  0  0.03944  0  4.023973  0  0.509826  0  0.037378  0.035008  0  3.999937  0
C  C65  1  0.80551687  0.19832803  0.61493199  1  0  0.056635  0  3.747072  0  0  0.036987  0  4.009104  0  0  0.039571  0  4.023826  0  0.511159  0  0.037398  0.035115  0  3.999762  0
C  C66  1  0.88449432  0.87071024  0.97665735  1  0  0.603776  0  3.999313  0  0  0.555862  0  4.305602  0  0  0.589143  0  4.298637  0  1.65503  0  0.181502  0.533269  0  4.309616  0
C  C67  1  0.87090620  0.88415390  0.47663848  1  0  0.603545  0  3.99769  0  0  0.555442  0  4.303913  0  0  0.588713  0  4.297013  0  1.657319  0  0.181628  0.532859  0  4.307888  0
C  C68  1  0.03345796  0.05926564  0.82965315  1  0  0.146532  0  3.682167  0  0  0.111194  0  3.942088  0  0  0.118841  0  3.959165  0  0.499109  0  0.056099  0.106094  0  3.930308  0
C  C69  1  0.05948691  0.03325932  0.32970754  1  0  0.145578  0  3.681479  0  0  0.110668  0  3.941323  0  0  0.118286  0  3.958396  0  0.49748  0  0.055783  0.105587  0  3.929561  0
C  C70  1  0.03193396  0.17603985  0.83771095  1  0  -0.138763  0  3.657635  0  0  -0.155715  0  3.902591  0  0  -0.162762  0  3.922478  0  0.027057  0  -0.073986  -0.151038  0  3.889209  0
C  C71  1  0.17611430  0.03179000  0.33769372  1  0  -0.139069  0  3.657497  0  0  -0.156112  0  3.902566  0  0  -0.163156  0  3.922465  0  0.027907  0  -0.074402  -0.15144  0  3.889182  0
C  C72  1  0.15079379  0.17769641  0.83652241  1  0  0.089737  0  3.759182  0  0  0.100718  0  3.991029  0  0  0.104733  0  4.01269  0  -0.101738  0  0.008969  0.098133  0  3.97634  0
C  C73  1  0.17774278  0.15082091  0.33651488  1  0  0.089249  0  3.758298  0  0  0.09997  0  3.990498  0  0  0.103961  0  4.012181  0  -0.098554  0  0.008728  0.097398  0  3.975795  0
C  C74  1  0.26706543  0.05710847  0.82921889  1  0  -0.173176  0  3.734339  0  0  -0.191611  0  3.982372  0  0  -0.19927  0  4.003719  0  0.013696  0  -0.089178  -0.1864  0  3.967676  0
C  C75  1  0.05724828  0.26717629  0.32920322  1  0  -0.17246  0  3.734533  0  0  -0.1907  0  3.982411  0  0  -0.19835  0  4.003779  0  0.008801  0  -0.08881  -0.185509  0  3.967715  0
C  C76  1  0.26008163  0.94442274  0.82262192  1  0  0.127877  0  3.737222  0  0  0.097998  0  3.989439  0  0  0.104752  0  4.009568  0  0.464342  0  0.041758  0.093585  0  3.97541  0
C  C77  1  0.94473161  0.26011054  0.32263228  1  0  0.128117  0  3.737638  0  0  0.098356  0  3.990014  0  0  0.105088  0  4.010159  0  0.464115  0  0.041786  0.093948  0  3.975999  0
C  C78  1  0.15263430  0.30141713  0.84149739  1  0  0.086944  0  3.758181  0  0  0.098067  0  3.990916  0  0  0.101504  0  4.013243  0  -0.053134  0  0.008206  0.095974  0  3.975722  0
C  C79  1  0.30131533  0.15269723  0.34149308  1  0  0.087137  0  3.757662  0  0  0.098383  0  3.990267  0  0  0.101839  0  4.012573  0  -0.051698  0  0.008257  0.09628  0  3.975079  0
C  C80  1  0.03842390  0.42320142  0.83188347  1  0  -0.146146  0  3.685483  0  0  -0.163244  0  3.93193  0  0  -0.17097  0  3.952946  0  -0.017487  0  -0.081047  -0.158104  0  3.917856  0
C  C81  1  0.42297836  0.03840638  0.33188220  1  0  -0.145757  0  3.685128  0  0  -0.162776  0  3.931781  0  0  -0.170485  0  3.952778  0  -0.021698  0  -0.080839  -0.15764  0  3.917698  0
C  C82  1  0.04204077  0.53864821  0.83503369  1  0  0.14653  0  3.670274  0  0  0.116916  0  3.915553  0  0  0.124172  0  3.933255  0  0.479034  0  0.056481  0.112058  0  3.903433  0
C  C83  1  0.53827182  0.04205653  0.33503612  1  0  0.14596  0  3.670673  0  0  0.116117  0  3.916121  0  0  0.123379  0  3.933823  0  0.480975  0  0.056185  0.111272  0  3.903986  0
C  C84  1  0.26254837  0.42334432  0.85718459  1  0  0.122565  0  3.722779  0  0  0.090799  0  3.979772  0  0  0.097558  0  3.999064  0  0.503512  0  0.042061  0.086503  0  3.966372  0
C  C85  1  0.42313878  0.26275256  0.35717808  1  0  0.122742  0  3.723371  0  0  0.09091  0  3.980192  0  0  0.097581  0  3.999477  0  0.51641  0  0.041899  0.086624  0  3.966775  0
C  C86  1  0.26674272  0.30365019  0.85451328  1  0  -0.167997  0  3.738447  0  0  -0.189734  0  3.995384  0  0  -0.197336  0  4.017374  0  -0.034661  0  -0.08817  -0.184579  0  3.980191  0
C  C87  1  0.30360008  0.26693091  0.35450960  1  0  -0.168441  0  3.737672  0  0  -0.190032  0  3.994478  0  0  -0.197646  0  4.0165  0  -0.038863  0  -0.088119  -0.184853  0  3.979263  0
C  C88  1  0.92095871  0.46485490  0.06257918  1  0  0.135489  0  3.712385  0  0  0.10435  0  3.964846  0  0  0.111371  0  3.98444  0  0.471934  0  0.051256  0.099795  0  3.951241  0
C  C89  1  0.46477926  0.92068396  0.56255189  1  0  0.134435  0  3.713512  0  0  0.103102  0  3.965953  0  0  0.110123  0  3.985572  0  0.466434  0  0.051014  0.098532  0  3.95236  0
C  C90  1  0.03713455  0.46349398  0.07163818  1  0  -0.156521  0  3.693822  0  0  -0.174153  0  3.940457  0  0  -0.181745  0  3.962028  0  -0.009427  0  -0.078461  -0.169019  0  3.925727  0
C  C91  1  0.46336944  0.03698929  0.57169832  1  0  -0.155289  0  3.693531  0  0  -0.172713  0  3.940105  0  0  -0.180312  0  3.96166  0  -0.00563  0  -0.078043  -0.167575  0  3.925389  0
C  C92  1  0.15036221  0.34229702  0.08701003  1  0  0.090719  0  3.775927  0  0  0.101151  0  4.01149  0  0  0.105023  0  4.033268  0  -0.014012  0  0.011456  0.098676  0  3.996706  0
C  C93  1  0.34229289  0.15028383  0.58709948  1  0  0.090434  0  3.776875  0  0  0.10088  0  4.012761  0  0  0.104804  0  4.034439  0  -0.015241  0  0.011134  0.098382  0  3.998022  0
C  C94  1  0.13941881  0.22744939  0.09322873  1  0  -0.160163  0  3.717359  0  0  -0.179712  0  3.968354  0  0  -0.187699  0  3.990409  0  -0.033199  0  -0.082565  -0.174459  0  3.953346  0
C  C95  1  0.22760066  0.13935408  0.59327499  1  0  -0.160072  0  3.71828  0  0  -0.179623  0  3.969318  0  0  -0.187571  0  3.991368  0  -0.032873  0  -0.082568  -0.17441  0  3.954311  0
C  C96  1  0.01922157  0.23745084  0.08444387  1  0  0.138569  0  3.699307  0  0  0.107604  0  3.953461  0  0  0.114957  0  3.972198  0  0.478173  0  0.047785  0.102887  0  3.940607  0
C  C97  1  0.23762707  0.01901743  0.58443122  1  0  0.137857  0  3.698789  0  0  0.106902  0  3.953067  0  0  0.114252  0  3.971793  0  0.479105  0  0.04749  0.10218  0  3.940227  0
C  C98  1  0.27628889  0.33757075  0.09325922  1  0  0.091967  0  3.772398  0  0  0.101662  0  4.00779  0  0  0.10567  0  4.02966  0  0.020944  0  0.011443  0.099138  0  3.992892  0
C  C99  1  0.33753359  0.27635882  0.59335508  1  0  0.09264  0  3.772833  0  0  0.101829  0  4.009013  0  0  0.105827  0  4.030869  0  0.022009  0  0.011799  0.099309  0  3.994125  0
C  C100  1  0.27885974  0.43799911  0.12947624  1  0  -0.160462  0  3.722597  0  0  -0.178858  0  3.971082  0  0  -0.186974  0  3.993335  0  -0.040963  0  -0.081855  -0.173495  0  3.95594  0
C  C101  1  0.43788970  0.27889047  0.62952483  1  0  -0.160972  0  3.722889  0  0  -0.179249  0  3.971567  0  0  -0.187372  0  3.993817  0  -0.039692  0  -0.082145  -0.173868  0  3.956438  0
C  C102  1  0.39831166  0.43627357  0.12670973  1  0  0.13125  0  3.737724  0  0  0.101764  0  3.990459  0  0  0.108261  0  4.011092  0  0.509517  0  0.048596  0.097719  0  3.975981  0
C  C103  1  0.43614057  0.39851463  0.62668660  1  0  0.130388  0  3.739043  0  0  0.100809  0  3.991724  0  0  0.107316  0  4.012366  0  0.507645  0  0.048533  0.096759  0  3.977234  0
C  C104  1  0.51276970  0.24237815  0.05899303  1  0  0.159586  0  3.6418  0  0  0.130185  0  3.886998  0  0  0.138582  0  3.903249  0  0.48754  0  0.065556  0.124584  0  3.87571  0
C  C105  1  0.24234983  0.51313364  0.55899565  1  0  0.158869  0  3.641098  0  0  0.129423  0  3.886363  0  0  0.137835  0  3.902589  0  0.556082  0  0.065158  0.123801  0  3.875101  0
C  C106  1  0.39732445  0.23620325  0.06015380  1  0  -0.154872  0  3.694213  0  0  -0.17262  0  3.940152  0  0  -0.180482  0  3.961113  0  -0.002843  0  -0.076317  -0.167285  0  3.925831  0
C  C107  1  0.23623265  0.39750454  0.56022548  1  0  -0.154142  0  3.69397  0  0  -0.171809  0  3.940093  0  0  -0.179598  0  3.961049  0  -0.07463  0  -0.075745  -0.1665  0  3.925751  0
N  N108  1  0.79650257  0.48389697  0.72548531  1  0  -0.261398  0  3.059888  0  0  -0.230329  0  3.319074  0  0  -0.236959  0  3.330616  0  -1.176751  0  -0.284367  -0.225776  0  3.311667  0
N  N109  1  0.48375199  0.79675432  0.22541376  1  0  -0.260952  0  3.059872  0  0  -0.229715  0  3.318917  0  0  -0.23634  0  3.330483  0  -1.175575  0  -0.284134  -0.225159  0  3.311485  0
N  N110  1  0.57232792  0.59620999  0.63612619  1  0  -0.289639  0  3.239618  0  0  -0.230264  0  3.503182  0  0  -0.242235  0  3.521227  0  -1.189978  0  -0.298296  -0.221458  0  3.490858  0
N  N111  1  0.59626543  0.57226723  0.13613570  1  0  -0.289917  0  3.239758  0  0  -0.230335  0  3.503409  0  0  -0.242389  0  3.521462  0  -1.190625  0  -0.298498  -0.221468  0  3.491088  0
N  N112  1  0.07683265  0.89585625  0.14481177  1  0  -0.268021  0  3.035097  0  0  -0.242672  0  3.294959  0  0  -0.247863  0  3.30608  0  -1.172855  0  -0.296508  -0.239293  0  3.287999  0
N  N113  1  0.89582312  0.07695172  0.64476546  1  0  -0.267857  0  3.034603  0  0  -0.242467  0  3.29439  0  0  -0.247671  0  3.305513  0  -1.175805  0  -0.296564  -0.239083  0  3.28744  0
N  N114  1  0.12134396  0.76663961  0.99365718  1  0  -0.31174  0  3.270318  0  0  -0.251857  0  3.538345  0  0  -0.264532  0  3.554961  0  -1.229527  0  -0.312983  -0.243345  0  3.527657  0
N  N115  1  0.76669508  0.12134970  0.49365280  1  0  -0.311976  0  3.270798  0  0  -0.252154  0  3.538519  0  0  -0.264874  0  3.555177  0  -1.228736  0  -0.313164  -0.243602  0  3.527797  0
N  N116  1  0.14565913  0.94491153  0.82191614  1  0  -0.330076  0  3.246437  0  0  -0.254043  0  3.512249  0  0  -0.274516  0  3.532872  0  -1.235979  0  -0.32525  -0.239286  0  3.497567  0
N  N117  1  0.94519765  0.14552800  0.32197844  1  0  -0.33031  0  3.242336  0  0  -0.254792  0  3.508121  0  0  -0.275185  0  3.528681  0  -1.231377  0  -0.324735  -0.240073  0  3.493421  0
N  N118  1  0.15220110  0.53902565  0.84750384  1  0  -0.322319  0  3.255471  0  0  -0.246318  0  3.525164  0  0  -0.265617  0  3.543188  0  -1.225915  0  -0.328443  -0.232531  0  3.512351  0
N  N119  1  0.53873525  0.15231487  0.34750652  1  0  -0.323503  0  3.253989  0  0  -0.24729  0  3.523352  0  0  -0.266557  0  3.541397  0  -1.236213  0  -0.328464  -0.233547  0  3.510573  0
N  N120  1  0.91133894  0.35410088  0.06920551  1  0  -0.321999  0  3.225452  0  0  -0.246406  0  3.491648  0  0  -0.266401  0  3.510707  0  -1.214669  0  -0.32138  -0.232383  0  3.47812  0
N  N121  1  0.35416505  0.91108458  0.56915850  1  0  -0.320893  0  3.227906  0  0  -0.245022  0  3.494094  0  0  -0.265066  0  3.513193  0  -1.217959  0  -0.321614  -0.230967  0  3.480549  0
N  N122  1  0.51251803  0.34278680  0.09026775  1  0  -0.30609  0  3.226132  0  0  -0.230019  0  3.487221  0  0  -0.24937  0  3.505355  0  -1.24263  0  -0.318143  -0.216271  0  3.474075  0
N  N123  1  0.34268652  0.51282716  0.59022941  1  0  -0.304373  0  3.228302  0  0  -0.227849  0  3.488991  0  0  -0.247242  0  3.50716  0  -1.244056  0  -0.317997  -0.214076  0  3.475836  0
O  O124  1  0.69867947  0.35350073  0.90326043  1  0  -0.608914  0  1.918565  0  0  -0.55141  0  2.14607  0  0  -0.580845  0  2.136974  0  -1.140151  0  -0.326927  -0.530809  0  2.151741  0
O  O125  1  0.35372753  0.69861026  0.40318335  1  0  -0.609434  0  1.918868  0  0  -0.552  0  2.146298  0  0  -0.58142  0  2.13717  0  -1.140845  0  -0.327224  -0.531401  0  2.151964  0
O  O126  1  0.68264422  0.54629047  0.92438972  1  0  -0.629152  0  1.933825  0  0  -0.579659  0  2.164438  0  0  -0.60872  0  2.15489  0  -1.176036  0  -0.329656  -0.558763  0  2.170149  0
O  O127  1  0.54619134  0.68269506  0.42435457  1  0  -0.629179  0  1.933738  0  0  -0.579729  0  2.164088  0  0  -0.608773  0  2.154556  0  -1.175063  0  -0.329516  -0.558853  0  2.169796  0
O  O128  1  0.41802753  0.59087766  0.86634936  1  0  -0.581486  0  1.915644  0  0  -0.537671  0  2.140122  0  0  -0.560844  0  2.131983  0  -1.1384  0  -0.30858  -0.5211  0  2.144953  0
O  O129  1  0.59100526  0.41770649  0.36636259  1  0  -0.581202  0  1.916991  0  0  -0.537194  0  2.141241  0  0  -0.560416  0  2.133167  0  -1.138855  0  -0.308093  -0.520607  0  2.146059  0
O  O130  1  0.33084063  0.68229102  0.73208492  1  0  -0.653472  0  2.122318  0  0  -0.581598  0  2.398305  0  0  -0.612853  0  2.387403  0  -1.175228  0  -0.326097  -0.560166  0  2.405946  0
O  O131  1  0.68254482  0.33049120  0.23212058  1  0  -0.652591  0  2.12242  0  0  -0.580712  0  2.398611  0  0  -0.612021  0  2.387719  0  -1.178165  0  -0.326019  -0.559242  0  2.406233  0
O  O132  1  0.83028119  0.13772708  0.06225237  1  0  -0.633309  0  2.013138  0  0  -0.564338  0  2.266916  0  0  -0.595684  0  2.256323  0  -1.149324  0  -0.32311  -0.542103  0  2.273358  0
O  O133  1  0.13769915  0.83026986  0.56223335  1  0  -0.633318  0  2.012272  0  0  -0.564933  0  2.266205  0  0  -0.596165  0  2.25542  0  -1.150678  0  -0.323339  -0.542731  0  2.272678  0
O  O134  1  0.78028851  0.03714401  0.19868154  1  0  -0.614136  0  2.026602  0  0  -0.557393  0  2.285852  0  0  -0.584471  0  2.271808  0  -1.179384  0  -0.327343  -0.538069  0  2.294908  0
O  O135  1  0.03733659  0.78010988  0.69864187  1  0  -0.614157  0  2.02667  0  0  -0.557643  0  2.286024  0  0  -0.584705  0  2.271875  0  -1.18002  0  -0.327206  -0.538322  0  2.295123  0
O  O136  1  0.77318316  0.91684658  0.02187788  1  0  -0.597661  0  1.855088  0  0  -0.565819  0  2.061221  0  0  -0.588241  0  2.052382  0  -1.16315  0  -0.345906  -0.549742  0  2.066914  0
O  O137  1  0.91718104  0.77266374  0.52183614  1  0  -0.597487  0  1.854293  0  0  -0.565602  0  2.060491  0  0  -0.588034  0  2.051693  0  -1.164775  0  -0.345751  -0.549532  0  2.066159  0
O  O138  1  0.91450485  0.83744895  0.89491401  1  0  -0.643818  0  1.988415  0  0  -0.587543  0  2.235656  0  0  -0.615266  0  2.222507  0  -1.158303  0  -0.34983  -0.568131  0  2.244135  0
O  O139  1  0.83747084  0.91419864  0.39493936  1  0  -0.643482  0  1.988498  0  0  -0.587112  0  2.235856  0  0  -0.614868  0  2.222702  0  -1.157994  0  -0.350029  -0.56768  0  2.244337  0
