# generated using pymatgen
data_FeH20Pt(C7N4)4
_symmetry_space_group_name_H-M   'P 1'
_cell_length_a   8.42568357
_cell_length_b   8.94354340
_cell_length_c   9.93320479
_cell_angle_alpha   84.43249562
_cell_angle_beta   64.99819686
_cell_angle_gamma   89.21532772
_symmetry_Int_Tables_number   1
_chemical_formula_structural   FeH20Pt(C7N4)4
_chemical_formula_sum   'Fe1 H20 Pt1 C28 N16'
_cell_volume   674.87098238
_cell_formula_units_Z   1
loop_
 _symmetry_equiv_pos_site_id
 _symmetry_equiv_pos_as_xyz
  1  'x, y, z'
loop_
 _atom_site_type_symbol
 _atom_site_label
 _atom_site_symmetry_multiplicity
 _atom_site_fract_x
 _atom_site_fract_y
 _atom_site_fract_z
 _atom_site_occupancy
 _atom_site_hle17_bader_spin_density
 _atom_site_hle17_ddec_charge
 _atom_site_hle17_ddec_spin_density
 _atom_site_hle17_ddec_sum_bond_order
 _atom_site_hle17_magmom
 _atom_site_hse06_10hf_bader_spin_density
 _atom_site_hse06_10hf_ddec_charge
 _atom_site_hse06_10hf_ddec_spin_density
 _atom_site_hse06_10hf_ddec_sum_bond_order
 _atom_site_hse06_10hf_magmom
 _atom_site_hse06_bader_spin_density
 _atom_site_hse06_ddec_charge
 _atom_site_hse06_ddec_spin_density
 _atom_site_hse06_ddec_sum_bond_order
 _atom_site_hse06_magmom
 _atom_site_pbe_bader_spin_density
 _atom_site_pbe_cm5_charge
 _atom_site_pbe_ddec_charge
 _atom_site_pbe_ddec_spin_density
 _atom_site_pbe_ddec_sum_bond_order
 _atom_site_pbe_magmom
Fe  Fe0  1  0.00000005  0.00000112  0.99999988  1  0  0.477781  0  3.415158  0  0  0.447782  0  3.898339  0  0  0.476822  0  3.857631  0  0  0.864685  0.436233  0  3.917505  0
H  H1  1  0.21215801  0.90829762  0.17912425  1  0  0.087743  0  0.979196  0  0  0.090547  0  1.049313  0  0  0.093509  0  1.046085  0  0  0.121274  0.088552  0  1.05143  0
H  H2  1  0.78784297  0.09170283  0.82087445  1  0  0.087743  0  0.979182  0  0  0.090568  0  1.049279  0  0  0.093531  0  1.046049  0  0  0.121269  0.088575  0  1.05139  0
H  H3  1  0.44811795  0.03333280  0.22103897  1  0  0.096531  0  0.978215  0  0  0.097853  0  1.053702  0  0  0.101024  0  1.052093  0  0  0.096622  0.095349  0  1.055599  0
H  H4  1  0.55188687  0.96666536  0.77895656  1  0  0.096563  0  0.978202  0  0  0.097885  0  1.053689  0  0  0.101059  0  1.05208  0  0  0.096647  0.095392  0  1.05558  0
H  H5  1  0.56294184  0.29038175  0.09072381  1  0  0.102746  0  0.945838  0  0  0.108006  0  1.014189  0  0  0.111632  0  1.010917  0  0  0.106511  0.105432  0  1.016326  0
H  H6  1  0.43706170  0.70961757  0.90927508  1  0  0.102724  0  0.945877  0  0  0.107978  0  1.01423  0  0  0.111606  0  1.010965  0  0  0.106498  0.105408  0  1.016367  0
H  H7  1  0.42226570  0.41706763  0.93122952  1  0  0.112343  0  0.958334  0  0  0.12204  0  1.02077  0  0  0.12473  0  1.020348  0  0  0.110508  0.119883  0  1.02164  0
H  H8  1  0.57773785  0.58293169  0.06876938  1  0  0.112327  0  0.958238  0  0  0.122015  0  1.02071  0  0  0.124705  0  1.020284  0  0  0.110486  0.119851  0  1.021573  0
H  H9  1  0.74148846  0.39445865  0.69426992  1  0  0.115047  0  0.956327  0  0  0.122251  0  1.021449  0  0  0.125692  0  1.020132  0  0  0.107843  0.119482  0  1.022962  0
H  H10  1  0.25851242  0.60553956  0.30573003  1  0  0.115049  0  0.956327  0  0  0.122251  0  1.021446  0  0  0.125694  0  1.020127  0  0  0.107848  0.119483  0  1.02296  0
H  H11  1  0.67271380  0.59486872  0.53656283  1  0  0.100591  0  0.968184  0  0  0.108253  0  1.032222  0  0  0.110949  0  1.030787  0  0  0.103538  0.106258  0  1.03313  0
H  H12  1  0.32728311  0.40512836  0.46343664  1  0  0.100596  0  0.968187  0  0  0.108272  0  1.032198  0  0  0.110968  0  1.030762  0  0  0.103553  0.106278  0  1.033104  0
H  H13  1  0.84091202  0.84187016  0.46564023  1  0  0.09359  0  0.975556  0  0  0.094858  0  1.054012  0  0  0.098674  0  1.051424  0  0  0.095124  0.091908  0  1.056115  0
H  H14  1  0.15908498  0.15812918  0.53435999  1  0  0.093595  0  0.975559  0  0  0.094865  0  1.05401  0  0  0.09868  0  1.051424  0  0  0.095127  0.091914  0  1.056113  0
H  H15  1  0.06817432  0.87843385  0.56248109  1  0  0.065395  0  0.942968  0  0  0.073933  0  1.008663  0  0  0.076004  0  1.007189  0  0  0.107878  0.07236  0  1.009904  0
H  H16  1  0.93182137  0.12156549  0.43751961  1  0  0.065411  0  0.942946  0  0  0.073948  0  1.00863  0  0  0.076019  0  1.007156  0  0  0.107865  0.072372  0  1.009875  0
H  H17  1  0.22068538  0.62537757  0.73278600  1  0  0.286302  0  0.94937  0  0  0.264899  0  1.031575  0  0  0.271924  0  1.024988  0  0  0.296112  0.260342  0  1.034898  0
H  H18  1  0.77931560  0.37462287  0.26721169  1  0  0.286327  0  0.949356  0  0  0.264906  0  1.031594  0  0  0.271931  0  1.025007  0  0  0.296109  0.260345  0  1.034924  0
H  H19  1  0.37719704  0.49517164  0.70113264  1  0  0.286917  0  0.936365  0  0  0.273424  0  1.009745  0  0  0.278784  0  1.004215  0  0  0.294741  0.26966  0  1.012816  0
H  H20  1  0.62280249  0.50482544  0.29886690  1  0  0.286921  0  0.936366  0  0  0.273429  0  1.009737  0  0  0.27879  0  1.004207  0  0  0.294751  0.269665  0  1.012809  0
Pt  Pt21  1  0.49999918  0.00000399  0.50000106  1  0  0.069701  0  4.083  0  0  0.093868  0  4.658197  0  0  0.087798  0  4.624502  0  0  0.529832  0.099545  0  4.678866  0
C  C22  1  0.70721031  0.03256942  0.30645927  1  0  0.063917  0  3.569043  0  0  0.042335  0  3.920306  0  0  0.056143  0  3.923904  0  0  -0.003917  0.033582  0  3.916647  0
C  C23  1  0.29279342  0.96743439  0.69353812  1  0  0.063892  0  3.568667  0  0  0.042302  0  3.919954  0  0  0.056116  0  3.923552  0  0  -0.003931  0.033559  0  3.916292  0
C  C24  1  0.25994477  0.02207240  0.12936786  1  0  0.123357  0  3.652112  0  0  0.094315  0  3.903468  0  0  0.102653  0  3.919014  0  0  0.050935  0.088913  0  3.892931  0
C  C25  1  0.74005620  0.97792804  0.87062983  1  0  0.123379  0  3.652111  0  0  0.094337  0  3.903458  0  0  0.102674  0  3.919006  0  0  0.050956  0.088937  0  3.892931  0
C  C26  1  0.39330772  0.09225627  0.15004750  1  0  -0.108806  0  3.735417  0  0  -0.12026  0  3.984544  0  0  -0.127053  0  4.005924  0  0  -0.082209  -0.116945  0  3.971185  0
C  C27  1  0.60669582  0.90774306  0.84995240  1  0  -0.108846  0  3.73548  0  0  -0.120303  0  3.984615  0  0  -0.127102  0  4.005998  0  0  -0.082208  -0.116999  0  3.971275  0
C  C28  1  0.51860624  0.20391835  0.55628380  1  0  0.052417  0  3.634984  0  0  0.031702  0  3.986278  0  0  0.040969  0  3.993476  0  0  -0.018444  0.024629  0  3.981863  0
C  C29  1  0.48139483  0.79608436  0.44371566  1  0  0.052518  0  3.63516  0  0  0.031815  0  3.986426  0  0  0.04108  0  3.99362  0  0  -0.018398  0.024779  0  3.981949  0
C  C30  1  0.45616178  0.23503558  0.07816360  1  0  -0.002845  0  3.709357  0  0  -0.021012  0  3.960689  0  0  -0.015676  0  3.976217  0  0  -0.066118  -0.023764  0  3.949894  0
C  C31  1  0.54384047  0.76496373  0.92183375  1  0  -0.002798  0  3.70935  0  0  -0.020956  0  3.960685  0  0  -0.015626  0  3.976218  0  0  -0.066102  -0.02371  0  3.949898  0
C  C32  1  0.38051151  0.30514861  0.98903099  1  0  -0.123158  0  3.688515  0  0  -0.147974  0  3.939904  0  0  -0.153414  0  3.958522  0  0  -0.077794  -0.144654  0  3.927698  0
C  C33  1  0.61949212  0.69485296  0.01096765  1  0  -0.123094  0  3.688381  0  0  -0.14792  0  3.939772  0  0  -0.153359  0  3.958392  0  0  -0.077786  -0.144588  0  3.927556  0
C  C34  1  0.24415745  0.23016116  0.97626881  1  0  0.158069  0  3.754591  0  0  0.155131  0  4.006233  0  0  0.162704  0  4.021711  0  0  0.12117  0.149929  0  3.995672  0
C  C35  1  0.75584352  0.76983929  0.02372989  1  0  0.157982  0  3.754713  0  0  0.15509  0  4.006324  0  0  0.162663  0  4.021802  0  0  0.121179  0.149879  0  3.995777  0
C  C36  1  0.13800853  0.28976322  0.90334598  1  0  0.199784  0  3.698366  0  0  0.150847  0  3.967444  0  0  0.171289  0  3.980208  0  0  0.230429  0.1431  0  3.960547  0
C  C37  1  0.86199249  0.71023837  0.09665360  1  0  0.199794  0  3.698374  0  0  0.150848  0  3.96746  0  0  0.17128  0  3.980231  0  0  0.230432  0.143104  0  3.960557  0
C  C38  1  0.99106461  0.41746819  0.79698408  1  0  0.185719  0  3.724717  0  0  0.139725  0  4.000748  0  0  0.157426  0  4.016715  0  0  0.223288  0.133196  0  3.991574  0
C  C39  1  0.00893632  0.58253116  0.20301676  1  0  0.18573  0  3.72464  0  0  0.139684  0  4.000717  0  0  0.157384  0  4.016682  0  0  0.223279  0.13315  0  3.991536  0
C  C40  1  0.94011470  0.53393003  0.71130667  1  0  0.148396  0  3.840852  0  0  0.15456  0  4.084983  0  0  0.159131  0  4.103224  0  0  0.117064  0.151158  0  4.072211  0
C  C41  1  0.05988361  0.46606931  0.28869409  1  0  0.148385  0  3.840882  0  0  0.154594  0  4.084957  0  0  0.159164  0  4.103198  0  0  0.117092  0.151196  0  4.072172  0
C  C42  1  0.80920532  0.50373560  0.66474708  1  0  -0.129208  0  3.696139  0  0  -0.151392  0  3.941484  0  0  -0.157016  0  3.962955  0  0  -0.080168  -0.147745  0  3.927242  0
C  C43  1  0.19079421  0.49626148  0.33525246  1  0  -0.129153  0  3.69604  0  0  -0.151338  0  3.941385  0  0  -0.156964  0  3.962854  0  0  -0.080157  -0.147701  0  3.927158  0
C  C44  1  0.77227480  0.61551872  0.57589930  1  0  -0.011769  0  3.723399  0  0  -0.028568  0  3.971789  0  0  -0.026842  0  3.991727  0  0  -0.073926  -0.029614  0  3.957794  0
C  C45  1  0.22772473  0.38447836  0.42410024  1  0  -0.011762  0  3.72322  0  0  -0.028582  0  3.971644  0  0  -0.026853  0  3.991581  0  0  -0.073947  -0.029629  0  3.957651  0
C  C46  1  0.86627439  0.75247099  0.53600654  1  0  -0.12644  0  3.746433  0  0  -0.141931  0  4.004416  0  0  -0.147996  0  4.026621  0  0  -0.089309  -0.13731  0  3.988768  0
C  C47  1  0.13372253  0.24752611  0.46399393  1  0  -0.12647  0  3.746332  0  0  -0.141961  0  4.004341  0  0  -0.148025  0  4.026538  0  0  -0.089331  -0.137338  0  3.988688  0
C  C48  1  0.99241697  0.77290060  0.58934172  1  0  0.130405  0  3.73498  0  0  0.107181  0  3.989592  0  0  0.1117  0  4.009046  0  0  0.045809  0.103874  0  3.976851  0
C  C49  1  0.00757999  0.22709760  0.41065762  1  0  0.130388  0  3.734933  0  0  0.107163  0  3.989539  0  0  0.111683  0  4.008993  0  0  0.045836  0.103863  0  3.976794  0
N  N50  1  0.82545698  0.03525660  0.18864865  1  0  -0.33284  0  3.313827  0  0  -0.305751  0  3.630143  0  0  -0.320981  0  3.64201  0  0  -0.395572  -0.297085  0  3.620247  0
N  N51  1  0.17453351  0.96474396  0.81135982  1  0  -0.332896  0  3.313406  0  0  -0.305818  0  3.629756  0  0  -0.321048  0  3.641622  0  0  -0.395632  -0.297163  0  3.619869  0
N  N52  1  0.18594288  0.08807164  0.04363846  1  0  -0.232025  0  3.302443  0  0  -0.186212  0  3.568661  0  0  -0.205934  0  3.586964  0  0  -0.320784  -0.173478  0  3.555636  0
N  N53  1  0.81405936  0.91192768  0.95635990  1  0  -0.232044  0  3.30244  0  0  -0.186258  0  3.568677  0  0  -0.20598  0  3.586978  0  0  -0.320818  -0.173525  0  3.555666  0
N  N54  1  0.00039793  0.20565536  0.91697665  1  0  -0.154241  0  3.328894  0  0  -0.125581  0  3.638809  0  0  -0.139803  0  3.649914  0  0  -0.240361  -0.117148  0  3.629399  0
N  N55  1  0.99960178  0.79434623  0.08302340  1  0  -0.15427  0  3.328843  0  0  -0.125627  0  3.638792  0  0  -0.139843  0  3.649891  0  0  -0.240413  -0.117202  0  3.629392  0
N  N56  1  0.51975864  0.32383202  0.59471026  1  0  -0.436589  0  2.817993  0  0  -0.394612  0  3.079258  0  0  -0.407183  0  3.092499  0  0  -0.357079  -0.385131  0  3.069112  0
N  N57  1  0.48024142  0.67617861  0.40529382  1  0  -0.436657  0  2.818361  0  0  -0.39469  0  3.079627  0  0  -0.407259  0  3.092863  0  0  -0.357114  -0.385229  0  3.069485  0
N  N58  1  0.90738214  0.28433636  0.85400773  1  0  -0.235365  0  2.939652  0  0  -0.216652  0  3.228254  0  0  -0.223848  0  3.239574  0  0  -0.199755  -0.21254  0  3.21934  0
N  N59  1  0.09261752  0.71566411  0.14599345  1  0  -0.23535  0  2.939573  0  0  -0.216612  0  3.228191  0  0  -0.223811  0  3.239512  0  0  -0.199731  -0.212495  0  3.21927  0
N  N60  1  0.13706197  0.42383479  0.82620254  1  0  0.03752  0  3.535722  0  0  0.141427  0  3.729863  0  0  0.107338  0  3.780915  0  0  -0.125498  0.1479  0  3.715937  0
N  N61  1  0.86293770  0.57616568  0.17379763  1  0  0.037538  0  3.535666  0  0  0.141451  0  3.729828  0  0  0.107374  0  3.780872  0  0  -0.125483  0.147927  0  3.715891  0
N  N62  1  0.26645323  0.53781470  0.78167137  1  0  -0.498704  0  2.860494  0  0  -0.512516  0  3.101117  0  0  -0.516332  0  3.106497  0  0  -0.486549  -0.503287  0  3.100296  0
N  N63  1  0.73354644  0.46218575  0.21832779  1  0  -0.498733  0  2.860464  0  0  -0.512538  0  3.101082  0  0  -0.516356  0  3.106459  0  0  -0.486569  -0.503303  0  3.100254  0
N  N64  1  0.02888576  0.66702629  0.67607443  1  0  -0.328521  0  3.099877  0  0  -0.291634  0  3.3575  0  0  -0.302491  0  3.373748  0  0  -0.308583  -0.284688  0  3.347476  0
N  N65  1  0.97111124  0.33297305  0.32392580  1  0  -0.328545  0  3.099887  0  0  -0.291643  0  3.357484  0  0  -0.302502  0  3.373733  0  0  -0.308603  -0.284697  0  3.347452  0
