# generated using pymatgen
data_CdP2H18C12(NO4)2
_symmetry_space_group_name_H-M   'P 1'
_cell_length_a   8.66639862
_cell_length_b   9.71055710
_cell_length_c   11.63841577
_cell_angle_alpha   73.13754395
_cell_angle_beta   68.15927260
_cell_angle_gamma   63.46564669
_symmetry_Int_Tables_number   1
_chemical_formula_structural   CdP2H18C12(NO4)2
_chemical_formula_sum   'Cd2 P4 H36 C24 N4 O16'
_cell_volume   804.27243518
_cell_formula_units_Z   2
loop_
 _symmetry_equiv_pos_site_id
 _symmetry_equiv_pos_as_xyz
  1  'x, y, z'
loop_
 _atom_site_type_symbol
 _atom_site_label
 _atom_site_symmetry_multiplicity
 _atom_site_fract_x
 _atom_site_fract_y
 _atom_site_fract_z
 _atom_site_occupancy
 _atom_site_hle17_bader_spin_density
 _atom_site_hle17_ddec_charge
 _atom_site_hle17_ddec_spin_density
 _atom_site_hle17_ddec_sum_bond_order
 _atom_site_hle17_magmom
 _atom_site_hse06_10hf_bader_spin_density
 _atom_site_hse06_10hf_ddec_charge
 _atom_site_hse06_10hf_ddec_spin_density
 _atom_site_hse06_10hf_ddec_sum_bond_order
 _atom_site_hse06_10hf_magmom
 _atom_site_hse06_bader_spin_density
 _atom_site_hse06_ddec_charge
 _atom_site_hse06_ddec_spin_density
 _atom_site_hse06_ddec_sum_bond_order
 _atom_site_hse06_magmom
 _atom_site_pbe_bader_spin_density
 _atom_site_pbe_cm5_charge
 _atom_site_pbe_ddec_charge
 _atom_site_pbe_ddec_spin_density
 _atom_site_pbe_ddec_sum_bond_order
 _atom_site_pbe_magmom
Cd  Cd0  1  0.00000153  0.50000007  0.99999993  1  0  1.231437  0  1.613511  0  0  1.044153  0  2.059262  0  0  1.093996  0  2.008216  0  0  0.813912  1.008727  0  2.09419  0
Cd  Cd1  1  0.49999995  0.99999939  0.50000051  1  0  1.232868  0  1.609492  0  0  1.045666  0  2.054533  0  0  1.095546  0  2.003535  0  0  0.813632  1.009517  0  2.090276  0
P  P2  1  0.85355551  0.82302854  0.79146541  1  0  1.462185  0  4.817738  0  0  1.300505  0  5.314349  0  0  1.350201  0  5.276093  0  0  0.355781  1.265879  0  5.340255  0
P  P3  1  0.46806090  0.67702687  0.70850501  1  0  1.461674  0  4.815464  0  0  1.29959  0  5.312133  0  0  1.349235  0  5.27401  0  0  0.356057  1.264868  0  5.337899  0
P  P4  1  0.14644386  0.17697168  0.20853383  1  0  1.462247  0  4.817706  0  0  1.300553  0  5.314324  0  0  1.350248  0  5.276068  0  0  0.35579  1.265928  0  5.340231  0
P  P5  1  0.53194026  0.32297334  0.29149492  1  0  1.461584  0  4.815506  0  0  1.299523  0  5.312174  0  0  1.349169  0  5.274052  0  0  0.35603  1.264802  0  5.337943  0
H  H6  1  0.68548082  0.53889225  0.91346687  1  0  0.439669  0  0.847886  0  0  0.408276  0  0.914845  0  0  0.418262  0  0.90012  0  0  0.294957  0.401199  0  0.925233  0
H  H7  1  0.13802280  0.96129247  0.58654507  1  0  0.439976  0  0.84642  0  0  0.408543  0  0.914161  0  0  0.418526  0  0.899431  0  0  0.295204  0.401393  0  0.9247  0
H  H8  1  0.31452158  0.46110913  0.08653242  1  0  0.439644  0  0.847922  0  0  0.408248  0  0.91488  0  0  0.418234  0  0.90016  0  0  0.294941  0.401171  0  0.925268  0
H  H9  1  0.86197503  0.03871124  0.41345375  1  0  0.440045  0  0.846378  0  0  0.408627  0  0.914052  0  0  0.418609  0  0.899324  0  0  0.295255  0.401477  0  0.924591  0
H  H10  1  0.64245824  0.46565902  0.05725489  1  0  0.434813  0  0.868798  0  0  0.402546  0  0.934109  0  0  0.413368  0  0.918452  0  0  0.285764  0.394894  0  0.945167  0
H  H11  1  0.16528804  0.03450564  0.44271747  1  0  0.435472  0  0.867938  0  0  0.403491  0  0.932854  0  0  0.414304  0  0.917202  0  0  0.286368  0.395838  0  0.943919  0
H  H12  1  0.35754426  0.53434003  0.94274312  1  0  0.434791  0  0.86883  0  0  0.402508  0  0.934165  0  0  0.41333  0  0.918507  0  0  0.285741  0.394856  0  0.945222  0
H  H13  1  0.83471206  0.96549691  0.55728098  1  0  0.435473  0  0.867949  0  0  0.403494  0  0.932866  0  0  0.414308  0  0.917211  0  0  0.286345  0.39584  0  0.943931  0
H  H14  1  0.72072726  0.73956383  0.70477006  1  0  0.439663  0  0.871017  0  0  0.404478  0  0.940559  0  0  0.416436  0  0.923579  0  0  0.304917  0.396094  0  0.952443  0
H  H15  1  0.16500347  0.76050044  0.79522342  1  0  0.440909  0  0.869048  0  0  0.405785  0  0.93841  0  0  0.417782  0  0.921364  0  0  0.306074  0.397434  0  0.950236  0
H  H16  1  0.27927249  0.26043755  0.29522938  1  0  0.439647  0  0.871037  0  0  0.404456  0  0.940591  0  0  0.416415  0  0.923609  0  0  0.304911  0.396073  0  0.952474  0
H  H17  1  0.83499577  0.23950210  0.20477589  1  0  0.440886  0  0.869091  0  0  0.405769  0  0.938444  0  0  0.417766  0  0.921398  0  0  0.30606  0.397419  0  0.950269  0
H  H18  1  0.78983739  0.16444224  0.98310729  1  0  0.11818  0  0.949741  0  0  0.138109  0  1.011068  0  0  0.140465  0  1.009358  0  0  0.092183  0.136418  0  1.012215  0
H  H19  1  0.93763323  0.33525425  0.51683542  1  0  0.117915  0  0.950702  0  0  0.138143  0  1.011635  0  0  0.140543  0  1.009878  0  0  0.091968  0.136414  0  1.012924  0
H  H20  1  0.21015900  0.83555681  0.01689431  1  0  0.118173  0  0.949721  0  0  0.138093  0  1.011065  0  0  0.140446  0  1.00936  0  0  0.092193  0.136403  0  1.012208  0
H  H21  1  0.06236698  0.66474015  0.48316623  1  0  0.117919  0  0.950634  0  0  0.138132  0  1.011593  0  0  0.140533  0  1.009837  0  0  0.091941  0.136403  0  1.012882  0
H  H22  1  0.84155467  0.13329188  0.82670361  1  0  0.109788  0  0.957226  0  0  0.130477  0  1.021346  0  0  0.131884  0  1.021032  0  0  0.09083  0.129377  0  1.021667  0
H  H23  1  0.80192481  0.36640376  0.67324011  1  0  0.109617  0  0.956832  0  0  0.130489  0  1.020857  0  0  0.131919  0  1.020509  0  0  0.0906  0.129498  0  1.021058  0
H  H24  1  0.15844476  0.86670833  0.17329804  1  0  0.109815  0  0.957158  0  0  0.130506  0  1.021282  0  0  0.131913  0  1.020967  0  0  0.090838  0.129405  0  1.021603  0
H  H25  1  0.19807684  0.63358947  0.32676323  1  0  0.109617  0  0.956804  0  0  0.130459  0  1.02086  0  0  0.131897  0  1.020504  0  0  0.090632  0.129468  0  1.021061  0
H  H26  1  0.93694269  0.97867488  0.93498228  1  0  0.119222  0  0.957334  0  0  0.140691  0  1.017543  0  0  0.142136  0  1.01775  0  0  0.094463  0.13953  0  1.017528  0
H  H27  1  0.85095026  0.52093862  0.56503396  1  0  0.119728  0  0.958184  0  0  0.141092  0  1.018414  0  0  0.14253  0  1.018625  0  0  0.094232  0.140054  0  1.018283  0
H  H28  1  0.06305764  0.02132534  0.06501972  1  0  0.119217  0  0.957381  0  0  0.140713  0  1.01756  0  0  0.142159  0  1.017767  0  0  0.094453  0.139551  0  1.017545  0
H  H29  1  0.14905177  0.47905577  0.43496959  1  0  0.119681  0  0.958215  0  0  0.141045  0  1.018446  0  0  0.142485  0  1.018656  0  0  0.094193  0.140007  0  1.018315  0
H  H30  1  0.49876074  0.80605542  0.90246482  1  0  0.094671  0  0.981441  0  0  0.10368  0  1.048676  0  0  0.107142  0  1.046224  0  0  0.101784  0.101088  0  1.050465  0
H  H31  1  0.20737333  0.69417144  0.59740772  1  0  0.094076  0  0.982962  0  0  0.103257  0  1.049888  0  0  0.106739  0  1.047455  0  0  0.102127  0.100707  0  1.051739  0
H  H32  1  0.50124052  0.19394247  0.09753383  1  0  0.094666  0  0.981443  0  0  0.103674  0  1.04868  0  0  0.107137  0  1.046228  0  0  0.101763  0.101081  0  1.050467  0
H  H33  1  0.79262713  0.30582644  0.40259421  1  0  0.09408  0  0.982984  0  0  0.103259  0  1.049914  0  0  0.106741  0  1.047482  0  0  0.102115  0.100716  0  1.051761  0
H  H34  1  0.94550010  0.33773025  0.83503447  1  0  0.098225  0  0.964772  0  0  0.105184  0  1.029038  0  0  0.107946  0  1.027196  0  0  0.125832  0.103073  0  1.030521  0
H  H35  1  0.11766649  0.16311158  0.66505178  1  0  0.100245  0  0.963929  0  0  0.10692  0  1.028174  0  0  0.10952  0  1.02652  0  0  0.126766  0.104916  0  1.029681  0
H  H36  1  0.05449760  0.66227578  0.16496442  1  0  0.098255  0  0.964839  0  0  0.105187  0  1.029107  0  0  0.107937  0  1.02728  0  0  0.125825  0.103075  0  1.03059  0
H  H37  1  0.88232923  0.83689097  0.33494854  1  0  0.100222  0  0.963938  0  0  0.106919  0  1.028165  0  0  0.109521  0  1.026507  0  0  0.126737  0.104915  0  1.029671  0
H  H38  1  0.42483454  0.33972932  0.83239818  1  0  0.10035  0  0.945119  0  0  0.106715  0  1.009096  0  0  0.109094  0  1.008036  0  0  0.126231  0.104678  0  1.01039  0
H  H39  1  0.59675816  0.16021983  0.66777304  1  0  0.10058  0  0.944967  0  0  0.106626  0  1.009002  0  0  0.109029  0  1.00793  0  0  0.125793  0.104776  0  1.010023  0
H  H40  1  0.57516745  0.66027089  0.16759969  1  0  0.100339  0  0.945155  0  0  0.106682  0  1.009146  0  0  0.109065  0  1.008077  0  0  0.126231  0.104644  0  1.010442  0
H  H41  1  0.40324256  0.83977922  0.33222427  1  0  0.100615  0  0.944925  0  0  0.106619  0  1.009028  0  0  0.109024  0  1.007955  0  0  0.125772  0.104769  0  1.010051  0
C  C42  1  0.81438521  0.08087599  0.92581292  1  0  -0.349161  0  3.708084  0  0  -0.429638  0  3.942527  0  0  -0.432357  0  3.951318  0  0  -0.244887  -0.427366  0  3.936458  0
C  C43  1  0.82133056  0.41888374  0.57412988  1  0  -0.349072  0  3.709577  0  0  -0.43002  0  3.943417  0  0  -0.432764  0  3.952138  0  0  -0.243813  -0.427847  0  3.937268  0
C  C44  1  0.18561509  0.91912423  0.07418787  1  0  -0.34919  0  3.708032  0  0  -0.429688  0  3.942499  0  0  -0.432407  0  3.95129  0  0  -0.244905  -0.427415  0  3.936429  0
C  C45  1  0.17866882  0.58111065  0.42587383  1  0  -0.349017  0  3.709528  0  0  -0.429919  0  3.943352  0  0  -0.432673  0  3.952068  0  0  -0.243789  -0.427746  0  3.937202  0
C  C46  1  0.65555851  0.03593478  0.96340532  1  0  0.163808  0  3.734222  0  0  0.181452  0  3.970702  0  0  0.183374  0  3.99488  0  0  -0.006671  0.180043  0  3.954246  0
C  C47  1  0.65504343  0.46401143  0.53654895  1  0  0.16503  0  3.73593  0  0  0.182926  0  3.971603  0  0  0.184871  0  3.995776  0  0  -0.006313  0.18158  0  3.955023  0
C  C48  1  0.34444316  0.96406427  0.03659475  1  0  0.163895  0  3.734197  0  0  0.181529  0  3.970681  0  0  0.183452  0  3.994858  0  0  -0.006571  0.180121  0  3.954225  0
C  C49  1  0.34495582  0.53598529  0.46345483  1  0  0.165017  0  3.735988  0  0  0.182936  0  3.971631  0  0  0.18488  0  3.995807  0  0  -0.006269  0.181589  0  3.955051  0
C  C50  1  0.65440854  0.92512892  0.90765133  1  0  -0.305659  0  3.761231  0  0  -0.271245  0  4.006143  0  0  -0.280206  0  4.027382  0  0  -0.032127  -0.265234  0  3.991974  0
C  C51  1  0.48735192  0.57494248  0.59225903  1  0  -0.308634  0  3.766575  0  0  -0.273826  0  4.011299  0  0  -0.282773  0  4.032631  0  0  -0.032846  -0.267665  0  3.996998  0
C  C52  1  0.34559224  0.07487013  0.09234840  1  0  -0.305732  0  3.761256  0  0  -0.271312  0  4.006174  0  0  -0.280273  0  4.027415  0  0  -0.032193  -0.265301  0  3.992003  0
C  C53  1  0.51264764  0.42505540  0.40774254  1  0  -0.30866  0  3.766653  0  0  -0.273873  0  4.0114  0  0  -0.282819  0  4.032732  0  0  -0.032863  -0.267712  0  3.997101  0
C  C54  1  0.49953148  0.89190858  0.94510786  1  0  -0.110463  0  3.746733  0  0  -0.140355  0  3.99499  0  0  -0.141976  0  4.016008  0  0  -0.092657  -0.139072  0  3.980715  0
C  C55  1  0.33662709  0.60819663  0.55482084  1  0  -0.109767  0  3.752681  0  0  -0.140437  0  4.000827  0  0  -0.142078  0  4.021857  0  0  -0.09324  -0.138894  0  3.986305  0
C  C56  1  0.50047016  0.10809047  0.05489101  1  0  -0.110415  0  3.746674  0  0  -0.140315  0  3.994938  0  0  -0.141937  0  4.015955  0  0  -0.09257  -0.139028  0  3.98066  0
C  C57  1  0.66337286  0.39180242  0.44518095  1  0  -0.10977  0  3.752713  0  0  -0.14043  0  4.000863  0  0  -0.142077  0  4.021902  0  0  -0.093208  -0.138893  0  3.98634  0
C  C58  1  0.09088443  0.29846995  0.79586419  1  0  0.093108  0  3.650181  0  0  0.066369  0  3.892914  0  0  0.067986  0  3.91282  0  0  0.063811  0.06527  0  3.879653  0
C  C59  1  0.18476415  0.20217389  0.70423869  1  0  0.090599  0  3.6503  0  0  0.064037  0  3.893184  0  0  0.065736  0  3.913149  0  0  0.062096  0.062559  0  3.880031  0
C  C60  1  0.90911481  0.70153259  0.20413511  1  0  0.093011  0  3.650303  0  0  0.066332  0  3.892996  0  0  0.067956  0  3.912908  0  0  0.063813  0.065232  0  3.879733  0
C  C61  1  0.81523368  0.79782982  0.29576013  1  0  0.090679  0  3.650292  0  0  0.064091  0  3.893154  0  0  0.065791  0  3.913116  0  0  0.062126  0.062613  0  3.88  0
C  C62  1  0.35630807  0.29923313  0.79560735  1  0  0.098592  0  3.646471  0  0  0.068223  0  3.901888  0  0  0.070085  0  3.922297  0  0  0.067463  0.06675  0  3.888916  0
C  C63  1  0.45090497  0.20095099  0.70451969  1  0  0.096451  0  3.649367  0  0  0.067053  0  3.904087  0  0  0.068905  0  3.92447  0  0  0.066331  0.065463  0  3.891076  0
C  C64  1  0.64369392  0.70076709  0.20439052  1  0  0.098547  0  3.646578  0  0  0.068196  0  3.901989  0  0  0.070059  0  3.922399  0  0  0.067408  0.066723  0  3.889016  0
C  C65  1  0.54909437  0.79904922  0.29547834  1  0  0.096495  0  3.649342  0  0  0.067125  0  3.904051  0  0  0.068976  0  3.924435  0  0  0.066397  0.065535  0  3.891038  0
N  N66  1  0.17710368  0.34665706  0.84101024  1  0  -0.279438  0  3.229118  0  0  -0.206834  0  3.49341  0  0  -0.222208  0  3.512505  0  0  -0.303211  -0.196175  0  3.480316  0
N  N67  1  0.36437483  0.15372898  0.65909022  1  0  -0.279692  0  3.230031  0  0  -0.207309  0  3.493751  0  0  -0.222649  0  3.512815  0  0  -0.302537  -0.196382  0  3.480935  0
N  N68  1  0.82289780  0.65334432  0.15898749  1  0  -0.279375  0  3.229183  0  0  -0.206792  0  3.493449  0  0  -0.222164  0  3.51254  0  0  -0.303194  -0.196132  0  3.480355  0
N  N69  1  0.63562278  0.84627123  0.34090953  1  0  -0.279766  0  3.230082  0  0  -0.207394  0  3.493823  0  0  -0.222734  0  3.512887  0  0  -0.302562  -0.196467  0  3.481006  0
O  O70  1  0.73900211  0.48912034  0.98364651  1  0  -0.867146  0  1.843358  0  0  -0.80507  0  2.048258  0  0  -0.826135  0  2.014802  0  0  -0.594561  -0.790191  0  2.07145  0
O  O71  1  0.21164484  0.01123373  0.51635958  1  0  -0.868113  0  1.841051  0  0  -0.805941  0  2.04543  0  0  -0.82694  0  2.011949  0  0  -0.595537  -0.791084  0  2.068945  0
O  O72  1  0.26099940  0.51088104  0.01635242  1  0  -0.867095  0  1.843391  0  0  -0.805001  0  2.048316  0  0  -0.826071  0  2.014851  0  0  -0.594525  -0.790125  0  2.07151  0
O  O73  1  0.78835350  0.98876882  0.48363938  1  0  -0.868167  0  1.841058  0  0  -0.806002  0  2.045369  0  0  -0.827002  0  2.011886  0  0  -0.595547  -0.791146  0  2.068885  0
O  O74  1  0.00202892  0.72467316  0.85811002  1  0  -0.862338  0  2.028584  0  0  -0.770828  0  2.295089  0  0  -0.800084  0  2.274987  0  0  -0.378361  -0.749951  0  2.308193  0
O  O75  1  0.58461299  0.77544729  0.64198584  1  0  -0.86022  0  2.028629  0  0  -0.768815  0  2.29551  0  0  -0.798101  0  2.275634  0  0  -0.377012  -0.747696  0  2.3087  0
O  O76  1  0.99797080  0.27532822  0.14188822  1  0  -0.862349  0  2.028511  0  0  -0.770838  0  2.295013  0  0  -0.800096  0  2.274914  0  0  -0.378367  -0.749963  0  2.308118  0
O  O77  1  0.41538731  0.22455292  0.35801495  1  0  -0.860197  0  2.028597  0  0  -0.76879  0  2.295461  0  0  -0.798082  0  2.275599  0  0  -0.377012  -0.747673  0  2.308648  0
O  O78  1  0.90359163  0.93820652  0.67939939  1  0  -0.848989  0  1.904866  0  0  -0.76554  0  2.137096  0  0  -0.791536  0  2.118245  0  0  -0.370945  -0.747056  0  2.149744  0
O  O79  1  0.52128835  0.56182978  0.82061343  1  0  -0.8482  0  1.903031  0  0  -0.764633  0  2.135124  0  0  -0.790573  0  2.116349  0  0  -0.370697  -0.745803  0  2.147516  0
O  O80  1  0.09640812  0.06179486  0.32060005  1  0  -0.849006  0  1.904907  0  0  -0.765555  0  2.137133  0  0  -0.791547  0  2.118283  0  0  -0.37094  -0.74707  0  2.14978  0
O  O81  1  0.47871192  0.43817043  0.17938616  1  0  -0.848151  0  1.90305  0  0  -0.764608  0  2.135143  0  0  -0.790552  0  2.116375  0  0  -0.370686  -0.745778  0  2.147535  0
O  O82  1  0.81339313  0.70070215  0.75499047  1  0  -0.764351  0  2.055029  0  0  -0.689162  0  2.289435  0  0  -0.710802  0  2.264721  0  0  -0.387264  -0.673925  0  2.306228  0
O  O83  1  0.26897518  0.79930730  0.74490874  1  0  -0.765489  0  2.053039  0  0  -0.689938  0  2.287269  0  0  -0.711629  0  2.262555  0  0  -0.388793  -0.674597  0  2.304007  0
O  O84  1  0.18660851  0.29929690  0.24500839  1  0  -0.764365  0  2.05509  0  0  -0.689137  0  2.289439  0  0  -0.710773  0  2.264724  0  0  -0.387252  -0.6739  0  2.306232  0
O  O85  1  0.73102688  0.20069292  0.25509154  1  0  -0.765424  0  2.053101  0  0  -0.689905  0  2.287332  0  0  -0.711594  0  2.26262  0  0  -0.388763  -0.674563  0  2.30407  0
