# generated using pymatgen
data_CoH18C18(N2O3)2
_symmetry_space_group_name_H-M   'P 1'
_cell_length_a   7.03344967
_cell_length_b   8.41930913
_cell_length_c   8.63469304
_cell_angle_alpha   97.63890487
_cell_angle_beta   113.88155766
_cell_angle_gamma   104.95786174
_symmetry_Int_Tables_number   1
_chemical_formula_structural   CoH18C18(N2O3)2
_chemical_formula_sum   'Co1 H18 C18 N4 O6'
_cell_volume   435.08018601
_cell_formula_units_Z   1
loop_
 _symmetry_equiv_pos_site_id
 _symmetry_equiv_pos_as_xyz
  1  'x, y, z'
loop_
 _atom_site_type_symbol
 _atom_site_label
 _atom_site_symmetry_multiplicity
 _atom_site_fract_x
 _atom_site_fract_y
 _atom_site_fract_z
 _atom_site_occupancy
 _atom_site_hse06_10hf_ddec_charge
 _atom_site_hse06_10hf_ddec_spin_density
 _atom_site_hse06_10hf_ddec_sum_bond_order
 _atom_site_hse06_10hf_magmom
 _atom_site_hse06_ddec_charge
 _atom_site_hse06_ddec_spin_density
 _atom_site_hse06_ddec_sum_bond_order
 _atom_site_hse06_magmom
 _atom_site_pbe_cm5_charge
 _atom_site_pbe_ddec_charge
 _atom_site_pbe_ddec_spin_density
 _atom_site_pbe_ddec_sum_bond_order
 _atom_site_pbe_magmom
Co  Co0  1  0.50000033  0.49999882  0.49999920  1  0.780973  1.032741  2.827025  0.97  0.843469  1.018009  2.752945  0.966  0.6429  0.751949  1.058829  2.868952  0.985
H  H1  1  0.80536265  0.63258493  0.15748919  1  0.301901  -0.000126  0.965936  0.0  0.310014  -6.3e-05  0.959556  0.0  0.315899  0.296363  -0.000224  0.970326  0.0
H  H2  1  0.19463232  0.36741386  0.84251100  1  0.301869  -0.000126  0.965904  0.0  0.309981  -6.3e-05  0.959525  0.0  0.31588  0.296331  -0.000224  0.970294  0.0
H  H3  1  0.66357353  0.73635087  0.87667070  1  0.112308  -0.000139  0.989039  0.0  0.114178  -9.6e-05  0.985418  0.0  0.145021  0.110916  -0.000176  0.991633  0.0
H  H4  1  0.33642042  0.26364916  0.12333049  1  0.112279  -0.000139  0.989066  0.0  0.114149  -9.6e-05  0.985447  0.0  0.145014  0.1109  -0.000176  0.991644  0.0
H  H5  1  0.57778359  0.15251072  0.57225063  1  0.129729  -0.000204  1.015766  0.0  0.13219  -0.000168  1.015242  0.0  0.109455  0.127924  -0.000255  1.016241  0.0
H  H6  1  0.42221614  0.84749195  0.42775050  1  0.129746  -0.000204  1.015728  0.0  0.132198  -0.000167  1.015218  0.0  0.109455  0.12794  -0.000255  1.016205  0.0
H  H7  1  0.67252858  0.94733584  0.74817822  1  0.10457  -6.5e-05  1.048599  0.0  0.107953  -5.9e-05  1.046543  0.0  0.096272  0.102231  -5.6e-05  1.049732  0.0
H  H8  1  0.32746849  0.05266426  0.25182167  1  0.104599  -6.5e-05  1.048601  0.0  0.107982  -5.9e-05  1.046545  0.0  0.096284  0.102263  -5.6e-05  1.049731  0.0
H  H9  1  0.81887881  0.03186244  0.07349444  1  0.095328  -5.2e-05  1.015098  0.0  0.097223  -1.5e-05  1.015389  0.0  0.094546  0.094131  -0.000143  1.014968  0.0
H  H10  1  0.18112036  0.96813899  0.92650401  1  0.095302  -5.3e-05  1.015093  0.0  0.097198  -1.5e-05  1.015382  0.0  0.094533  0.094106  -0.000143  1.014962  0.0
H  H11  1  0.86920208  0.32072025  0.22961120  1  0.123242  0.000193  1.030258  0.0  0.126494  0.000127  1.027978  0.0  0.103908  0.120901  0.000248  1.031911  0.0
H  H12  1  0.13079812  0.67927991  0.77038856  1  0.123255  0.000193  1.030263  0.0  0.126506  0.000128  1.027984  0.0  0.103904  0.120914  0.000248  1.031914  0.0
H  H13  1  0.09069985  0.96355277  0.36865697  1  0.119003  -3.2e-05  1.041778  0.0  0.123413  1e-06  1.038623  0.0  0.104391  0.115252  -0.000132  1.04549  0.0
H  H14  1  0.90930496  0.03644364  0.63134375  1  0.118979  -3.2e-05  1.04185  0.0  0.123393  0.0  1.038684  0.0  0.104415  0.115277  -0.000132  1.045512  0.0
H  H15  1  0.22086399  0.52392553  0.59584825  1  0.357969  -0.000364  1.004218  0.0  0.369381  -0.000413  0.987392  0.0  0.282526  0.34983  -0.000298  1.016259  0.0
H  H16  1  0.77913769  0.47607084  0.40415145  1  0.357978  -0.000364  1.004201  0.0  0.36939  -0.000413  0.987375  0.0  0.282541  0.349841  -0.000298  1.01624  0.0
H  H17  1  0.16635615  0.65816897  0.48964770  1  0.380504  0.000534  0.949897  0.001  0.389559  0.000357  0.936741  0.001  0.29077  0.374822  0.000681  0.95813  0.001
H  H18  1  0.83363772  0.34182726  0.51035176  1  0.380514  0.000534  0.949882  0.001  0.389568  0.000357  0.936725  0.001  0.290764  0.374831  0.00068  0.958116  0.001
C  C19  1  0.68217314  0.61318054  0.88169142  1  0.205966  -0.006147  3.898781  -0.004  0.227656  -0.004254  3.906019  -0.003  0.164166  0.191697  -0.007483  3.893804  -0.005
C  C20  1  0.31782603  0.38682089  0.11830703  1  0.20604  -0.006147  3.898835  -0.004  0.227726  -0.004255  3.906074  -0.003  0.164228  0.191766  -0.007481  3.893853  -0.005
C  C21  1  0.64119142  0.18850852  0.71421638  1  -0.167691  0.000105  4.001871  0.0  -0.170911  0.000102  4.022765  0.0  -0.09903  -0.165277  3.6e-05  3.987554  0.001
C  C22  1  0.35880986  0.81149418  0.28578410  1  -0.16763  0.000105  4.001911  0.0  -0.170841  0.000102  4.022807  0.0  -0.099007  -0.165214  3.6e-05  3.987591  0.001
C  C23  1  0.69521268  0.07542656  0.81453600  1  -0.115046  -0.000785  4.062258  -0.001  -0.118063  -0.000533  4.085708  0.0  -0.107478  -0.112369  -0.001068  4.045246  -0.001
C  C24  1  0.30478704  0.92457614  0.18546281  1  -0.115184  -0.000786  4.062392  -0.001  -0.118202  -0.000532  4.085839  0.0  -0.107518  -0.112505  -0.001068  4.045374  -0.001
C  C25  1  0.77702424  0.12291250  0.99840100  1  -0.090038  0.000163  4.057755  0.0  -0.093187  0.000163  4.082299  0.0  -0.100471  -0.087676  0.000137  4.040527  0.0
C  C26  1  0.22297493  0.87708891  0.00159861  1  -0.089842  0.000163  4.057619  0.0  -0.092991  0.000163  4.082163  0.0  -0.100391  -0.087481  0.000137  4.040392  0.0
C  C27  1  0.80731886  0.28467404  0.08809299  1  -0.157262  -0.000231  3.996768  0.0  -0.15922  -0.000183  4.016057  0.0  -0.096144  -0.156043  -0.000329  3.983805  0.0
C  C28  1  0.19268032  0.71532737  0.91190662  1  -0.15741  -0.000231  3.996733  0.0  -0.159368  -0.000183  4.016023  0.0  -0.096199  -0.15619  -0.000329  3.983771  0.0
C  C29  1  0.75090936  0.39725425  0.98727807  1  0.13741  -0.000315  4.036536  0.0  0.141037  -0.000211  4.058753  0.0  0.088487  0.134969  -0.000378  4.021489  0.0
C  C30  1  0.24909138  0.60274719  0.01272089  1  0.137394  -0.000315  4.036478  0.0  0.14102  -0.000211  4.058697  0.0  0.088471  0.134952  -0.000378  4.021432  0.0
C  C31  1  0.66880812  0.35130799  0.80224071  1  0.130743  -0.001909  4.038348  -0.001  0.134888  -0.001654  4.062056  -0.001  0.082914  0.128016  -0.001975  4.022596  -0.002
C  C32  1  0.33119527  0.64869602  0.19775948  1  0.130736  -0.001909  4.03834  -0.001  0.134879  -0.001654  4.062044  -0.001  0.082905  0.12801  -0.001975  4.022588  -0.002
C  C33  1  0.16030824  0.22588606  0.50690775  1  0.626518  -0.006852  4.144228  -0.004  0.66609  -0.003199  4.130863  -0.002  0.21284  0.598194  -0.013054  4.156005  -0.007
C  C34  1  0.83969813  0.77411039  0.49309232  1  0.626393  -0.00685  4.144424  -0.004  0.665963  -0.003198  4.13106  -0.002  0.212751  0.598072  -0.013051  4.156205  -0.007
C  C35  1  0.05987824  0.03879561  0.46290793  1  -0.18183  -0.005422  3.914277  -0.003  -0.183752  -0.001845  3.921588  -0.001  -0.088424  -0.184969  -0.013705  3.916756  -0.007
C  C36  1  0.94012821  0.96120462  0.53709387  1  -0.181767  -0.005425  3.914338  -0.003  -0.183684  -0.001845  3.921645  -0.001  -0.088436  -0.184948  -0.01371  3.916774  -0.007
N  N37  1  0.75761956  0.56353203  0.03180873  1  -0.282718  -0.001526  3.639586  -0.001  -0.300977  -0.00106  3.651868  -0.001  -0.37562  -0.270112  -0.001901  3.630601  -0.001
N  N38  1  0.24237909  0.43646806  0.96819399  1  -0.282665  -0.001526  3.639608  -0.001  -0.300923  -0.00106  3.651896  -0.001  -0.375647  -0.270061  -0.001901  3.630625  -0.001
N  N39  1  0.62762925  0.49033745  0.74081661  1  -0.336993  -0.008739  3.6149  -0.006  -0.3658  -0.008293  3.62793  -0.006  -0.363232  -0.319554  -0.008331  3.606182  -0.006
N  N40  1  0.37237148  0.50966400  0.25918235  1  -0.33705  -0.008739  3.614883  -0.006  -0.36585  -0.008293  3.627905  -0.006  -0.363218  -0.31961  -0.008331  3.606164  -0.006
O  O41  1  0.28376280  0.27801511  0.43439858  1  -0.521056  -0.003182  2.453178  -0.001  -0.559828  -0.003787  2.443726  -0.003  -0.28866  -0.495352  -0.002029  2.458542  0.0
O  O42  1  0.71624052  0.72198507  0.56560335  1  -0.520993  -0.003183  2.453129  -0.001  -0.559771  -0.003789  2.443685  -0.003  -0.288639  -0.495284  -0.00203  2.458485  0.0
O  O43  1  0.12307589  0.32364687  0.61014449  1  -0.591227  -0.003097  2.23582  -0.003  -0.615112  -0.00143  2.22364  -0.001  -0.314534  -0.576228  -0.005763  2.245438  -0.005
O  O44  1  0.87693009  0.67635586  0.38985983  1  -0.591174  -0.003096  2.236033  -0.003  -0.615057  -0.001428  2.223854  -0.001  -0.314464  -0.576178  -0.005762  2.245641  -0.005
O  O45  1  0.29077981  0.63260855  0.57432117  1  -0.771827  0.021824  2.130863  0.036  -0.794972  0.017508  2.099553  0.029  -0.57906  -0.753664  0.026785  2.150703  0.043
O  O46  1  0.70921930  0.36738905  0.42567787  1  -0.771846  0.021824  2.130808  0.036  -0.794988  0.017508  2.099508  0.029  -0.579068  -0.753684  0.026785  2.150649  0.043
