# generated using pymatgen
data_AlH3C12(S2O5)3
_symmetry_space_group_name_H-M   'P 1'
_cell_length_a   4.39633170
_cell_length_b   19.90510008
_cell_length_c   19.90462001
_cell_angle_alpha   119.99979563
_cell_angle_beta   90.00056955
_cell_angle_gamma   89.99887477
_symmetry_Int_Tables_number   1
_chemical_formula_structural   AlH3C12(S2O5)3
_chemical_formula_sum   'Al2 H6 C24 S12 O30'
_cell_volume   1508.48235601
_cell_formula_units_Z   2
loop_
 _symmetry_equiv_pos_site_id
 _symmetry_equiv_pos_as_xyz
  1  'x, y, z'
loop_
 _atom_site_type_symbol
 _atom_site_label
 _atom_site_symmetry_multiplicity
 _atom_site_fract_x
 _atom_site_fract_y
 _atom_site_fract_z
 _atom_site_occupancy
 _atom_site_pbe_bader_charge
 _atom_site_pbe_bader_spin_density
 _atom_site_pbe_cm5_charge
 _atom_site_pbe_ddec_charge
 _atom_site_pbe_ddec_spin_density
 _atom_site_pbe_ddec_sum_bond_order
 _atom_site_pbe_magmom
Al  Al0  1  0.97088935  0.50000230  0.50000258  1  2.529101  0  0.47949  1.679464  0  2.447184  0
Al  Al1  1  0.97031125  0.16666077  0.83332804  1  2.528742  0  0.479895  1.680753  0  2.445915  0
H  H2  1  0.02968039  0.53347158  0.80013361  1  0.676642  0  0.316656  0.400186  0  0.939837  0
H  H3  1  0.02904850  0.13318552  0.53322408  1  0.674793  0  0.316836  0.400581  0  0.939278  0
H  H4  1  0.02947366  0.76664038  0.46652674  1  0.678631  0  0.316618  0.400253  0  0.939866  0
H  H5  1  0.02904458  0.90003694  0.86681668  1  0.677448  0  0.316847  0.400596  0  0.939253  0
H  H6  1  0.02943453  0.19989587  0.23335149  1  0.677514  0  0.31671  0.400511  0  0.939528  0
H  H7  1  0.02923992  0.46678859  0.09996384  1  0.676709  0  0.316751  0.400629  0  0.939345  0
C  C8  1  0.47961574  0.45066965  0.38534712  1  1.669585  0  0.281766  0.69895  0  4.079609  0
C  C9  1  0.47961789  0.43467694  0.54933370  1  1.66534  0  0.281899  0.699244  0  4.079501  0
C  C10  1  0.47962387  0.61465248  0.56531881  1  1.665248  0  0.281937  0.699426  0  4.079084  0
C  C11  1  0.47904083  0.23197039  0.78397557  1  1.66402  0  0.281352  0.698352  0  4.078156  0
C  C12  1  0.47903258  0.05199600  0.76801946  1  1.665687  0  0.281213  0.698097  0  4.078362  0
C  C13  1  0.47904752  0.21602087  0.94799432  1  1.666241  0  0.281336  0.698274  0  4.07835  0
C  C14  1  0.51934277  0.42978767  0.67833211  1  -0.116125  0  -0.034797  -0.186365  0  4.015362  0
C  C15  1  0.51910292  0.23685067  0.65497996  1  -0.116453  0  -0.034751  -0.186176  0  4.01499  0
C  C16  1  0.51910128  0.39792409  0.59846639  1  -0.08138  0  0.002342  -0.10155  0  3.893002  0
C  C17  1  0.51866202  0.26873430  0.73484774  1  -0.081635  0  0.002244  -0.101604  0  3.892361  0
C  C18  1  0.54597450  0.29582198  0.63435699  1  -0.119934  0  -0.024795  -0.038557  0  4.081213  0
C  C19  1  0.54597261  0.37082464  0.69896578  1  -0.173983  0  -0.024564  -0.037971  0  4.081187  0
C  C20  1  0.51933748  0.74853641  0.57020942  1  -0.106439  0  -0.034685  -0.186206  0  4.014935  0
C  C21  1  0.51907724  0.91812546  0.76314736  1  -0.108446  0  -0.034765  -0.186192  0  4.015367  0
C  C22  1  0.51909241  0.70053969  0.60207638  1  -0.153793  0  0.002303  -0.101745  0  3.893154  0
C  C23  1  0.51866950  0.96610116  0.73125822  1  -0.152049  0  0.002359  -0.101401  0  3.892507  0
C  C24  1  0.54595187  0.83853302  0.70417853  1  -0.103456  0  -0.024719  -0.038411  0  4.081221  0
C  C25  1  0.54596201  0.82813778  0.62917222  1  -0.18023  0  -0.024672  -0.03819  0  4.081067  0
C  C26  1  0.51927653  0.32167920  0.25145967  1  -0.052437  0  -0.034758  -0.186599  0  4.015406  0
C  C27  1  0.51916930  0.34502978  0.08186723  1  -0.054021  0  -0.034538  -0.185894  0  4.014933  0
C  C28  1  0.51909891  0.40154323  0.29946274  1  -0.189792  0  0.00239  -0.101367  0  3.892852  0
C  C29  1  0.51868046  0.26516253  0.03388647  1  -0.188102  0  0.002101  -0.101777  0  3.892351  0
C  C30  1  0.54600619  0.36565073  0.16146307  1  -0.107043  0  -0.024754  -0.038481  0  4.081096  0
C  C31  1  0.54592287  0.30104338  0.17185951  1  -0.186936  0  -0.024741  -0.038261  0  4.081533  0
S  S32  1  0.54452127  0.29768357  0.54876626  1  0.344027  0  0.14064  0.218678  0  2.770761  0
S  S33  1  0.54425274  0.36898361  0.78457011  1  0.344131  0  0.140445  0.218377  0  2.770122  0
S  S34  1  0.54448177  0.75108285  0.70232119  1  0.405206  0  0.140559  0.218632  0  2.770719  0
S  S35  1  0.54427493  0.91557362  0.63101174  1  0.405114  0  0.140537  0.218537  0  2.770447  0
S  S36  1  0.54458498  0.45123993  0.24891755  1  0.389867  0  0.140526  0.218603  0  2.770627  0
S  S37  1  0.54416188  0.21544739  0.08442086  1  0.389431  0  0.140554  0.218573  0  2.77039  0
S  S38  1  0.46354343  0.52868711  0.74843552  1  3.185499  0  0.560038  1.213342  0  6.009552  0
S  S39  1  0.46309314  0.13795880  0.58486820  1  3.183394  0  0.559894  1.213189  0  6.00875  0
S  S40  1  0.46343311  0.71974523  0.47130900  1  3.179601  0  0.559921  1.213308  0  6.008419  0
S  S41  1  0.46308151  0.94690603  0.86204155  1  3.179353  0  0.559943  1.21316  0  6.008766  0
S  S42  1  0.46339054  0.25157206  0.28024988  1  3.184409  0  0.560238  1.214012  0  6.008663  0
S  S43  1  0.46324390  0.41513994  0.05308328  1  3.184331  0  0.559798  1.213264  0  6.00906  0
O  O44  1  0.69771435  0.57791849  0.57449443  1  -1.253845  0  -0.238033  -0.604689  0  2.330006  0
O  O45  1  0.69773728  0.49657661  0.42208135  1  -1.255022  0  -0.238026  -0.604593  0  2.329674  0
O  O46  1  0.69773547  0.42550558  0.50342688  1  -1.256211  0  -0.238104  -0.604692  0  2.329642  0
O  O47  1  0.22639044  0.58845745  0.53243235  1  -1.231512  0  -0.21633  -0.577923  0  2.388435  0
O  O48  1  0.22643049  0.46756541  0.55602531  1  -1.234484  0  -0.216242  -0.577726  0  2.388779  0
O  O49  1  0.22643737  0.44397949  0.41154535  1  -1.235593  0  -0.216219  -0.577574  0  2.388813  0
O  O50  1  0.69703957  0.17008155  0.91124028  1  -1.253231  0  -0.237898  -0.604347  0  2.329318  0
O  O51  1  0.69703229  0.24115010  0.82991431  1  -1.254003  0  -0.237823  -0.604314  0  2.329363  0
O  O52  1  0.69705340  0.08875490  0.75884010  1  -1.252334  0  -0.237837  -0.60431  0  2.329055  0
O  O53  1  0.22578094  0.22268890  0.92180825  1  -1.234128  0  -0.216075  -0.577709  0  2.387899  0
O  O54  1  0.22578920  0.07818455  0.80087630  1  -1.233316  0  -0.216063  -0.577697  0  2.388128  0
O  O55  1  0.22576508  0.19911819  0.77730405  1  -1.234692  0  -0.216094  -0.577726  0  2.387757  0
O  O56  1  0.74367649  0.56124578  0.79125987  1  -1.322669  0  -0.306771  -0.541246  0  2.286829  0
O  O57  1  0.32370153  0.56907462  0.71399780  1  -1.282287  0  -0.292064  -0.501273  0  2.172328  0
O  O58  1  0.25348816  0.52055540  0.80681516  1  -1.274571  0  -0.348692  -0.54007  0  2.235267  0
O  O59  1  0.74311571  0.10537808  0.54198936  1  -1.322013  0  -0.307274  -0.541777  0  2.287393  0
O  O60  1  0.32337696  0.09758901  0.61934507  1  -1.280799  0  -0.291701  -0.500954  0  2.171786  0
O  O61  1  0.25288439  0.14613801  0.52654849  1  -1.272676  0  -0.348447  -0.539963  0  2.23391  0
O  O62  1  0.74348585  0.73002867  0.43872794  1  -1.319787  0  -0.307018  -0.541387  0  2.286357  0
O  O63  1  0.32363944  0.64491350  0.43092011  1  -1.289472  0  -0.291802  -0.501103  0  2.17208  0
O  O64  1  0.25328240  0.78624783  0.47946135  1  -1.274631  0  -0.348607  -0.540177  0  2.234998  0
O  O65  1  0.74310707  0.93660883  0.89462111  1  -1.319152  0  -0.307327  -0.541741  0  2.287479  0
O  O66  1  0.32334352  0.02175373  0.90241013  1  -1.289884  0  -0.291603  -0.500877  0  2.171672  0
O  O67  1  0.25288860  0.88040878  0.85386465  1  -1.273293  0  -0.348522  -0.540062  0  2.233914  0
O  O68  1  0.74345980  0.20871803  0.26996749  1  -1.319478  0  -0.307287  -0.541954  0  2.286965  0
O  O69  1  0.32359914  0.28601757  0.35508616  1  -1.286792  0  -0.291856  -0.501229  0  2.172029  0
O  O70  1  0.25325508  0.19322013  0.21374652  1  -1.278231  0  -0.348615  -0.540272  0  2.234512  0
O  O71  1  0.74330526  0.45800353  0.06337702  1  -1.318637  0  -0.307252  -0.541879  0  2.287454  0
O  O72  1  0.32350210  0.38066700  0.97823879  1  -1.287536  0  -0.291663  -0.500915  0  2.171997  0
O  O73  1  0.25306985  0.47346941  0.11958589  1  -1.277529  0  -0.348356  -0.540063  0  2.233921  0
