# generated using pymatgen
data_HgH16C20(BrN3)2
_symmetry_space_group_name_H-M   'P 1'
_cell_length_a   5.14154150
_cell_length_b   12.42504384
_cell_length_c   15.78466769
_cell_angle_alpha   94.37416311
_cell_angle_beta   89.99477461
_cell_angle_gamma   101.94583656
_symmetry_Int_Tables_number   1
_chemical_formula_structural   HgH16C20(BrN3)2
_chemical_formula_sum   'Hg2 H32 C40 Br4 N12'
_cell_volume   983.54698970
_cell_formula_units_Z   2
loop_
 _symmetry_equiv_pos_site_id
 _symmetry_equiv_pos_as_xyz
  1  'x, y, z'
loop_
 _atom_site_type_symbol
 _atom_site_label
 _atom_site_symmetry_multiplicity
 _atom_site_fract_x
 _atom_site_fract_y
 _atom_site_fract_z
 _atom_site_occupancy
 _atom_site_pbe_bader_spin_density
 _atom_site_pbe_cm5_charge
 _atom_site_pbe_ddec_charge
 _atom_site_pbe_ddec_spin_density
 _atom_site_pbe_ddec_sum_bond_order
 _atom_site_pbe_magmom
Hg  Hg0  1  0.51037423  0.99997007  0.75006987  1  0  0.470527  0.524502  0  2.61837  0
Hg  Hg1  1  0.48962495  0.00002991  0.24993051  1  0  0.470541  0.52452  0  2.618395  0
H  H2  1  0.84674225  0.90227382  0.56221318  1  0  0.128044  0.110668  0  1.017327  0
H  H3  1  0.94457583  0.09768686  0.93772665  1  0  0.127884  0.110472  0  1.017118  0
H  H4  1  0.15325693  0.09772616  0.43778656  1  0  0.128051  0.11069  0  1.017322  0
H  H5  1  0.05542099  0.90231230  0.06227431  1  0  0.127893  0.110498  0  1.017096  0
H  H6  1  0.81821647  0.78183146  0.80471039  1  0  0.124276  0.09438  0  1.023333  0
H  H7  1  0.03650377  0.21825497  0.69527769  1  0  0.124669  0.094307  0  1.022863  0
H  H8  1  0.18178312  0.21816934  0.19528940  1  0  0.124277  0.094365  0  1.023384  0
H  H9  1  0.96349541  0.78174501  0.30472268  1  0  0.124704  0.094352  0  1.022856  0
H  H10  1  0.38350620  0.75706105  0.56724089  1  0  0.10919  0.095447  0  1.025433  0
H  H11  1  0.62650802  0.24291665  0.93274011  1  0  0.10912  0.095696  0  1.025128  0
H  H12  1  0.61649533  0.24293975  0.43275953  1  0  0.109188  0.095436  0  1.02543  0
H  H13  1  0.37349034  0.75708168  0.06725953  1  0  0.109105  0.095678  0  1.02514  0
H  H14  1  0.15869893  0.78605070  0.49314502  1  0  0.10762  0.099808  0  1.016725  0
H  H15  1  0.37267708  0.21387714  0.00683014  1  0  0.107252  0.098941  0  1.017395  0
H  H16  1  0.84130179  0.21394846  0.50685467  1  0  0.107622  0.099786  0  1.016718  0
H  H17  1  0.62731975  0.78612202  0.99317019  1  0  0.10722  0.09892  0  1.017348  0
H  H18  1  0.46635830  0.65903077  0.64843785  1  0  0.093859  0.087584  0  1.068746  0
H  H19  1  0.80752591  0.34097361  0.85160422  1  0  0.094017  0.087687  0  1.068337  0
H  H20  1  0.53364129  0.34097004  0.35156384  1  0  0.093843  0.087576  0  1.068807  0
H  H21  1  0.19247326  0.65902637  0.14839615  1  0  0.094011  0.087698  0  1.068334  0
H  H22  1  0.69571004  0.52733163  0.70708458  1  0  0.098161  0.100051  0  1.025109  0
H  H23  1  0.16839673  0.47270470  0.79287241  1  0  0.097801  0.099738  0  1.025531  0
H  H24  1  0.30428914  0.47266836  0.29291642  1  0  0.098164  0.10005  0  1.025129  0
H  H25  1  0.83160440  0.52729528  0.20712733  1  0  0.097805  0.099752  0  1.025532  0
H  H26  1  0.56391815  0.32597434  0.65993302  1  0  0.093037  0.094069  0  1.022166  0
H  H27  1  0.23786146  0.67406678  0.83998592  1  0  0.093201  0.094723  0  1.020822  0
H  H28  1  0.43608492  0.67402564  0.34006672  1  0  0.093057  0.094116  0  1.022108  0
H  H29  1  0.76214007  0.32593403  0.16001387  1  0  0.09321  0.094726  0  1.020826  0
H  H30  1  0.21059067  0.26017720  0.55508805  1  0  0.08451  0.079359  0  1.072952  0
H  H31  1  0.95045226  0.73986676  0.94484535  1  0  0.084588  0.079652  0  1.072783  0
H  H32  1  0.78941087  0.73982361  0.44491237  1  0  0.084506  0.079351  0  1.072953  0
H  H33  1  0.04954651  0.26013240  0.05515434  1  0  0.084598  0.079686  0  1.072743  0
C  C34  1  0.87352591  0.85614055  0.61613061  1  0  0.145612  0.059291  0  3.953758  0
C  C35  1  0.01755466  0.14384015  0.88381623  1  0  0.147208  0.061965  0  3.950941  0
C  C36  1  0.12647327  0.14385943  0.38386913  1  0  0.145578  0.059216  0  3.953719  0
C  C37  1  0.98244298  0.85616066  0.11618356  1  0  0.147218  0.061961  0  3.950917  0
C  C38  1  0.86411129  0.79391201  0.73865257  1  0  0.134531  0.121265  0  4.031649  0
C  C39  1  0.07032916  0.20615682  0.76133135  1  0  0.135996  0.122457  0  4.028465  0
C  C40  1  0.13588830  0.20608879  0.26134722  1  0  0.134513  0.121247  0  4.031699  0
C  C41  1  0.92966961  0.79384234  0.23866898  1  0  0.135971  0.122341  0  4.02866  0
C  C42  1  0.17410991  0.73707330  0.54710222  1  0  -0.048172  -0.129167  0  3.897584  0
C  C43  1  0.43713013  0.26292229  0.95289151  1  0  -0.04797  -0.128383  0  3.897596  0
C  C44  1  0.82588968  0.26292751  0.45289757  1  0  -0.048159  -0.129109  0  3.897492  0
C  C45  1  0.56286864  0.73707686  0.04710945  1  0  -0.047924  -0.128337  0  3.897526  0
C  C46  1  0.08202189  0.61491234  0.52406859  1  0  -0.007976  -0.00078  0  3.898119  0
C  C47  1  0.46721117  0.38507882  0.97595683  1  0  -0.006858  0.001399  0  3.896135  0
C  C48  1  0.91797923  0.38508764  0.47593115  1  0  -0.007972  -0.000797  0  3.898214  0
C  C49  1  0.53279190  0.61492117  0.02404291  1  0  -0.006877  0.001354  0  3.896248  0
C  C50  1  0.20639647  0.53892873  0.56195798  1  0  -4.8e-05  0.042339  0  3.956764  0
C  C51  1  0.66751240  0.46107958  0.93805417  1  0  -0.001417  0.039689  0  3.956176  0
C  C52  1  0.79360619  0.46107042  0.43804235  1  0  -5.8e-05  0.042354  0  3.956711  0
C  C53  1  0.33248914  0.53892123  0.06194562  1  0  -0.001428  0.039687  0  3.956172  0
C  C54  1  0.41165860  0.57260033  0.62525350  1  0  -0.089982  -0.122829  0  3.969823  0
C  C55  1  0.83912496  0.42740289  0.87476033  1  0  -0.090721  -0.122927  0  3.969418  0
C  C56  1  0.58834058  0.42739965  0.37474687  1  0  -0.089989  -0.122825  0  3.969854  0
C  C57  1  0.16087616  0.57259709  0.12524004  1  0  -0.090781  -0.123032  0  3.969375  0
C  C58  1  0.53806644  0.49864352  0.65953576  1  0  -0.090908  -0.071051  0  3.984542  0
C  C59  1  0.03941605  0.50138869  0.84043158  1  0  -0.088933  -0.069162  0  3.986151  0
C  C60  1  0.46193622  0.50135564  0.34046457  1  0  -0.090934  -0.071146  0  3.984585  0
C  C61  1  0.96058077  0.49861047  0.15956938  1  0  -0.088861  -0.069101  0  3.986006  0
C  C62  1  0.46393584  0.38489320  0.63280693  1  0  -0.090083  -0.061625  0  4.006576  0
C  C63  1  0.07894003  0.61513848  0.86713175  1  0  -0.091258  -0.063379  0  4.00761  0
C  C64  1  0.53606569  0.61510761  0.36719286  1  0  -0.090059  -0.061554  0  4.006388  0
C  C65  1  0.92106109  0.38486150  0.13286862  1  0  -0.091276  -0.063374  0  4.007668  0
C  C66  1  0.26252024  0.34824654  0.57390728  1  0  -0.104734  -0.149954  0  3.996294  0
C  C67  1  0.91418713  0.65178940  0.92603744  1  0  -0.103141  -0.149022  0  3.99632  0
C  C68  1  0.73748088  0.65175344  0.42609246  1  0  -0.104707  -0.149956  0  3.996284  0
C  C69  1  0.08581010  0.34821058  0.07396357  1  0  -0.103133  -0.149037  0  3.996285  0
C  C70  1  0.87477404  0.57782369  0.46344565  1  0  -0.004704  0.037604  0  3.970648  0
C  C71  1  0.29699453  0.42214887  0.03657721  1  0  -0.005992  0.037039  0  3.970955  0
C  C72  1  0.12522514  0.42217630  0.53655409  1  0  -0.004674  0.03765  0  3.970706  0
C  C73  1  0.70300619  0.57785029  0.96342248  1  0  -0.005988  0.03706  0  3.971114  0
Br  Br74  1  0.44068451  0.07076015  0.60691121  1  0  -0.232422  -0.366885  0  1.320868  0
Br  Br75  1  0.37041720  0.92953775  0.89338699  1  0  -0.231855  -0.36627  0  1.322337  0
Br  Br76  1  0.55931508  0.92924066  0.39308921  1  0  -0.232416  -0.366881  0  1.320889  0
Br  Br77  1  0.62958157  0.07046141  0.10661270  1  0  -0.231869  -0.366298  0  1.322355  0
N  N78  1  0.76954418  0.86715026  0.69322635  1  0  -0.338431  -0.303364  0  3.500644  0
N  N79  1  0.90257939  0.13284794  0.80672959  1  0  -0.340825  -0.305622  0  3.502819  0
N  N80  1  0.23045694  0.13284972  0.30677276  1  0  -0.338381  -0.303291  0  3.500576  0
N  N81  1  0.09741784  0.86715204  0.19327078  1  0  -0.340841  -0.305598  0  3.502823  0
N  N82  1  0.02186480  0.77869262  0.61620924  1  0  -0.13202  0.170473  0  3.726931  0
N  N83  1  0.24327681  0.22134987  0.88377351  1  0  -0.132632  0.167463  0  3.726857  0
N  N84  1  0.97813479  0.22130818  0.38379055  1  0  -0.132038  0.17047  0  3.72687  0
N  N85  1  0.75672083  0.77865094  0.11622691  1  0  -0.132679  0.167389  0  3.726807  0
N  N86  1  0.01911147  0.73833917  0.69404583  1  0  -0.21447  -0.248651  0  3.13149  0
N  N87  1  0.28085645  0.26175424  0.80595029  1  0  -0.215579  -0.249039  0  3.130475  0
N  N88  1  0.98088812  0.26166164  0.30595396  1  0  -0.214473  -0.248649  0  3.131479  0
N  N89  1  0.71914273  0.73824574  0.19405072  1  0  -0.215527  -0.248904  0  3.130465  0
