# generated using pymatgen
data_Zn2H20C25SN8O3
_symmetry_space_group_name_H-M   'P 1'
_cell_length_a   14.86162210
_cell_length_b   14.91351807
_cell_length_c   14.83144050
_cell_angle_alpha   112.01439697
_cell_angle_beta   103.94552971
_cell_angle_gamma   112.46152259
_symmetry_Int_Tables_number   1
_chemical_formula_structural   Zn2H20C25SN8O3
_chemical_formula_sum   'Zn4 H40 C50 S2 N16 O6'
_cell_volume   2517.28259962
_cell_formula_units_Z   2
loop_
 _symmetry_equiv_pos_site_id
 _symmetry_equiv_pos_as_xyz
  1  'x, y, z'
loop_
 _atom_site_type_symbol
 _atom_site_label
 _atom_site_symmetry_multiplicity
 _atom_site_fract_x
 _atom_site_fract_y
 _atom_site_fract_z
 _atom_site_occupancy
 _atom_site_pbe_bader_charge
 _atom_site_pbe_bader_spin_density
 _atom_site_pbe_cm5_charge
 _atom_site_pbe_ddec_charge
 _atom_site_pbe_ddec_spin_density
 _atom_site_pbe_ddec_sum_bond_order
 _atom_site_pbe_magmom
Zn  Zn0  1  0.47118109  0.84528306  0.35626826  1  1.188724  0  0.739842  0.607039  0  2.446051  0
Zn  Zn1  1  0.32683201  0.84507860  0.49162297  1  1.187966  0  0.740667  0.608866  0  2.436811  0
Zn  Zn2  1  0.47285197  0.12229229  0.62903788  1  1.186688  0  0.745951  0.604354  0  2.473481  0
Zn  Zn3  1  0.60753464  0.12089424  0.48685527  1  1.186514  0  0.747185  0.601722  0  2.490344  0
H  H4  1  0.51308188  0.79543992  0.13225448  1  0.068993  0  0.112089  0.097622  0  1.010305  0
H  H5  1  0.98150383  0.54854076  0.80954059  1  0.083955  0  0.115873  0.112011  0  0.965185  0
H  H6  1  0.81832953  0.55320314  0.00828439  1  0.060099  0  0.111187  0.106222  0  0.979455  0
H  H7  1  0.00381936  0.56741227  0.12079870  1  0.022355  0  0.09061  0.090846  0  0.977888  0
H  H8  1  0.09611536  0.56160376  0.06711643  1  0.045424  0  0.094341  0.097702  0  0.975962  0
H  H9  1  0.86607156  0.41662482  0.94510751  1  0.035658  0  0.094216  0.094026  0  0.988768  0
H  H10  1  0.95662368  0.43760540  0.88712181  1  0.018449  0  0.093871  0.094018  0  0.978104  0
H  H11  1  0.10830006  0.80946825  0.53937923  1  0.065528  0  0.11527  0.103917  0  1.001994  0
H  H12  1  0.98690724  0.83140548  0.62844058  1  0.044222  0  0.09479  0.09465  0  1.015603  0
H  H13  1  0.55919093  0.79936707  0.98780235  1  0.041036  0  0.094459  0.091102  0  1.01142  0
H  H14  1  0.81895868  0.83207313  0.61415491  1  0.064196  0  0.10328  0.107606  0  0.992225  0
H  H15  1  0.54314071  0.80048226  0.82005847  1  0.053817  0  0.101336  0.103214  0  0.996793  0
H  H16  1  0.97558418  0.17408848  0.67778212  1  0.054476  0  0.094005  0.091902  0  1.014769  0
H  H17  1  0.69108128  0.16427275  0.99828163  1  0.046022  0  0.094434  0.092169  0  1.01339  0
H  H18  1  0.14305729  0.17387448  0.69289727  1  0.04544  0  0.094395  0.091806  0  1.013658  0
H  H19  1  0.70747311  0.16316786  0.16547479  1  0.039948  0  0.095099  0.092453  0  1.013929  0
H  H20  1  0.21265519  0.40364441  0.42186063  1  0.033898  0  0.095643  0.093197  0  1.009094  0
H  H21  1  0.41617726  0.42443385  0.25749665  1  0.025208  0  0.095012  0.092077  0  1.012814  0
H  H22  1  0.30785181  0.17669668  0.72731176  1  0.109855  0  0.116271  0.10431  0  0.999638  0
H  H23  1  0.70161056  0.16311841  0.31631711  1  0.098225  0  0.11655  0.102966  0  1.004336  0
H  H24  1  0.22595777  0.24903383  0.43263693  1  0.05384  0  0.098348  0.097917  0  1.003449  0
H  H25  1  0.43013843  0.27093584  0.26903467  1  0.042402  0  0.096761  0.0949  0  1.008733  0
H  H26  1  0.47446169  0.15485315  0.31017695  1  0.076835  0  0.115118  0.100422  0  1.009972  0
H  H27  1  0.98331925  0.78858738  0.06922818  1  0.080043  0  0.104612  0.126258  0  0.979423  0
H  H28  1  0.29605831  0.15863659  0.50251231  1  0.081607  0  0.114909  0.100455  0  1.009757  0
H  H29  1  0.11133802  0.79668329  0.31430700  1  0.080789  0  0.113432  0.100125  0  1.012253  0
H  H30  1  0.30514031  0.80072581  0.13750730  1  0.085117  0  0.111935  0.099906  0  1.017012  0
H  H31  1  0.43275205  0.58843179  0.27529165  1  0.079552  0  0.113558  0.099037  0  1.00806  0
H  H32  1  0.23821554  0.58104847  0.45051116  1  0.064739  0  0.115463  0.102419  0  1.00368  0
H  H33  1  0.10834440  0.78101795  0.99264016  1  0.033507  0  0.098777  0.098216  0  1.000461  0
H  H34  1  0.64895411  0.38292446  0.84631584  1  0.076736  0  0.112177  0.105132  0  1.013919  0
H  H35  1  0.82405670  0.38796084  0.65201433  1  0.08474  0  0.115323  0.105372  0  1.003863  0
H  H36  1  0.81814945  0.17672763  0.67214366  1  0.086685  0  0.111708  0.096586  0  1.019573  0
H  H37  1  0.65011084  0.16545877  0.83992120  1  0.092714  0  0.111476  0.094657  0  1.018562  0
H  H38  1  0.45638831  0.79707701  0.65816807  1  0.090349  0  0.116149  0.103022  0  1.008196  0
H  H39  1  0.64867820  0.80874154  0.49186695  1  0.071036  0  0.116349  0.103355  0  1.004293  0
H  H40  1  0.96264246  0.73225712  0.15297195  1  0.049588  0  0.096627  0.104168  0  0.980707  0
H  H41  1  0.14017341  0.67411909  0.96831502  1  0.023098  0  0.097349  0.104084  0  0.971799  0
H  H42  1  0.66896382  0.62654899  0.03124553  1  0.628115  0  0.343344  0.394923  0  0.857359  0
H  H43  1  0.08742598  0.81127933  0.83418941  1  0.610969  0  0.352265  0.40562  0  0.840536  0
C  C44  1  0.55689600  0.88576461  0.19191622  1  0.427992  0  -0.000734  -0.0675  0  4.012874  0
C  C45  1  0.67451434  0.89792824  0.52802926  1  0.393992  0  0.008152  -0.045975  0  3.955175  0
C  C46  1  0.76810123  0.36834885  0.68679041  1  0.399696  0  0.000647  -0.056344  0  4.005662  0
C  C47  1  0.49630707  0.88741990  0.68797637  1  0.394738  0  0.007061  -0.04801  0  3.957955  0
C  C48  1  0.32654539  0.53518663  0.35381605  1  0.011442  0  -0.039284  -0.040551  0  4.104648  0
C  C49  1  0.77781248  0.43314689  0.78949211  1  0.076414  0  -0.042029  -0.056488  0  4.035741  0
C  C50  1  0.77814001  0.99531049  0.60485052  1  0.025188  0  -0.035277  -0.039803  0  4.072509  0
C  C51  1  0.57540368  0.98102929  0.79267749  1  0.018539  0  -0.036227  -0.039771  0  4.070822  0
C  C52  1  0.17168062  0.89868705  0.58263438  1  0.399122  0  0.000692  -0.064182  0  4.006054  0
C  C53  1  0.96784418  0.71393467  0.07616703  1  -0.04548  0  -0.160332  -0.225228  0  3.867132  0
C  C54  1  0.07799135  0.69446913  0.97709937  1  0.016133  0  -0.157126  -0.212946  0  3.860691  0
C  C55  1  0.85903836  0.60807803  0.98024503  1  -0.098794  0  -0.070167  -0.177532  0  3.720388  0
C  C56  1  0.96981041  0.60764376  0.86988166  1  -0.131807  0  -0.068865  -0.186283  0  3.748775  0
C  C57  1  0.02607190  0.57266435  0.05660719  1  -0.036576  0  -0.163169  -0.194431  0  3.884884  0
C  C58  1  0.06164339  0.69272467  0.07525264  1  0.059801  0  -0.005962  0.149024  0  3.815184  0
C  C59  1  0.87873297  0.53474279  0.88992866  1  0.053144  0  0.002533  0.120519  0  3.780996  0
C  C60  1  0.27266589  0.08574435  0.67734964  1  0.38694  0  0.001319  -0.066499  0  4.011287  0
C  C61  1  0.65246123  0.07290402  0.28527157  1  0.403818  0  0.003022  -0.061762  0  4.004121  0
C  C62  1  0.93110374  0.48234913  0.94320503  1  -0.021246  0  -0.155545  -0.183398  0  3.86088  0
C  C63  1  0.98488183  0.90702495  0.63901048  1  -0.071186  0  -0.099894  -0.139678  0  4.010823  0
C  C64  1  0.58762573  0.88003298  0.99076214  1  -0.029783  0  -0.096493  -0.128633  0  4.007947  0
C  C65  1  0.88961466  0.90732403  0.63076581  1  -0.036949  0  -0.094642  -0.130873  0  3.990554  0
C  C66  1  0.57858939  0.88062173  0.89547062  1  -0.02892  0  -0.092924  -0.128085  0  3.989674  0
C  C67  1  0.88220671  0.00140591  0.63989797  1  0.024018  0  -0.01175  0.084367  0  4.044124  0
C  C68  1  0.76154366  0.08555943  0.61931328  1  0.41592  0  0.003519  -0.05482  0  3.975987  0
C  C69  1  0.60977784  0.98169056  0.89405483  1  -0.019846  0  -0.011326  0.083888  0  4.044621  0
C  C70  1  0.97801026  0.09926282  0.66925737  1  -0.061689  0  -0.099555  -0.135171  0  4.016246  0
C  C71  1  0.66228748  0.08347760  0.99498340  1  -0.039223  0  -0.099846  -0.135594  0  4.01799  0
C  C72  1  0.07290673  0.09904178  0.67757484  1  -0.060658  0  -0.101364  -0.137057  0  4.023489  0
C  C73  1  0.67139219  0.08284404  0.09003311  1  -0.088225  0  -0.100683  -0.138104  0  4.02446  0
C  C74  1  0.59480900  0.07516898  0.78084785  1  0.402242  0  0.005732  -0.049964  0  3.969311  0
C  C75  1  0.07691681  0.00089594  0.65714354  1  0.01477  0  -0.019432  0.072608  0  4.07051  0
C  C76  1  0.62861140  0.98036032  0.08918973  1  0.062801  0  -0.016937  0.075289  0  4.062933  0
C  C77  1  0.26059208  0.37489183  0.38779153  1  -0.042211  0  -0.097757  -0.133439  0  4.012946  0
C  C78  1  0.37347435  0.38616197  0.29574587  1  -0.04792  0  -0.099376  -0.13513  0  4.017841  0
C  C79  1  0.26806445  0.28700687  0.39383988  1  -0.026994  0  -0.096288  -0.132429  0  4.003152  0
C  C80  1  0.38106388  0.29852845  0.30188031  1  -0.018659  0  -0.096866  -0.131522  0  4.009122  0
C  C81  1  0.33317361  0.25052032  0.35604294  1  -0.001043  0  -0.010658  0.084232  0  4.048191  0
C  C82  1  0.43768597  0.14791794  0.36413450  1  0.402705  0  0.007248  -0.047173  0  3.962899  0
C  C83  1  0.34657785  0.14950073  0.46192257  1  0.404729  0  0.008156  -0.043859  0  3.955375  0
C  C84  1  0.31740594  0.43036260  0.34324052  1  0.015955  0  -0.0173  0.075319  0  4.065078  0
C  C85  1  0.17334043  0.80518102  0.28590946  1  0.391269  0  -0.000782  -0.063724  0  3.981202  0
C  C86  1  0.27185849  0.80693942  0.19576257  1  0.376621  0  -0.003261  -0.068478  0  3.986814  0
C  C87  1  0.61748416  0.97911030  0.18393018  1  -0.049154  0  -0.038791  -0.037993  0  4.100405  0
C  C88  1  0.16933122  0.99525503  0.64426453  1  -0.005629  0  -0.041403  -0.043534  0  4.110709  0
C  C89  1  0.36374135  0.17958261  0.38555633  1  0.020517  0  -0.036249  -0.041376  0  4.074262  0
C  C90  1  0.16483419  0.77408232  0.18090395  1  0.003358  0  -0.038211  -0.052536  0  3.988228  0
C  C91  1  0.38700295  0.60308612  0.32032060  1  0.386841  0  0.001348  -0.063359  0  4.012743  0
C  C92  1  0.28798534  0.59933033  0.40945824  1  0.397003  0  0.001747  -0.063517  0  4.003647  0
C  C93  1  0.67863652  0.36582951  0.78544667  1  0.385609  0  -0.001644  -0.061125  0  3.999632  0
S  S94  1  0.75864989  0.64799670  0.94041403  1  2.962246  0  0.537032  1.148986  0  5.80964  0
S  S95  1  0.93617805  0.67786253  0.80174930  1  2.99627  0  0.532978  1.152074  0  5.878275  0
N  N96  1  0.55591268  0.92143927  0.28950533  1  -0.79821  0  -0.270804  -0.174211  0  3.548128  0
N  N97  1  0.40766225  0.10649150  0.48526128  1  -0.766775  0  -0.28445  -0.183383  0  3.633303  0
N  N98  1  0.46365254  0.10551325  0.42510694  1  -0.802321  0  -0.28483  -0.181876  0  3.635211  0
N  N99  1  0.27718176  0.85099451  0.35653840  1  -0.810515  0  -0.280112  -0.175075  0  3.622532  0
N  N100  1  0.33772627  0.85216968  0.30125157  1  -0.742247  0  -0.279957  -0.177283  0  3.624561  0
N  N101  1  0.38443645  0.69890620  0.35320299  1  -0.826163  0  -0.27424  -0.176308  0  3.560932  0
N  N102  1  0.32265736  0.69669541  0.40876900  1  -0.747831  0  -0.270033  -0.174532  0  3.541738  0
N  N103  1  0.26807248  0.92955975  0.57914802  1  -0.805711  0  -0.270951  -0.174893  0  3.546995  0
N  N104  1  0.61469151  0.26891296  0.68754029  1  -0.780189  0  -0.270529  -0.165396  0  3.543665  0
N  N105  1  0.67034439  0.27032840  0.62613890  1  -0.815139  0  -0.272377  -0.168586  0  3.541748  0
N  N106  1  0.65736780  0.04433478  0.55433468  1  -0.749569  0  -0.285017  -0.183592  0  3.64389  0
N  N107  1  0.53049454  0.03948128  0.67840794  1  -0.832868  0  -0.284147  -0.179016  0  3.64861  0
N  N108  1  0.46986418  0.92414970  0.62122202  1  -0.758862  0  -0.28221  -0.182381  0  3.631724  0
N  N109  1  0.60383756  0.92903102  0.49798898  1  -0.828453  0  -0.280902  -0.177892  0  3.624896  0
N  N110  1  0.33097694  0.04616779  0.63848133  1  -0.773613  0  -0.270943  -0.168572  0  3.551201  0
N  N111  1  0.61551444  0.03806986  0.34746019  1  -0.779306  0  -0.273465  -0.169658  0  3.563411  0
O  O112  1  0.80137249  0.76503601  0.01910932  1  -1.286773  0  -0.312242  -0.527129  0  2.102214  0
O  O113  1  0.84901468  0.59454653  0.69423387  1  -1.285984  0  -0.302052  -0.501638  0  2.125446  0
O  O114  1  0.93638059  0.77423180  0.87573235  1  -1.289564  0  -0.307977  -0.529721  0  2.132876  0
O  O115  1  0.04594734  0.72868312  0.78517968  1  -1.152053  0  -0.380327  -0.559611  0  2.098178  0
O  O116  1  0.70943144  0.60237953  0.82561269  1  -1.261326  0  -0.288758  -0.486264  0  2.157  0
O  O117  1  0.66319144  0.57209907  0.96412312  1  -1.173528  0  -0.388766  -0.577785  0  2.10411  0
