# generated using pymatgen
data_ZnH9C9NO5
_symmetry_space_group_name_H-M   'P 1'
_cell_length_a   6.02654360
_cell_length_b   9.27547403
_cell_length_c   17.82541058
_cell_angle_alpha   89.99991102
_cell_angle_beta   89.99968335
_cell_angle_gamma   89.99997607
_symmetry_Int_Tables_number   1
_chemical_formula_structural   ZnH9C9NO5
_chemical_formula_sum   'Zn4 H36 C36 N4 O20'
_cell_volume   996.42349291
_cell_formula_units_Z   4
loop_
 _symmetry_equiv_pos_site_id
 _symmetry_equiv_pos_as_xyz
  1  'x, y, z'
loop_
 _atom_site_type_symbol
 _atom_site_label
 _atom_site_symmetry_multiplicity
 _atom_site_fract_x
 _atom_site_fract_y
 _atom_site_fract_z
 _atom_site_occupancy
 _atom_site_hle17_bader_spin_density
 _atom_site_hle17_ddec_charge
 _atom_site_hle17_ddec_spin_density
 _atom_site_hle17_ddec_sum_bond_order
 _atom_site_hle17_magmom
 _atom_site_hse06_10hf_bader_spin_density
 _atom_site_hse06_10hf_ddec_charge
 _atom_site_hse06_10hf_ddec_spin_density
 _atom_site_hse06_10hf_ddec_sum_bond_order
 _atom_site_hse06_10hf_magmom
 _atom_site_hse06_bader_spin_density
 _atom_site_hse06_ddec_charge
 _atom_site_hse06_ddec_spin_density
 _atom_site_hse06_ddec_sum_bond_order
 _atom_site_hse06_magmom
 _atom_site_pbe_bader_spin_density
 _atom_site_pbe_cm5_charge
 _atom_site_pbe_ddec_charge
 _atom_site_pbe_ddec_spin_density
 _atom_site_pbe_ddec_sum_bond_order
 _atom_site_pbe_magmom
Zn  Zn0  1  0.55321563  0.24817417  0.44031799  1  0  1.105168  0  1.747849  0  0  0.929499  0  2.194464  0  0  0.980104  0  2.136813  0  0  0.684801  0.893927  0  2.233013  0
Zn  Zn1  1  0.94678197  0.75182415  0.94031881  1  0  1.10514  0  1.747887  0  0  0.929477  0  2.194509  0  0  0.980078  0  2.136857  0  0  0.6848  0.893904  0  2.233073  0
Zn  Zn2  1  0.44677606  0.74817510  0.05968094  1  0  1.105186  0  1.747816  0  0  0.92953  0  2.19441  0  0  0.980126  0  2.136759  0  0  0.684813  0.893965  0  2.232956  0
Zn  Zn3  1  0.05321995  0.25182560  0.55968121  1  0  1.105159  0  1.747865  0  0  0.929496  0  2.194476  0  0  0.980095  0  2.136825  0  0  0.684786  0.893925  0  2.233037  0
H  H4  1  0.62663518  0.12554449  0.32068874  1  0  0.367471  0  0.946164  0  0  0.337458  0  1.022963  0  0  0.349665  0  1.010664  0  0  0.289755  0.328864  0  1.031404  0
H  H5  1  0.87336601  0.87445635  0.82068905  1  0  0.367458  0  0.946172  0  0  0.337434  0  1.022979  0  0  0.349641  0  1.01068  0  0  0.289752  0.328842  0  1.031417  0
H  H6  1  0.37334997  0.62553967  0.17931196  1  0  0.367433  0  0.946127  0  0  0.337413  0  1.022945  0  0  0.349618  0  1.010649  0  0  0.289726  0.328819  0  1.031386  0
H  H7  1  0.12664246  0.37445849  0.67931144  1  0  0.367424  0  0.946175  0  0  0.337405  0  1.022977  0  0  0.349611  0  1.010683  0  0  0.289729  0.328811  0  1.031419  0
H  H8  1  0.48702937  0.45496811  0.31495200  1  0  0.099001  0  0.958833  0  0  0.103557  0  1.027129  0  0  0.106837  0  1.02403  0  0  0.121125  0.100772  0  1.029876  0
H  H9  1  0.01296586  0.54503178  0.81495099  1  0  0.098974  0  0.958873  0  0  0.103578  0  1.027109  0  0  0.106858  0  1.024013  0  0  0.121124  0.100791  0  1.02986  0
H  H10  1  0.51295055  0.95496432  0.18504790  1  0  0.099074  0  0.958778  0  0  0.103627  0  1.027068  0  0  0.106908  0  1.02397  0  0  0.121128  0.100826  0  1.029831  0
H  H11  1  0.98704949  0.04503587  0.68504750  1  0  0.099072  0  0.958773  0  0  0.103628  0  1.027046  0  0  0.10691  0  1.023948  0  0  0.121122  0.100831  0  1.029807  0
H  H12  1  0.49781011  0.72096965  0.28982315  1  0  0.127799  0  0.968029  0  0  0.132542  0  1.03362  0  0  0.137063  0  1.030697  0  0  0.11248  0.129006  0  1.036283  0
H  H13  1  0.00218718  0.27902925  0.78982349  1  0  0.127814  0  0.968045  0  0  0.132537  0  1.033659  0  0  0.137058  0  1.030736  0  0  0.11249  0.128994  0  1.036327  0
H  H14  1  0.50217497  0.22096622  0.21017749  1  0  0.127784  0  0.968098  0  0  0.132556  0  1.033638  0  0  0.137078  0  1.030714  0  0  0.112503  0.129017  0  1.036301  0
H  H15  1  0.99783131  0.77903497  0.71017819  1  0  0.127798  0  0.968084  0  0  0.132581  0  1.033625  0  0  0.137103  0  1.030699  0  0  0.112506  0.129041  0  1.036289  0
H  H16  1  0.58757440  0.78775939  0.52667761  1  0  0.114489  0  0.943039  0  0  0.124103  0  1.000178  0  0  0.127407  0  0.999646  0  0  0.11038  0.121608  0  1.000882  0
H  H17  1  0.91243648  0.21223914  0.02667726  1  0  0.114451  0  0.943093  0  0  0.124067  0  1.000237  0  0  0.127361  0  0.999714  0  0  0.110361  0.12157  0  1.000948  0
H  H18  1  0.41243911  0.28776486  0.97332182  1  0  0.114435  0  0.943081  0  0  0.124024  0  1.000247  0  0  0.127315  0  0.999729  0  0  0.110348  0.12155  0  1.00093  0
H  H19  1  0.08756852  0.71223562  0.47332338  1  0  0.114547  0  0.943029  0  0  0.124135  0  1.000196  0  0  0.127429  0  0.999673  0  0  0.110378  0.121636  0  1.000903  0
H  H20  1  0.58629835  0.51805778  0.54249053  1  0  0.080707  0  0.937811  0  0  0.090888  0  0.998058  0  0  0.092844  0  0.996694  0  0  0.117377  0.089181  0  0.99929  0
H  H21  1  0.91371393  0.48194178  0.04249222  1  0  0.080723  0  0.93781  0  0  0.090908  0  0.998047  0  0  0.092862  0  0.996689  0  0  0.117375  0.089199  0  0.999284  0
H  H22  1  0.41370540  0.01806222  0.95750742  1  0  0.080768  0  0.937815  0  0  0.090937  0  0.998039  0  0  0.092893  0  0.996678  0  0  0.117385  0.089228  0  0.999269  0
H  H23  1  0.08629916  0.98193831  0.45750710  1  0  0.080759  0  0.937826  0  0  0.090929  0  0.998033  0  0  0.092885  0  0.996674  0  0  0.117395  0.089217  0  0.999269  0
H  H24  1  0.96648367  0.15381046  0.28250416  1  0  0.055554  0  0.917752  0  0  0.069924  0  0.971933  0  0  0.070584  0  0.972111  0  0  0.112571  0.069191  0  0.972108  0
H  H25  1  0.53351812  0.84619482  0.78250625  1  0  0.055548  0  0.917709  0  0  0.069915  0  0.971873  0  0  0.070572  0  0.972072  0  0  0.112548  0.069182  0  0.972047  0
H  H26  1  0.03350146  0.65381422  0.21749597  1  0  0.055564  0  0.917782  0  0  0.069843  0  0.972003  0  0  0.070518  0  0.972216  0  0  0.112566  0.069112  0  0.972173  0
H  H27  1  0.46649036  0.34618706  0.71749594  1  0  0.055564  0  0.91777  0  0  0.06992  0  0.971948  0  0  0.070589  0  0.97213  0  0  0.112596  0.06919  0  0.972122  0
H  H28  1  0.85996527  0.39559551  0.22537841  1  0  0.118996  0  0.940774  0  0  0.138264  0  1.003287  0  0  0.140207  0  1.002919  0  0  0.091821  0.136764  0  1.003718  0
H  H29  1  0.64003412  0.60441211  0.72537824  1  0  0.118976  0  0.940905  0  0  0.138252  0  1.003398  0  0  0.140191  0  1.003032  0  0  0.09179  0.136753  0  1.003822  0
H  H30  1  0.14003461  0.89560014  0.27462097  1  0  0.119047  0  0.940825  0  0  0.138352  0  1.003315  0  0  0.140297  0  1.002944  0  0  0.091809  0.136853  0  1.003736  0
H  H31  1  0.35996293  0.10440096  0.77462133  1  0  0.119001  0  0.940851  0  0  0.138298  0  1.00334  0  0  0.140242  0  1.002971  0  0  0.091799  0.136801  0  1.003762  0
H  H32  1  0.13890658  0.38825251  0.25965713  1  0  0.121686  0  0.972259  0  0  0.136292  0  1.043217  0  0  0.138429  0  1.042639  0  0  0.091373  0.134621  0  1.043871  0
H  H33  1  0.36109120  0.61175403  0.75965598  1  0  0.121689  0  0.972312  0  0  0.136297  0  1.043261  0  0  0.138433  0  1.042684  0  0  0.091381  0.134629  0  1.043912  0
H  H34  1  0.86106344  0.88825494  0.24034169  1  0  0.121738  0  0.972258  0  0  0.13638  0  1.043198  0  0  0.138518  0  1.042616  0  0  0.091383  0.134701  0  1.043866  0
H  H35  1  0.63893074  0.11174724  0.74034246  1  0  0.121699  0  0.972238  0  0  0.13633  0  1.043181  0  0  0.138466  0  1.042602  0  0  0.091384  0.134657  0  1.043845  0
H  H36  1  0.92851959  0.47916953  0.31207758  1  0  0.103391  0  0.950949  0  0  0.123644  0  1.012407  0  0  0.124819  0  1.013172  0  0  0.086981  0.122676  0  1.01215  0
H  H37  1  0.57148007  0.52083458  0.81207592  1  0  0.103417  0  0.950978  0  0  0.123643  0  1.012473  0  0  0.124821  0  1.013235  0  0  0.086954  0.122672  0  1.012223  0
H  H38  1  0.07147358  0.97917122  0.18791725  1  0  0.103495  0  0.950903  0  0  0.123802  0  1.0123  0  0  0.124977  0  1.013065  0  0  0.087081  0.122833  0  1.012043  0
H  H39  1  0.42852369  0.02082908  0.68791922  1  0  0.103494  0  0.950876  0  0  0.123748  0  1.012326  0  0  0.124921  0  1.013094  0  0  0.087064  0.122782  0  1.012067  0
C  C40  1  0.50901504  0.53202610  0.36039382  1  0  0.128061  0  3.676984  0  0  0.099445  0  3.9258  0  0  0.105162  0  3.944301  0  0  0.047741  0.095698  0  3.913337  0
C  C41  1  0.99097886  0.46797570  0.86039421  1  0  0.128084  0  3.677017  0  0  0.099437  0  3.925853  0  0  0.105146  0  3.944356  0  0  0.047804  0.095695  0  3.913387  0
C  C42  1  0.49096520  0.03202289  0.13960584  1  0  0.127822  0  3.67719  0  0  0.099222  0  3.926022  0  0  0.104926  0  3.94453  0  0  0.047656  0.09549  0  3.913557  0
C  C43  1  0.00903617  0.96797432  0.63960733  1  0  0.127841  0  3.677023  0  0  0.099268  0  3.925831  0  0  0.104969  0  3.944341  0  0  0.047677  0.095529  0  3.913373  0
C  C44  1  0.51548979  0.67948812  0.34665774  1  0  -0.129502  0  3.690682  0  0  -0.147828  0  3.932565  0  0  -0.15355  0  3.952913  0  0  -0.079688  -0.144171  0  3.919416  0
C  C45  1  0.98451430  0.32051156  0.84665714  1  0  -0.129526  0  3.690652  0  0  -0.147833  0  3.932585  0  0  -0.153555  0  3.952933  0  0  -0.07971  -0.144167  0  3.919428  0
C  C46  1  0.48451191  0.17948703  0.15334236  1  0  -0.129459  0  3.690747  0  0  -0.147779  0  3.932647  0  0  -0.153496  0  3.952996  0  0  -0.079709  -0.144119  0  3.919483  0
C  C47  1  0.01548923  0.82051014  0.65334170  1  0  -0.129527  0  3.690594  0  0  -0.147879  0  3.932491  0  0  -0.153592  0  3.95283  0  0  -0.079679  -0.14422  0  3.919328  0
C  C48  1  0.54666303  0.77430366  0.40668154  1  0  -0.011703  0  3.734938  0  0  0.005703  0  3.966898  0  0  0.003447  0  3.987279  0  0  0.000898  0.007336  0  3.952446  0
C  C49  1  0.95333843  0.22569583  0.90668051  1  0  -0.011618  0  3.734835  0  0  0.005745  0  3.96686  0  0  0.003491  0  3.987237  0  0  0.000866  0.007374  0  3.952405  0
C  C50  1  0.45332865  0.27430277  0.09331849  1  0  -0.011689  0  3.734801  0  0  0.005623  0  3.966899  0  0  0.003363  0  3.987278  0  0  0.000895  0.007252  0  3.952456  0
C  C51  1  0.04667512  0.72569243  0.59331953  1  0  -0.011427  0  3.734547  0  0  0.005892  0  3.966601  0  0  0.003637  0  3.986977  0  0  0.000856  0.007524  0  3.95214  0
C  C52  1  0.56730946  0.71647901  0.47871523  1  0  -0.130331  0  3.732648  0  0  -0.151682  0  3.986312  0  0  -0.157132  0  4.007445  0  0  -0.07937  -0.148272  0  3.972161  0
C  C53  1  0.93269914  0.28351703  0.97871475  1  0  -0.130276  0  3.732653  0  0  -0.151627  0  3.986343  0  0  -0.157068  0  4.007483  0  0  -0.079307  -0.148215  0  3.972192  0
C  C54  1  0.43269387  0.21648050  0.02128429  1  0  -0.130161  0  3.732507  0  0  -0.151486  0  3.986192  0  0  -0.156922  0  4.007334  0  0  -0.079274  -0.1481  0  3.972042  0
C  C55  1  0.06731271  0.78351924  0.52128524  1  0  -0.130451  0  3.732464  0  0  -0.151789  0  3.986138  0  0  -0.157227  0  4.007276  0  0  -0.079373  -0.148374  0  3.971982  0
C  C56  1  0.56409699  0.56740521  0.48763402  1  0  0.147843  0  3.677291  0  0  0.113335  0  3.938074  0  0  0.12054  0  3.954663  0  0  0.051204  0.108705  0  3.926821  0
C  C57  1  0.93591147  0.43259187  0.98763510  1  0  0.147718  0  3.677289  0  0  0.113221  0  3.938078  0  0  0.120418  0  3.954664  0  0  0.051137  0.108602  0  3.92682  0
C  C58  1  0.43590811  0.06740457  0.01236505  1  0  0.14764  0  3.677306  0  0  0.113209  0  3.938019  0  0  0.120408  0  3.954602  0  0  0.051159  0.108589  0  3.926766  0
C  C59  1  0.06408866  0.93259735  0.51236590  1  0  0.147697  0  3.677375  0  0  0.113294  0  3.938048  0  0  0.120492  0  3.954634  0  0  0.051184  0.108675  0  3.926791  0
C  C60  1  0.56064622  0.93441626  0.39234070  1  0  0.63361  0  3.893702  0  0  0.584287  0  4.188755  0  0  0.617915  0  4.1813  0  0  0.211984  0.56216  0  4.191459  0
C  C61  1  0.93935049  0.06558329  0.89234094  1  0  0.633428  0  3.893746  0  0  0.584117  0  4.188815  0  0  0.617744  0  4.181362  0  0  0.211918  0.561996  0  4.191509  0
C  C62  1  0.43934533  0.43441532  0.10765977  1  0  0.633585  0  3.893744  0  0  0.584293  0  4.188809  0  0  0.617925  0  4.181347  0  0  0.211994  0.562166  0  4.191515  0
C  C63  1  0.06065986  0.56558200  0.60766203  1  0  0.633458  0  3.893924  0  0  0.584198  0  4.188928  0  0  0.617827  0  4.181471  0  0  0.212019  0.562075  0  4.191625  0
C  C64  1  0.03340896  0.23896938  0.39082622  1  0  0.655317  0  3.798743  0  0  0.601164  0  4.098849  0  0  0.635183  0  4.09063  0  0  0.221584  0.57794  0  4.103716  0
C  C65  1  0.46659501  0.76103243  0.89082643  1  0  0.655391  0  3.79867  0  0  0.601218  0  4.098779  0  0  0.635249  0  4.090562  0  0  0.221586  0.577993  0  4.103649  0
C  C66  1  0.96657942  0.73895926  0.10917328  1  0  0.655297  0  3.798723  0  0  0.600912  0  4.099086  0  0  0.634973  0  4.09088  0  0  0.221428  0.577671  0  4.10397  0
C  C67  1  0.53341354  0.26103362  0.60917246  1  0  0.655304  0  3.798916  0  0  0.60105  0  4.099128  0  0  0.635084  0  4.090914  0  0  0.221482  0.577819  0  4.104004  0
C  C68  1  0.90717242  0.24554804  0.31625543  1  0  0.155914  0  3.642847  0  0  0.13843  0  3.890381  0  0  0.140832  0  3.899595  0  0  -0.004888  0.13681  0  3.883879  0
C  C69  1  0.59282883  0.75445498  0.81625580  1  0  0.155961  0  3.642829  0  0  0.138545  0  3.890241  0  0  0.140899  0  3.899547  0  0  -0.004744  0.136925  0  3.883735  0
C  C70  1  0.09281596  0.74554866  0.18374350  1  0  0.156103  0  3.642802  0  0  0.138871  0  3.890113  0  0  0.141129  0  3.899564  0  0  -0.004688  0.137266  0  3.883597  0
C  C71  1  0.40717806  0.25445057  0.68374365  1  0  0.156011  0  3.642802  0  0  0.138597  0  3.890276  0  0  0.140954  0  3.899565  0  0  -0.004789  0.136977  0  3.883775  0
C  C72  1  0.96345869  0.38610048  0.27581530  1  0  -0.340631  0  3.668714  0  0  -0.423925  0  3.915509  0  0  -0.426897  0  3.923545  0  0  -0.249975  -0.421723  0  3.910367  0
C  C73  1  0.53653990  0.61390374  0.77581476  1  0  -0.340692  0  3.668928  0  0  -0.424004  0  3.915723  0  0  -0.426964  0  3.923771  0  0  -0.249982  -0.4218  0  3.910581  0
C  C74  1  0.03652461  0.88610853  0.22418464  1  0  -0.340961  0  3.668799  0  0  -0.424431  0  3.915541  0  0  -0.427368  0  3.923614  0  0  -0.250135  -0.422223  0  3.910397  0
C  C75  1  0.46347042  0.11389380  0.72418480  1  0  -0.340816  0  3.668732  0  0  -0.424193  0  3.915517  0  0  -0.427155  0  3.923566  0  0  -0.250081  -0.42199  0  3.910377  0
N  N76  1  0.53693765  0.47631562  0.42964383  1  0  -0.325449  0  3.261167  0  0  -0.248464  0  3.530763  0  0  -0.266305  0  3.54631  0  0  -0.319115  -0.23622  0  3.519189  0
N  N77  1  0.96306179  0.52368272  0.92964479  1  0  -0.32537  0  3.261164  0  0  -0.248387  0  3.530764  0  0  -0.266208  0  3.546299  0  0  -0.319111  -0.236157  0  3.519201  0
N  N78  1  0.46305056  0.97631328  0.07035605  1  0  -0.325229  0  3.261167  0  0  -0.248298  0  3.530761  0  0  -0.266118  0  3.546301  0  0  -0.319032  -0.236064  0  3.519183  0
N  N79  1  0.03695026  0.02368630  0.57035708  1  0  -0.325299  0  3.261234  0  0  -0.248377  0  3.530811  0  0  -0.2662  0  3.546353  0  0  -0.319051  -0.236146  0  3.519243  0
O  O80  1  0.56783496  0.97254164  0.32371898  1  0  -0.596099  0  2.007024  0  0  -0.542286  0  2.229909  0  0  -0.567454  0  2.222079  0  0  -0.307309  -0.52417  0  2.234085  0
O  O81  1  0.93216784  0.02745704  0.82371926  1  0  -0.596041  0  2.007063  0  0  -0.542191  0  2.229906  0  0  -0.567361  0  2.222078  0  0  -0.307267  -0.524079  0  2.23408  0
O  O82  1  0.43215823  0.47253941  0.17628202  1  0  -0.596104  0  2.007107  0  0  -0.542272  0  2.229969  0  0  -0.567443  0  2.222137  0  0  -0.307303  -0.524155  0  2.23415  0
O  O83  1  0.06783591  0.52745877  0.67628430  1  0  -0.596056  0  2.007162  0  0  -0.542251  0  2.23002  0  0  -0.567422  0  2.222191  0  0  -0.307312  -0.52414  0  2.234202  0
O  O84  1  0.56719547  0.01786678  0.44898322  1  0  -0.623875  0  2.025729  0  0  -0.566127  0  2.284375  0  0  -0.593561  0  2.274514  0  0  -0.314256  -0.546735  0  2.289396  0
O  O85  1  0.93280863  0.98213043  0.94898277  1  0  -0.623807  0  2.025787  0  0  -0.566051  0  2.2844  0  0  -0.593489  0  2.274549  0  0  -0.314222  -0.546661  0  2.289419  0
O  O86  1  0.43280137  0.51786882  0.05101869  1  0  -0.62389  0  2.025775  0  0  -0.566145  0  2.284391  0  0  -0.593577  0  2.274517  0  0  -0.31428  -0.546755  0  2.289416  0
O  O87  1  0.06719312  0.48213406  0.55101763  1  0  -0.623819  0  2.025796  0  0  -0.566093  0  2.284402  0  0  -0.593542  0  2.274562  0  0  -0.314247  -0.546704  0  2.289422  0
O  O88  1  0.92013233  0.24971904  0.45193757  1  0  -0.655655  0  2.168724  0  0  -0.572787  0  2.455861  0  0  -0.60329  0  2.438316  0  0  -0.302593  -0.551548  0  2.466793  0
O  O89  1  0.57986675  0.75028031  0.95193796  1  0  -0.655716  0  2.168736  0  0  -0.572847  0  2.455882  0  0  -0.603353  0  2.438339  0  0  -0.30264  -0.551607  0  2.466816  0
O  O90  1  0.07986269  0.74972009  0.04806417  1  0  -0.655693  0  2.168754  0  0  -0.572756  0  2.455961  0  0  -0.603266  0  2.438396  0  0  -0.302594  -0.551504  0  2.466893  0
O  O91  1  0.42013351  0.25027849  0.54806262  1  0  -0.655666  0  2.168836  0  0  -0.572754  0  2.455988  0  0  -0.60326  0  2.438427  0  0  -0.30259  -0.551506  0  2.466917  0
O  O92  1  0.67289212  0.23357238  0.32617801  1  0  -0.593209  0  2.203325  0  0  -0.525221  0  2.447721  0  0  -0.546183  0  2.43581  0  0  -0.389673  -0.510578  0  2.455936  0
O  O93  1  0.82710731  0.76642845  0.82617905  1  0  -0.593209  0  2.203354  0  0  -0.525264  0  2.447825  0  0  -0.546192  0  2.435895  0  0  -0.389714  -0.51062  0  2.456042  0
O  O94  1  0.32709959  0.73356975  0.17382261  1  0  -0.593301  0  2.203302  0  0  -0.525357  0  2.447626  0  0  -0.54626  0  2.435732  0  0  -0.389771  -0.510724  0  2.455844  0
O  O95  1  0.17289459  0.26642844  0.67382208  1  0  -0.593259  0  2.203287  0  0  -0.525301  0  2.447739  0  0  -0.546234  0  2.435807  0  0  -0.389729  -0.510651  0  2.455951  0
O  O96  1  0.23971465  0.22413023  0.38684519  1  0  -0.608534  0  2.073654  0  0  -0.550216  0  2.342927  0  0  -0.576668  0  2.33034  0  0  -0.305223  -0.531844  0  2.350787  0
O  O97  1  0.26028773  0.77586944  0.88684579  1  0  -0.608521  0  2.073575  0  0  -0.550209  0  2.342863  0  0  -0.57666  0  2.330273  0  0  -0.305196  -0.531841  0  2.350738  0
O  O98  1  0.76027043  0.72413308  0.11315600  1  0  -0.608492  0  2.073642  0  0  -0.550056  0  2.342959  0  0  -0.576507  0  2.330362  0  0  -0.305076  -0.531679  0  2.350831  0
O  O99  1  0.73972081  0.27586949  0.61315589  1  0  -0.608516  0  2.07374  0  0  -0.550119  0  2.342994  0  0  -0.576571  0  2.330405  0  0  -0.305116  -0.531748  0  2.350874  0
