# generated using pymatgen
data_Cu3H15WC15Se3IN3O
_symmetry_space_group_name_H-M   'P 1'
_cell_length_a   8.19648373
_cell_length_b   8.67981684
_cell_length_c   15.56708224
_cell_angle_alpha   103.09513673
_cell_angle_beta   97.92566100
_cell_angle_gamma   95.53775353
_symmetry_Int_Tables_number   1
_chemical_formula_structural   Cu3H15WC15Se3IN3O
_chemical_formula_sum   'Cu6 H30 W2 C30 Se6 I2 N6 O2'
_cell_volume   1058.99133713
_cell_formula_units_Z   2
loop_
 _symmetry_equiv_pos_site_id
 _symmetry_equiv_pos_as_xyz
  1  'x, y, z'
loop_
 _atom_site_type_symbol
 _atom_site_label
 _atom_site_symmetry_multiplicity
 _atom_site_fract_x
 _atom_site_fract_y
 _atom_site_fract_z
 _atom_site_occupancy
 _atom_site_hle17_bader_spin_density
 _atom_site_hle17_ddec_charge
 _atom_site_hle17_ddec_spin_density
 _atom_site_hle17_ddec_sum_bond_order
 _atom_site_hle17_magmom
 _atom_site_hse06_10hf_bader_spin_density
 _atom_site_hse06_10hf_ddec_charge
 _atom_site_hse06_10hf_ddec_spin_density
 _atom_site_hse06_10hf_ddec_sum_bond_order
 _atom_site_hse06_10hf_magmom
 _atom_site_hse06_bader_spin_density
 _atom_site_hse06_ddec_charge
 _atom_site_hse06_ddec_spin_density
 _atom_site_hse06_ddec_sum_bond_order
 _atom_site_hse06_magmom
 _atom_site_pbe_bader_spin_density
 _atom_site_pbe_cm5_charge
 _atom_site_pbe_ddec_charge
 _atom_site_pbe_ddec_spin_density
 _atom_site_pbe_ddec_sum_bond_order
 _atom_site_pbe_magmom
Cu  Cu0  1  0.83460900  0.94280906  0.72441018  1  0  0.299147  0  2.309801  0  0  0.226043  0  2.796646  0  0  0.223137  0  2.762446  0  0  0.317132  0.229819  0  2.818216  0
Cu  Cu1  1  0.16539031  0.05719749  0.27559572  1  0  0.299144  0  2.309788  0  0  0.226062  0  2.796617  0  0  0.22315  0  2.762397  0  0  0.317156  0.229838  0  2.818173  0
Cu  Cu2  1  0.30629062  0.91568544  0.73347797  1  0  0.269933  0  2.330417  0  0  0.195358  0  2.82008  0  0  0.19259  0  2.785514  0  0  0.294642  0.198918  0  2.841902  0
Cu  Cu3  1  0.69370772  0.08431393  0.26652119  1  0  0.269932  0  2.330383  0  0  0.195358  0  2.820039  0  0  0.192591  0  2.785474  0  0  0.294646  0.198921  0  2.841877  0
Cu  Cu4  1  0.15449555  0.10939376  0.94949456  1  0  0.330711  0  2.202115  0  0  0.254042  0  2.678169  0  0  0.253044  0  2.643612  0  0  0.357581  0.25605  0  2.700833  0
Cu  Cu5  1  0.84550913  0.89060685  0.05050906  1  0  0.330727  0  2.20209  0  0  0.254074  0  2.678158  0  0  0.253078  0  2.643604  0  0  0.357592  0.256082  0  2.700828  0
H  H6  1  0.84075844  0.99724566  0.54533269  1  0  0.071185  0  0.949791  0  0  0.080322  0  1.015645  0  0  0.082713  0  1.013891  0  0  0.106082  0.078471  0  1.017055  0
H  H7  1  0.15923372  0.00274417  0.45467253  1  0  0.071242  0  0.949779  0  0  0.080408  0  1.015623  0  0  0.08282  0  1.013835  0  0  0.106109  0.078558  0  1.017033  0
H  H8  1  0.79418895  0.21699702  0.46902913  1  0  0.095971  0  0.999234  0  0  0.105661  0  1.06454  0  0  0.108988  0  1.062653  0  0  0.084897  0.103171  0  1.066043  0
H  H9  1  0.20580455  0.78298444  0.53096936  1  0  0.09591  0  0.999277  0  0  0.105636  0  1.064545  0  0  0.108966  0  1.062661  0  0  0.084859  0.103156  0  1.066025  0
H  H10  1  0.74209257  0.48207599  0.56095935  1  0  0.09182  0  0.946207  0  0  0.104467  0  1.004047  0  0  0.106945  0  1.002445  0  0  0.097171  0.102545  0  1.005391  0
H  H11  1  0.25790818  0.51791381  0.43903043  1  0  0.091881  0  0.946267  0  0  0.10455  0  1.004075  0  0  0.107029  0  1.002469  0  0  0.097224  0.102628  0  1.005421  0
H  H12  1  0.74367522  0.51333591  0.72477787  1  0  0.098867  0  0.98362  0  0  0.1038  0  1.054628  0  0  0.106082  0  1.055325  0  0  0.094782  0.102039  0  1.054452  0
H  H13  1  0.25632775  0.48667060  0.27521352  1  0  0.098879  0  0.983557  0  0  0.103781  0  1.05459  0  0  0.106057  0  1.055304  0  0  0.094768  0.102025  0  1.054409  0
H  H14  1  0.79229276  0.28114001  0.79048891  1  0  0.071323  0  0.964701  0  0  0.082059  0  1.028437  0  0  0.083805  0  1.027394  0  0  0.105332  0.080685  0  1.029299  0
H  H15  1  0.20770239  0.71887245  0.20950845  1  0  0.071283  0  0.96456  0  0  0.082059  0  1.028272  0  0  0.083807  0  1.027228  0  0  0.105337  0.080683  0  1.02913  0
H  H16  1  0.44579852  0.05494854  0.59453280  1  0  0.070922  0  0.960412  0  0  0.077147  0  1.030353  0  0  0.079645  0  1.028934  0  0  0.101788  0.075283  0  1.031477  0
H  H17  1  0.55419891  0.94505320  0.40546530  1  0  0.07091  0  0.960412  0  0  0.07712  0  1.030367  0  0  0.079617  0  1.02895  0  0  0.101784  0.075263  0  1.031488  0
H  H18  1  0.39547677  0.28149883  0.52342255  1  0  0.095233  0  0.987622  0  0  0.101528  0  1.057432  0  0  0.104742  0  1.056768  0  0  0.089402  0.099168  0  1.058106  0
H  H19  1  0.60451942  0.71850292  0.47657611  1  0  0.095245  0  0.987639  0  0  0.101538  0  1.057455  0  0  0.104752  0  1.05679  0  0  0.089417  0.099178  0  1.058122  0
H  H20  1  0.22459968  0.48792128  0.59447933  1  0  0.091516  0  0.954892  0  0  0.105014  0  1.011735  0  0  0.107184  0  1.010361  0  0  0.094255  0.10332  0  1.012904  0
H  H21  1  0.77540037  0.51208168  0.40552297  1  0  0.091551  0  0.954881  0  0  0.10504  0  1.011734  0  0  0.10721  0  1.010359  0  0  0.094271  0.103347  0  1.012897  0
H  H22  1  0.11494136  0.45637432  0.73290741  1  0  0.102392  0  0.988073  0  0  0.107572  0  1.057651  0  0  0.109461  0  1.059348  0  0  0.097909  0.10612  0  1.056661  0
H  H23  1  0.88506716  0.54362749  0.26709600  1  0  0.102357  0  0.988113  0  0  0.107605  0  1.05762  0  0  0.109508  0  1.05931  0  0  0.097928  0.106149  0  1.056631  0
H  H24  1  0.16969675  0.21758014  0.79186751  1  0  0.056077  0  0.969723  0  0  0.056372  0  1.057837  0  0  0.061382  0  1.050393  0  0  0.098699  0.052469  0  1.063479  0
H  H25  1  0.83031178  0.78242167  0.20813525  1  0  0.056067  0  0.969791  0  0  0.056355  0  1.057916  0  0  0.061365  0  1.050471  0  0  0.098681  0.05245  0  1.063564  0
H  H26  1  0.11443131  0.43225292  0.92557818  1  0  0.085776  0  0.944791  0  0  0.095706  0  1.007744  0  0  0.098789  0  1.004342  0  0  0.112706  0.093371  0  1.010329  0
H  H27  1  0.88556763  0.56774169  0.07442235  1  0  0.085744  0  0.944803  0  0  0.095676  0  1.007757  0  0  0.098759  0  1.004354  0  0  0.112699  0.093337  0  1.010339  0
H  H28  1  0.25820169  0.70462966  0.99564366  1  0  0.10003  0  0.988908  0  0  0.107753  0  1.05541  0  0  0.10902  0  1.057738  0  0  0.09057  0.106682  0  1.054105  0
H  H29  1  0.74179741  0.29536614  0.00435575  1  0  0.100006  0  0.9889  0  0  0.107743  0  1.05539  0  0  0.10901  0  1.05772  0  0  0.090549  0.106678  0  1.054076  0
H  H30  1  0.47787632  0.74907594  0.13225847  1  0  0.093585  0  0.953526  0  0  0.103467  0  1.019113  0  0  0.106296  0  1.016371  0  0  0.097805  0.101222  0  1.021313  0
H  H31  1  0.52212512  0.25092821  0.86774151  1  0  0.093586  0  0.953581  0  0  0.103462  0  1.019152  0  0  0.106288  0  1.016415  0  0  0.097825  0.101189  0  1.021377  0
H  H32  1  0.53747254  0.50937285  0.19316737  1  0  0.09752  0  0.979201  0  0  0.107429  0  1.040418  0  0  0.109373  0  1.042304  0  0  0.101052  0.105969  0  1.039355  0
H  H33  1  0.46253014  0.49063131  0.80683269  1  0  0.097542  0  0.979225  0  0  0.107442  0  1.040451  0  0  0.109387  0  1.042337  0  0  0.101051  0.105973  0  1.039397  0
H  H34  1  0.38519638  0.24389360  0.11438088  1  0  0.074514  0  0.982389  0  0  0.085667  0  1.04689  0  0  0.087079  0  1.046282  0  0  0.092236  0.084356  0  1.047715  0
H  H35  1  0.61480845  0.75610819  0.88562162  1  0  0.074523  0  0.982381  0  0  0.085644  0  1.046927  0  0  0.087057  0  1.046317  0  0  0.092238  0.084372  0  1.047718  0
W  W36  1  0.06231838  0.81938722  0.82953745  1  0  0.961191  0  4.791742  0  0  0.956757  0  5.441514  0  0  1.030848  0  5.404306  0  0  0.871494  0.907405  0  5.46613  0
W  W37  1  0.93768259  0.18061336  0.17046333  1  0  0.96114  0  4.791807  0  0  0.956724  0  5.441592  0  0  1.030813  0  5.404388  0  0  0.871437  0.907349  0  5.46618  0
C  C38  1  0.81842706  0.11362975  0.58241727  1  0  0.110898  0  3.696873  0  0  0.082897  0  3.941302  0  0  0.088692  0  3.959199  0  0  0.035157  0.079168  0  3.929554  0
C  C39  1  0.18156541  0.88636245  0.41758377  1  0  0.110739  0  3.697048  0  0  0.082689  0  3.941533  0  0  0.088461  0  3.959426  0  0  0.035013  0.078948  0  3.929783  0
C  C40  1  0.79304441  0.23680740  0.54057934  1  0  -0.123508  0  3.752121  0  0  -0.130517  0  3.990796  0  0  -0.138326  0  4.014059  0  0  -0.091539  -0.12548  0  3.975349  0
C  C41  1  0.20695267  0.76318242  0.45941853  1  0  -0.123441  0  3.751794  0  0  -0.130469  0  3.990496  0  0  -0.138291  0  4.01378  0  0  -0.091463  -0.12543  0  3.97505  0
C  C42  1  0.76469389  0.38312478  0.59141875  1  0  -0.005467  0  3.722092  0  0  -0.022904  0  3.964598  0  0  -0.019182  0  3.983281  0  0  -0.071049  -0.025362  0  3.952229  0
C  C43  1  0.23530563  0.61686503  0.40857351  1  0  -0.005599  0  3.722102  0  0  -0.023055  0  3.964635  0  0  -0.019331  0  3.983315  0  0  -0.071109  -0.025518  0  3.95227  0
C  C44  1  0.76432171  0.40101570  0.68258564  1  0  -0.108866  0  3.745675  0  0  -0.119936  0  3.992693  0  0  -0.127053  0  4.015997  0  0  -0.084937  -0.115454  0  3.977419  0
C  C45  1  0.23567694  0.59898603  0.31740870  1  0  -0.108774  0  3.745578  0  0  -0.119822  0  3.992587  0  0  -0.126941  0  4.015894  0  0  -0.084886  -0.115347  0  3.977315  0
C  C46  1  0.79048401  0.27211814  0.71944967  1  0  0.115863  0  3.679248  0  0  0.087461  0  3.923717  0  0  0.093603  0  3.940501  0  0  0.037372  0.083478  0  3.912656  0
C  C47  1  0.20951405  0.72788838  0.28054972  1  0  0.115923  0  3.678892  0  0  0.08752  0  3.923327  0  0  0.093645  0  3.940105  0  0  0.037358  0.08353  0  3.912271  0
C  C48  1  0.37140077  0.14619250  0.62197186  1  0  0.111881  0  3.695159  0  0  0.084884  0  3.939457  0  0  0.09061  0  3.957517  0  0  0.033125  0.081078  0  3.927574  0
C  C49  1  0.62859912  0.85380926  0.37802771  1  0  0.11187  0  3.695137  0  0  0.084883  0  3.93943  0  0  0.090609  0  3.957489  0  0  0.033095  0.081066  0  3.927569  0
C  C50  1  0.34305077  0.27277680  0.58314956  1  0  -0.123688  0  3.750046  0  0  -0.131788  0  3.994091  0  0  -0.139388  0  4.016384  0  0  -0.090306  -0.12694  0  3.979377  0
C  C51  1  0.65694805  0.72722615  0.41685136  1  0  -0.123671  0  3.750031  0  0  -0.131766  0  3.99406  0  0  -0.139362  0  4.016344  0  0  -0.090318  -0.126915  0  3.979341  0
C  C52  1  0.24867229  0.38631280  0.62230295  1  0  -0.004822  0  3.72321  0  0  -0.023264  0  3.96585  0  0  -0.019021  0  3.984204  0  0  -0.072944  -0.026085  0  3.953702  0
C  C53  1  0.75132899  0.61369016  0.37769751  1  0  -0.004837  0  3.723223  0  0  -0.023277  0  3.965905  0  0  -0.019032  0  3.984258  0  0  -0.072942  -0.026099  0  3.953756  0
C  C54  1  0.18700561  0.36938214  0.69929592  1  0  -0.121276  0  3.739831  0  0  -0.129384  0  3.980187  0  0  -0.136885  0  4.004349  0  0  -0.087301  -0.124568  0  3.964259  0
C  C55  1  0.81299938  0.63062085  0.30070738  1  0  -0.121281  0  3.739911  0  0  -0.129456  0  3.98028  0  0  -0.136977  0  4.00443  0  0  -0.087321  -0.12464  0  3.964356  0
C  C56  1  0.21835757  0.23770875  0.73281814  1  0  0.118801  0  3.696068  0  0  0.091887  0  3.944211  0  0  0.097286  0  3.961268  0  0  0.036249  0.088379  0  3.933024  0
C  C57  1  0.78164833  0.76229185  0.26718300  1  0  0.1189  0  3.695933  0  0  0.091988  0  3.944075  0  0  0.097389  0  3.961134  0  0  0.036296  0.088491  0  3.932879  0
C  C58  1  0.21014105  0.45324369  0.98443116  1  0  0.120726  0  3.660421  0  0  0.090214  0  3.906699  0  0  0.097302  0  3.922576  0  0  0.042357  0.08558  0  3.896206  0
C  C59  1  0.78985821  0.54675330  0.01556776  1  0  0.120769  0  3.660444  0  0  0.090283  0  3.906727  0  0  0.097377  0  3.922608  0  0  0.042337  0.085652  0  3.896233  0
C  C60  1  0.29061074  0.60649050  0.02454926  1  0  -0.109444  0  3.724664  0  0  -0.116937  0  3.964577  0  0  -0.124981  0  3.988859  0  0  -0.085559  -0.111873  0  3.948604  0
C  C61  1  0.70939023  0.39351008  0.97545281  1  0  -0.109459  0  3.724667  0  0  -0.116973  0  3.964575  0  0  -0.125016  0  3.988851  0  0  -0.085532  -0.11191  0  3.948603  0
C  C62  1  0.41182607  0.63011754  0.10018302  1  0  -0.007059  0  3.70634  0  0  -0.022458  0  3.945172  0  0  -0.018502  0  3.96389  0  0  -0.068648  -0.024955  0  3.932721  0
C  C63  1  0.58817613  0.36988304  0.89981720  1  0  -0.007044  0  3.706342  0  0  -0.022409  0  3.945137  0  0  -0.018449  0  3.96385  0  0  -0.068671  -0.024885  0  3.9327  0
C  C64  1  0.44580753  0.49849893  0.13375125  1  0  -0.117644  0  3.737747  0  0  -0.125494  0  3.97905  0  0  -0.133113  0  4.002173  0  0  -0.0857  -0.120621  0  3.963729  0
C  C65  1  0.55419359  0.50150283  0.86624841  1  0  -0.117675  0  3.73784  0  0  -0.125515  0  3.979125  0  0  -0.133136  0  4.002244  0  0  -0.085679  -0.120627  0  3.963815  0
C  C66  1  0.36120187  0.34897393  0.08997584  1  0  0.121879  0  3.679363  0  0  0.09061  0  3.923577  0  0  0.096816  0  3.942184  0  0  0.035243  0.086503  0  3.911451  0
C  C67  1  0.63879632  0.65102426  0.91002508  1  0  0.121887  0  3.679389  0  0  0.090636  0  3.923672  0  0  0.096849  0  3.942281  0  0  0.03523  0.086499  0  3.911549  0
Se  Se68  1  0.03042246  0.77159469  0.66951373  1  0  -0.432283  0  2.303535  0  0  -0.420109  0  2.774336  0  0  -0.429093  0  2.747571  0  0  -0.315866  -0.413829  0  2.791864  0
Se  Se69  1  0.96957560  0.22841184  0.33048759  1  0  -0.432313  0  2.303546  0  0  -0.420142  0  2.77435  0  0  -0.429131  0  2.747588  0  0  -0.315862  -0.413856  0  2.791879  0
Se  Se70  1  0.87490196  0.00558093  0.88585426  1  0  -0.475311  0  2.434887  0  0  -0.454699  0  2.948424  0  0  -0.463608  0  2.913959  0  0  -0.322329  -0.449205  0  2.971769  0
Se  Se71  1  0.12509838  0.99441489  0.11414909  1  0  -0.475282  0  2.434856  0  0  -0.454694  0  2.948444  0  0  -0.46359  0  2.913945  0  0  -0.322317  -0.449185  0  2.971765  0
Se  Se72  1  0.34488705  0.94009026  0.89278357  1  0  -0.420982  0  2.33462  0  0  -0.39799  0  2.816482  0  0  -0.409291  0  2.78879  0  0  -0.314248  -0.390415  0  2.834841  0
Se  Se73  1  0.65511407  0.05991151  0.10721544  1  0  -0.420968  0  2.334608  0  0  -0.397982  0  2.816486  0  0  -0.409285  0  2.788793  0  0  -0.314236  -0.390401  0  2.834846  0
I  I74  1  0.53579272  0.76402057  0.66619875  1  0  -0.427506  0  1.463247  0  0  -0.377739  0  1.878391  0  0  -0.391062  0  1.847916  0  0  -0.206634  -0.367946  0  1.898495  0
I  I75  1  0.46420717  0.23598119  0.33380082  1  0  -0.427494  0  1.463258  0  0  -0.377719  0  1.878397  0  0  -0.391047  0  1.847921  0  0  -0.206622  -0.367924  0  1.8985  0
N  N76  1  0.81575009  0.12958731  0.67045736  1  0  -0.277895  0  3.4047  0  0  -0.201621  0  3.686592  0  0  -0.213644  0  3.697948  0  0  -0.366678  -0.19431  0  3.67926  0
N  N77  1  0.18424412  0.87041802  0.32954545  1  0  -0.277857  0  3.404639  0  0  -0.201614  0  3.686576  0  0  -0.213595  0  3.697901  0  0  -0.366648  -0.194286  0  3.679229  0
N  N78  1  0.30866222  0.12688520  0.69509083  1  0  -0.27956  0  3.355544  0  0  -0.20444  0  3.631804  0  0  -0.216301  0  3.643691  0  0  -0.358758  -0.196988  0  3.623811  0
N  N79  1  0.69134029  0.87311777  0.30490907  1  0  -0.27966  0  3.355426  0  0  -0.204522  0  3.631654  0  0  -0.216384  0  3.643538  0  0  -0.358782  -0.197075  0  3.623683  0
N  N80  1  0.24623278  0.32541449  0.01567936  1  0  -0.268746  0  3.408431  0  0  -0.189854  0  3.694849  0  0  -0.203317  0  3.706548  0  0  -0.372492  -0.181423  0  3.687102  0
N  N81  1  0.75376942  0.67458609  0.98432215  1  0  -0.26876  0  3.408367  0  0  -0.189922  0  3.694841  0  0  -0.203404  0  3.706562  0  0  -0.37248  -0.181491  0  3.687114  0
O  O82  1  0.02069694  0.63807084  0.85723806  1  0  -0.553692  0  1.713958  0  0  -0.514952  0  1.977305  0  0  -0.542646  0  1.977518  0  0  -0.53005  -0.495783  0  1.976687  0
O  O83  1  0.97930757  0.36192856  0.14276090  1  0  -0.553656  0  1.713939  0  0  -0.514966  0  1.977354  0  0  -0.542643  0  1.977531  0  0  -0.530032  -0.495783  0  1.976703  0
