# generated using pymatgen
data_FeH5C5O4
_symmetry_space_group_name_H-M   'P 1'
_cell_length_a   6.71670419
_cell_length_b   15.42348204
_cell_length_c   15.41711974
_cell_angle_alpha   118.15989928
_cell_angle_beta   98.40528861
_cell_angle_gamma   98.87413467
_symmetry_Int_Tables_number   1
_chemical_formula_structural   FeH5C5O4
_chemical_formula_sum   'Fe6 H30 C30 O24'
_cell_volume   1346.55736928
_cell_formula_units_Z   6
loop_
 _symmetry_equiv_pos_site_id
 _symmetry_equiv_pos_as_xyz
  1  'x, y, z'
loop_
 _atom_site_type_symbol
 _atom_site_label
 _atom_site_symmetry_multiplicity
 _atom_site_fract_x
 _atom_site_fract_y
 _atom_site_fract_z
 _atom_site_occupancy
 _atom_site_pbe_bader_charge
 _atom_site_pbe_bader_spin_density
 _atom_site_pbe_cm5_charge
 _atom_site_pbe_ddec_charge
 _atom_site_pbe_ddec_spin_density
 _atom_site_pbe_ddec_sum_bond_order
 _atom_site_pbe_magmom
Fe  Fe0  1  0.01300156  0.72410391  0.40638219  1  1.348446  -3.564366  0.629848  0.84219  -3.778304  2.679463  -3.539
Fe  Fe1  1  0.29870303  0.67536849  0.26979670  1  1.442683  -3.648969  0.682459  0.968639  -3.8753  2.57652  -3.626
Fe  Fe2  1  0.65349860  0.60293261  0.32969688  1  1.346028  -3.563475  0.627079  0.846048  -3.780535  2.621853  -3.541
Fe  Fe3  1  0.97349190  0.26574050  0.58972330  1  1.437117  -3.6586  0.680814  0.963401  -3.887256  2.570957  -3.633
Fe  Fe4  1  0.67447272  0.32439467  0.72458251  1  1.372528  -3.585998  0.641446  0.876926  -3.808493  2.614572  -3.563
Fe  Fe5  1  0.38324359  0.39851059  0.67722374  1  1.343341  -3.557487  0.623267  0.829425  -3.767448  2.676334  -3.533
H  H6  1  0.12049957  0.97110533  0.43165593  1  0.124875  -0.000758  0.10887  0.134324  -6.6e-05  0.997492  0.0
H  H7  1  0.14456438  0.45713806  0.02227733  1  0.113688  -0.00069  0.107406  0.132791  -2.3e-05  1.002209  0.0
H  H8  1  0.70252614  0.56541207  0.55135117  1  0.109909  -0.000779  0.110211  0.135359  -7e-05  0.996926  0.0
H  H9  1  0.87047809  0.02331511  0.56819008  1  0.117184  -0.000788  0.107968  0.132801  -8.9e-05  1.001002  0.0
H  H10  1  0.84879780  0.54894907  0.98107815  1  0.112161  -0.000745  0.109412  0.135183  -6.1e-05  0.997143  0.0
H  H11  1  0.31414689  0.43611562  0.45821906  1  0.094798  -0.000717  0.109077  0.134175  7e-06  0.998606  0.0
H  H12  1  0.40632746  0.79253362  0.52695301  1  0.613101  -0.000426  0.316771  0.344487  0.00028  0.92622  0.0
H  H13  1  0.62108282  0.73998921  0.21764950  1  0.626057  -0.000419  0.316808  0.350572  0.000217  0.924787  0.0
H  H14  1  0.90711781  0.49016084  0.26765023  1  0.666629  -0.000231  0.313325  0.345923  0.000769  0.942515  0.0
H  H15  1  0.59378041  0.21012257  0.47517195  1  0.628613  -0.000387  0.316371  0.350654  0.00025  0.925049  0.0
H  H16  1  0.35533378  0.26257137  0.77684479  1  0.623318  -0.000268  0.315018  0.349378  0.000621  0.934733  0.0
H  H17  1  0.12257100  0.52443020  0.73333837  1  0.592693  -0.000514  0.317227  0.343593  0.000152  0.926285  0.0
H  H18  1  0.40232400  0.88980088  0.70391299  1  0.037263  -0.002119  0.091942  0.081866  -0.000704  0.992254  -0.001
H  H19  1  0.52212900  0.82026548  0.12039316  1  0.040607  -0.002232  0.093091  0.083606  -0.000781  0.990833  -0.001
H  H20  1  0.72343213  0.31046033  0.18154971  1  0.045857  -0.002541  0.095304  0.086905  -0.000859  0.985753  -0.001
H  H21  1  0.58238154  0.11058197  0.29585148  1  0.035995  -0.00228  0.093832  0.084502  -0.000779  0.988854  -0.001
H  H22  1  0.45837127  0.18022665  0.87208269  1  0.045981  -0.002436  0.095491  0.086683  -0.000828  0.988428  -0.001
H  H23  1  0.31830731  0.70031829  0.81596407  1  0.03905  -0.002061  0.092521  0.082736  -0.000684  0.991565  -0.001
H  H24  1  0.31454439  0.94274911  0.62755228  1  0.060812  4.9e-05  0.095896  0.095479  0.000239  1.017488  0.0
H  H25  1  0.40244602  0.68568202  0.05748808  1  0.080984  -0.000282  0.096578  0.094998  9e-06  1.02155  0.0
H  H26  1  0.72937245  0.37933281  0.31478463  1  0.074361  -0.000448  0.096533  0.094354  -5.9e-05  1.018793  0.0
H  H27  1  0.64840749  0.05001608  0.36758897  1  0.071596  -0.000207  0.096254  0.094889  5.7e-05  1.018166  0.0
H  H28  1  0.58717427  0.31378745  0.93423339  1  0.067028  -0.000336  0.09762  0.096165  2e-06  1.01753  0.0
H  H29  1  0.32057546  0.62417226  0.68456818  1  0.07507  -6.4e-05  0.095795  0.094453  0.000133  1.020892  0.0
H  H30  1  0.12924268  0.86718441  0.65321565  1  0.068789  -0.000284  0.107666  0.113881  8.3e-05  0.97255  0.0
H  H31  1  0.26313658  0.77536256  0.12506791  1  0.079294  -0.000265  0.108058  0.113616  0.000198  0.971987  0.0
H  H32  1  0.50532085  0.35762485  0.22142522  1  0.055468  -0.000397  0.109791  0.114542  5.5e-05  0.970437  0.0
H  H33  1  0.84947483  0.11772100  0.34139346  1  0.060594  -0.000262  0.107941  0.112278  0.000162  0.97174  0.0
H  H34  1  0.71465265  0.22040861  0.86148709  1  0.054361  -0.000372  0.109429  0.11475  8.6e-05  0.971334  0.0
H  H35  1  0.53367778  0.64654056  0.78325241  1  0.062566  -0.000291  0.108359  0.115027  8e-05  0.972209  0.0
C  C36  1  0.30924645  0.16502717  0.54854152  1  1.429461  0.01781  0.209851  0.587367  0.023145  4.121305  0.011
C  C37  1  0.13959831  0.38496709  0.82855743  1  1.476484  -0.004946  0.21933  0.604672  -0.00163  4.096223  -0.005
C  C38  1  0.76471387  0.43877857  0.61444849  1  1.476736  -0.005555  0.218212  0.594422  -0.00078  4.11409  -0.005
C  C39  1  0.68178213  0.82874004  0.44645054  1  1.470811  0.000884  0.215215  0.59069  0.004955  4.112091  -0.001
C  C40  1  0.85444642  0.61982676  0.17214902  1  1.45086  0.013186  0.212762  0.596185  0.01797  4.116472  0.008
C  C41  1  0.24597966  0.55912593  0.38962944  1  1.511856  -0.011468  0.223446  0.606673  -0.005811  4.092546  -0.008
C  C42  1  0.40984887  0.08161286  0.52669113  1  -0.013218  -0.011804  -0.039145  -0.168652  -0.003336  4.020035  -0.01
C  C43  1  0.32593126  0.44661175  0.91530177  1  -0.062668  -0.009701  -0.038475  -0.173273  -0.003784  3.995558  -0.007
C  C44  1  0.89282877  0.46761794  0.55803616  1  -0.052464  -0.015047  -0.041277  -0.181145  -0.006444  4.037472  -0.01
C  C45  1  0.58160583  0.91285502  0.47195580  1  -0.046857  -0.006323  -0.042944  -0.182654  -0.000946  4.032655  -0.006
C  C46  1  0.66747890  0.55953340  0.08786222  1  0.020422  -0.013877  -0.040758  -0.173066  -0.004853  4.035547  -0.011
C  C47  1  0.12255390  0.53309052  0.45067738  1  -0.055979  -0.017425  -0.035206  -0.167049  -0.007668  3.987644  -0.012
C  C48  1  0.36409138  0.89631967  0.43100729  1  0.596526  -0.010261  0.074046  0.304159  -0.005391  4.099459  -0.008
C  C49  1  0.46505257  0.53296556  0.10170966  1  0.510549  -0.007898  0.070794  0.29819  -0.004511  4.088366  -0.006
C  C50  1  0.94669229  0.57199011  0.47844575  1  0.551923  -0.010257  0.073362  0.306891  -0.006278  4.087137  -0.008
C  C51  1  0.62792715  0.09862423  0.56830740  1  0.532107  -0.00597  0.070768  0.297598  -0.003038  4.091194  -0.005
C  C52  1  0.52950884  0.47356967  0.90281324  1  0.599454  -0.010098  0.07166  0.307498  -0.006078  4.093511  -0.008
C  C53  1  0.06853274  0.42857959  0.53101821  1  0.612514  -0.012746  0.074673  0.308556  -0.006805  4.090504  -0.008
C  C54  1  0.28558409  0.98221464  0.46108591  1  -0.037599  -0.005868  -0.102102  -0.202051  -0.002135  3.960963  -0.004
C  C55  1  0.30027507  0.47726841  0.01372565  1  -0.006383  -0.015241  -0.102833  -0.206168  -0.006799  3.951759  -0.01
C  C56  1  0.83786970  0.53740645  0.53135025  1  -0.000997  -0.01296  -0.101297  -0.197902  -0.005835  3.959902  -0.008
C  C57  1  0.70545758  0.01243078  0.53885374  1  0.017757  -0.011438  -0.102456  -0.200025  -0.004732  3.95699  -0.008
C  C58  1  0.69349030  0.52915416  0.99009866  1  -0.040297  -0.005865  -0.103066  -0.202109  -0.002286  3.968442  -0.004
C  C59  1  0.17886001  0.46407956  0.47845828  1  -0.012512  -0.018368  -0.099911  -0.202011  -0.008285  3.947838  -0.012
C  C60  1  0.28375990  0.87714276  0.63886904  1  0.379638  -0.002005  -0.14311  -0.120425  -0.000783  3.909079  -0.001
C  C61  1  0.41725553  0.76040523  0.12403679  1  0.348932  -0.002257  -0.141484  -0.115752  -0.00083  3.906818  -0.001
C  C62  1  0.67536619  0.37275613  0.24052328  1  0.374906  -0.002921  -0.139314  -0.113169  -0.001431  3.892675  -0.002
C  C63  1  0.69658094  0.11601788  0.35834002  1  0.378753  -0.002579  -0.141261  -0.115768  -0.001053  3.906721  -0.002
C  C64  1  0.56395882  0.23860441  0.86675779  1  0.386544  -0.002635  -0.140276  -0.115563  -0.001223  3.895467  -0.002
C  C65  1  0.36479943  0.63437698  0.76099590  1  0.370445  -0.002162  -0.142922  -0.119344  -0.000895  3.9075  -0.001
O  O66  1  0.11188206  0.14943385  0.52873642  1  -1.148505  -0.078306  -0.302965  -0.507287  -0.036406  2.315704  -0.058
O  O67  1  0.95863212  0.38048556  0.84213399  1  -1.151224  -0.06315  -0.289163  -0.4907  -0.029544  2.273375  -0.047
O  O68  1  0.59487004  0.46360137  0.62465251  1  -1.155833  -0.07599  -0.292426  -0.484626  -0.035271  2.305066  -0.057
O  O69  1  0.87798529  0.84442980  0.47285193  1  -1.171234  -0.074889  -0.297314  -0.491087  -0.034851  2.299227  -0.056
O  O70  1  0.03492662  0.62229193  0.15627365  1  -1.154752  -0.0755  -0.302315  -0.511077  -0.03493  2.327452  -0.058
O  O71  1  0.42167673  0.54099018  0.38475097  1  -1.158889  -0.06345  -0.287398  -0.486767  -0.029669  2.265155  -0.047
O  O72  1  0.43124762  0.25600509  0.58800876  1  -1.194084  -0.102331  -0.32648  -0.593707  -0.04773  2.597219  -0.088
O  O73  1  0.17489754  0.33269761  0.73835084  1  -1.194854  -0.098269  -0.326008  -0.607481  -0.047328  2.509907  -0.077
O  O74  1  0.83659699  0.38905924  0.65570303  1  -1.189162  -0.112293  -0.326918  -0.582871  -0.054698  2.563239  -0.083
O  O75  1  0.55940488  0.73643833  0.39670938  1  -1.187084  -0.10683  -0.328879  -0.588  -0.051731  2.569947  -0.08
O  O76  1  0.82607596  0.67209894  0.26300248  1  -1.185893  -0.102955  -0.328637  -0.594298  -0.048113  2.592594  -0.087
O  O77  1  0.15688836  0.59710188  0.33844767  1  -1.194834  -0.095867  -0.321631  -0.602643  -0.046115  2.496179  -0.072
O  O78  1  0.23225024  0.80481737  0.36604495  1  -1.184035  -0.151257  -0.362362  -0.563801  -0.073637  2.531889  -0.115
O  O79  1  0.42616172  0.55700881  0.19261612  1  -1.17415  -0.141047  -0.362386  -0.568713  -0.068733  2.465356  -0.105
O  O80  1  0.87726378  0.63917491  0.45807117  1  -1.154684  -0.145676  -0.365696  -0.560496  -0.069151  2.560076  -0.118
O  O81  1  0.75955245  0.19040202  0.63354502  1  -1.17086  -0.133623  -0.362306  -0.571078  -0.065449  2.483055  -0.101
O  O82  1  0.57662037  0.45022586  0.81383153  1  -1.161207  -0.146677  -0.367751  -0.566119  -0.070041  2.570457  -0.12
O  O83  1  0.13235940  0.36111221  0.55243811  1  -1.168038  -0.14717  -0.358674  -0.565925  -0.07138  2.516358  -0.116
O  O84  1  0.27856218  0.78425238  0.54870814  1  -1.130254  -0.040655  -0.39049  -0.407613  -0.01931  2.412787  -0.028
O  O85  1  0.49164932  0.76210023  0.21748526  1  -1.139368  -0.048135  -0.392563  -0.423673  -0.021927  2.449626  -0.036
O  O86  1  0.75402728  0.46664405  0.24338369  1  -1.178361  -0.049904  -0.393312  -0.411639  -0.023241  2.468687  -0.035
O  O87  1  0.72108429  0.21018111  0.45095244  1  -1.141151  -0.047267  -0.392477  -0.421296  -0.021764  2.438504  -0.035
O  O88  1  0.48296903  0.23836224  0.77476115  1  -1.138445  -0.050948  -0.393612  -0.41557  -0.023705  2.460745  -0.036
O  O89  1  0.27273247  0.54427506  0.76225401  1  -1.109648  -0.039566  -0.389997  -0.406908  -0.018785  2.409444  -0.027
