# generated using pymatgen
data_ZnH4CSeNO3
_symmetry_space_group_name_H-M   'P 1'
_cell_length_a   6.66864843
_cell_length_b   7.96487014
_cell_length_c   9.60324051
_cell_angle_alpha   90.00007475
_cell_angle_beta   89.99990808
_cell_angle_gamma   112.98587913
_symmetry_Int_Tables_number   1
_chemical_formula_structural   ZnH4CSeNO3
_chemical_formula_sum   'Zn4 H16 C4 Se4 N4 O12'
_cell_volume   469.57593079
_cell_formula_units_Z   4
loop_
 _symmetry_equiv_pos_site_id
 _symmetry_equiv_pos_as_xyz
  1  'x, y, z'
loop_
 _atom_site_type_symbol
 _atom_site_label
 _atom_site_symmetry_multiplicity
 _atom_site_fract_x
 _atom_site_fract_y
 _atom_site_fract_z
 _atom_site_occupancy
 _atom_site_hle17_bader_spin_density
 _atom_site_hle17_ddec_charge
 _atom_site_hle17_ddec_spin_density
 _atom_site_hle17_ddec_sum_bond_order
 _atom_site_hle17_magmom
 _atom_site_hse06_10hf_bader_spin_density
 _atom_site_hse06_10hf_ddec_charge
 _atom_site_hse06_10hf_ddec_spin_density
 _atom_site_hse06_10hf_ddec_sum_bond_order
 _atom_site_hse06_10hf_magmom
 _atom_site_hse06_bader_spin_density
 _atom_site_hse06_ddec_charge
 _atom_site_hse06_ddec_spin_density
 _atom_site_hse06_ddec_sum_bond_order
 _atom_site_hse06_magmom
 _atom_site_pbe_bader_spin_density
 _atom_site_pbe_cm5_charge
 _atom_site_pbe_ddec_charge
 _atom_site_pbe_ddec_spin_density
 _atom_site_pbe_ddec_sum_bond_order
 _atom_site_pbe_magmom
Zn  Zn0  1  0.82101550  0.88659347  0.26825739  1  0  1.087722  0  1.813891  0  0  0.915892  0  2.286566  0  0  0.961579  0  2.226958  0  0  0.639228  0.883933  0  2.327206  0
Zn  Zn1  1  0.32101526  0.38659469  0.23174160  1  0  1.087689  0  1.813905  0  0  0.915854  0  2.286598  0  0  0.961547  0  2.226977  0  0  0.639212  0.883894  0  2.327234  0
Zn  Zn2  1  0.17898263  0.11340453  0.73174254  1  0  1.087685  0  1.813939  0  0  0.915878  0  2.286615  0  0  0.96155  0  2.227017  0  0  0.639215  0.883917  0  2.327265  0
Zn  Zn3  1  0.67898480  0.61340739  0.76825625  1  0  1.087684  0  1.813902  0  0  0.915852  0  2.286598  0  0  0.961543  0  2.226982  0  0  0.639214  0.883897  0  2.327248  0
H  H4  1  0.66193408  0.11968320  0.20183053  1  0  0.288836  0  0.945365  0  0  0.274031  0  1.011537  0  0  0.280516  0  1.007454  0  0  0.276914  0.269477  0  1.014276  0
H  H5  1  0.16193234  0.61968135  0.29817043  1  0  0.288831  0  0.945382  0  0  0.274034  0  1.011543  0  0  0.280518  0  1.007461  0  0  0.276934  0.269478  0  1.014282  0
H  H6  1  0.33806597  0.88031888  0.79816941  1  0  0.288849  0  0.945356  0  0  0.274065  0  1.011511  0  0  0.280549  0  1.007429  0  0  0.276926  0.269511  0  1.014251  0
H  H7  1  0.83806151  0.38031392  0.70183263  1  0  0.288828  0  0.945377  0  0  0.274035  0  1.011517  0  0  0.28052  0  1.007436  0  0  0.276935  0.269484  0  1.014256  0
H  H8  1  0.84899413  0.12288142  0.08772832  1  0  0.308676  0  0.92366  0  0  0.296582  0  0.980293  0  0  0.303378  0  0.975932  0  0  0.281408  0.291674  0  0.983528  0
H  H9  1  0.34899431  0.62288104  0.41227140  1  0  0.308666  0  0.923655  0  0  0.296556  0  0.980316  0  0  0.30335  0  0.975957  0  0  0.281417  0.29165  0  0.983548  0
H  H10  1  0.15100528  0.87711930  0.91227058  1  0  0.308681  0  0.923645  0  0  0.296603  0  0.980271  0  0  0.303398  0  0.97591  0  0  0.281413  0.291696  0  0.983506  0
H  H11  1  0.65100531  0.37711694  0.58772958  1  0  0.308675  0  0.923658  0  0  0.296586  0  0.980287  0  0  0.30338  0  0.975927  0  0  0.281412  0.29168  0  0.983518  0
H  H12  1  0.39406645  0.84584990  0.10541153  1  0  0.060303  0  0.936688  0  0  0.075238  0  1.00371  0  0  0.075748  0  1.003784  0  0  0.095408  0.074762  0  1.003814  0
H  H13  1  0.89406805  0.34584920  0.39458837  1  0  0.0603  0  0.936704  0  0  0.075263  0  1.003696  0  0  0.075773  0  1.003771  0  0  0.095417  0.074787  0  1.003798  0
H  H14  1  0.60593210  0.15415219  0.89458944  1  0  0.060327  0  0.936681  0  0  0.07532  0  1.003639  0  0  0.075829  0  1.003715  0  0  0.095434  0.074843  0  1.003747  0
H  H15  1  0.10593392  0.65414741  0.60541364  1  0  0.060363  0  0.936637  0  0  0.075295  0  1.003663  0  0  0.075806  0  1.003736  0  0  0.095439  0.07482  0  1.003771  0
H  H16  1  0.58705673  0.84949226  0.97756182  1  0  0.059866  0  0.963523  0  0  0.071252  0  1.037025  0  0  0.072212  0  1.036327  0  0  0.094565  0.070377  0  1.03785  0
H  H17  1  0.08705559  0.34949056  0.52243421  1  0  0.059885  0  0.963517  0  0  0.071248  0  1.037051  0  0  0.072208  0  1.036354  0  0  0.094568  0.070376  0  1.037878  0
H  H18  1  0.41294268  0.15050846  0.02243915  1  0  0.059875  0  0.963504  0  0  0.071266  0  1.037007  0  0  0.072227  0  1.036309  0  0  0.094555  0.070393  0  1.03783  0
H  H19  1  0.91294275  0.65050469  0.47756364  1  0  0.05988  0  0.963543  0  0  0.071251  0  1.037051  0  0  0.072211  0  1.036353  0  0  0.094574  0.07038  0  1.037877  0
C  C20  1  0.53364476  0.93603698  0.04395517  1  0  0.047333  0  3.652544  0  0  -0.009382  0  3.916422  0  0  -0.006079  0  3.930228  0  0  -0.087992  -0.01149  0  3.906911  0
C  C21  1  0.03364431  0.43603569  0.45604524  1  0  0.047291  0  3.652556  0  0  -0.009434  0  3.916447  0  0  -0.006131  0  3.930251  0  0  -0.08797  -0.011541  0  3.906942  0
C  C22  1  0.46635829  0.06396509  0.95604581  1  0  0.047289  0  3.652545  0  0  -0.009467  0  3.916481  0  0  -0.006163  0  3.930285  0  0  -0.087963  -0.011576  0  3.906971  0
C  C23  1  0.96635660  0.56396503  0.54395470  1  0  0.047318  0  3.652528  0  0  -0.009371  0  3.916384  0  0  -0.006067  0  3.93019  0  0  -0.087965  -0.011489  0  3.906889  0
Se  Se24  1  0.80713598  0.57527876  0.09276751  1  0  1.20821  0  3.51116  0  0  1.147001  0  3.970455  0  0  1.186127  0  3.947823  0  0  0.598289  1.11843  0  3.986414  0
Se  Se25  1  0.30713541  0.07528016  0.40723220  1  0  1.20819  0  3.511225  0  0  1.146975  0  3.970532  0  0  1.186103  0  3.947896  0  0  0.598266  1.118407  0  3.986488  0
Se  Se26  1  0.19286492  0.42472195  0.90723347  1  0  1.208168  0  3.511215  0  0  1.146964  0  3.97052  0  0  1.18609  0  3.947887  0  0  0.598277  1.118395  0  3.986478  0
Se  Se27  1  0.69286464  0.92472192  0.59276669  1  0  1.208181  0  3.51121  0  0  1.146968  0  3.970513  0  0  1.186094  0  3.947878  0  0  0.598267  1.1184  0  3.986472  0
N  N28  1  0.71254886  0.03656017  0.14089790  1  0  -0.64095  0  3.119685  0  0  -0.573524  0  3.374475  0  0  -0.595644  0  3.371002  0  0  -0.634193  -0.557838  0  3.376366  0
N  N29  1  0.21254913  0.53655974  0.35909979  1  0  -0.640923  0  3.119711  0  0  -0.573501  0  3.374549  0  0  -0.595621  0  3.37108  0  0  -0.634244  -0.557814  0  3.376439  0
N  N30  1  0.28744991  0.96343918  0.85910204  1  0  -0.640938  0  3.119664  0  0  -0.573588  0  3.374529  0  0  -0.595705  0  3.371055  0  0  -0.634215  -0.557901  0  3.376423  0
N  N31  1  0.78744985  0.46343688  0.64089910  1  0  -0.640943  0  3.119696  0  0  -0.573542  0  3.374528  0  0  -0.595662  0  3.371059  0  0  -0.634233  -0.557851  0  3.376424  0
O  O32  1  0.57638372  0.60119763  0.15173629  1  0  -0.808391  0  1.857317  0  0  -0.72636  0  2.165777  0  0  -0.754905  0  2.14457  0  0  -0.415384  -0.705996  0  2.179628  0
O  O33  1  0.07638262  0.10119761  0.34826370  1  0  -0.80841  0  1.857323  0  0  -0.726374  0  2.165762  0  0  -0.754924  0  2.144557  0  0  -0.415407  -0.706012  0  2.179612  0
O  O34  1  0.42361633  0.39880445  0.84826989  1  0  -0.808352  0  1.857319  0  0  -0.72634  0  2.165788  0  0  -0.754887  0  2.144583  0  0  -0.415364  -0.705979  0  2.179643  0
O  O35  1  0.92361829  0.89880310  0.65173415  1  0  -0.808398  0  1.857341  0  0  -0.726367  0  2.165804  0  0  -0.754912  0  2.144597  0  0  -0.415382  -0.706005  0  2.179659  0
O  O36  1  0.98930823  0.73576180  0.20255127  1  0  -0.798972  0  1.769251  0  0  -0.727482  0  2.061572  0  0  -0.753452  0  2.040352  0  0  -0.422539  -0.708936  0  2.076094  0
O  O37  1  0.48930572  0.23576173  0.29744737  1  0  -0.798991  0  1.769271  0  0  -0.727507  0  2.061603  0  0  -0.753479  0  2.040383  0  0  -0.42255  -0.708959  0  2.076114  0
O  O38  1  0.01069717  0.26423890  0.79744658  1  0  -0.79897  0  1.769256  0  0  -0.727493  0  2.061593  0  0  -0.753453  0  2.040359  0  0  -0.422562  -0.708947  0  2.076116  0
O  O39  1  0.51069155  0.76423763  0.70255152  1  0  -0.798986  0  1.769277  0  0  -0.727502  0  2.061601  0  0  -0.753473  0  2.040387  0  0  -0.422544  -0.708955  0  2.076128  0
O  O40  1  0.86426365  0.69693215  0.93825194  1  0  -0.812597  0  1.852032  0  0  -0.743199  0  2.164164  0  0  -0.769431  0  2.141504  0  0  -0.425697  -0.724349  0  2.179472  0
O  O41  1  0.36426158  0.19693185  0.56174674  1  0  -0.812572  0  1.852073  0  0  -0.743165  0  2.164199  0  0  -0.769393  0  2.141536  0  0  -0.425677  -0.724318  0  2.179509  0
O  O42  1  0.13573662  0.30306720  0.06174800  1  0  -0.812613  0  1.852078  0  0  -0.743215  0  2.164218  0  0  -0.76945  0  2.141555  0  0  -0.425714  -0.724363  0  2.179517  0
O  O43  1  0.63573783  0.80306886  0.43825111  1  0  -0.812597  0  1.852096  0  0  -0.743193  0  2.164233  0  0  -0.769424  0  2.141571  0  0  -0.425694  -0.724342  0  2.179536  0
