# generated using pymatgen
data_ZnH8C10(NO2)2
_symmetry_space_group_name_H-M   'P 1'
_cell_length_a   6.34007138
_cell_length_b   8.69746106
_cell_length_c   9.37177747
_cell_angle_alpha   82.35240985
_cell_angle_beta   79.62036042
_cell_angle_gamma   82.45360589
_symmetry_Int_Tables_number   1
_chemical_formula_structural   ZnH8C10(NO2)2
_chemical_formula_sum   'Zn2 H16 C20 N4 O8'
_cell_volume   500.74134898
_cell_formula_units_Z   2
loop_
 _symmetry_equiv_pos_site_id
 _symmetry_equiv_pos_as_xyz
  1  'x, y, z'
loop_
 _atom_site_type_symbol
 _atom_site_label
 _atom_site_symmetry_multiplicity
 _atom_site_fract_x
 _atom_site_fract_y
 _atom_site_fract_z
 _atom_site_occupancy
 _atom_site_hle17_bader_spin_density
 _atom_site_hle17_ddec_charge
 _atom_site_hle17_ddec_spin_density
 _atom_site_hle17_ddec_sum_bond_order
 _atom_site_hle17_magmom
 _atom_site_hse06_10hf_bader_spin_density
 _atom_site_hse06_10hf_ddec_charge
 _atom_site_hse06_10hf_ddec_spin_density
 _atom_site_hse06_10hf_ddec_sum_bond_order
 _atom_site_hse06_10hf_magmom
 _atom_site_hse06_bader_spin_density
 _atom_site_hse06_ddec_charge
 _atom_site_hse06_ddec_spin_density
 _atom_site_hse06_ddec_sum_bond_order
 _atom_site_hse06_magmom
 _atom_site_pbe_bader_spin_density
 _atom_site_pbe_cm5_charge
 _atom_site_pbe_ddec_charge
 _atom_site_pbe_ddec_spin_density
 _atom_site_pbe_ddec_sum_bond_order
 _atom_site_pbe_magmom
Zn  Zn0  1  0.24824088  0.08097616  0.45804475  1  0  1.102389  0  1.8085  0  0  0.927558  0  2.282202  0  0  0.980039  0  2.219417  0  0  0.665257  0.890314  0  2.325061  0
Zn  Zn1  1  0.75174744  0.91901709  0.54195933  1  0  1.10238  0  1.808515  0  0  0.92755  0  2.282219  0  0  0.980031  0  2.219433  0  0  0.665237  0.890303  0  2.325079  0
H  H2  1  0.31845479  0.96091587  0.76892516  1  0  0.116324  0  0.949504  0  0  0.121126  0  1.016757  0  0  0.125347  0  1.011954  0  0  0.127936  0.118186  0  1.020095  0
H  H3  1  0.68155038  0.03908218  0.23107522  1  0  0.116395  0  0.949495  0  0  0.121174  0  1.016762  0  0  0.125395  0  1.011959  0  0  0.127955  0.118235  0  1.0201  0
H  H4  1  0.74190039  0.47902727  0.76961831  1  0  0.109619  0  0.954549  0  0  0.12083  0  1.013128  0  0  0.123652  0  1.013115  0  0  0.106771  0.118918  0  1.013012  0
H  H5  1  0.25810899  0.52096494  0.23037912  1  0  0.109639  0  0.954549  0  0  0.120865  0  1.013105  0  0  0.123685  0  1.013092  0  0  0.10678  0.118951  0  1.012987  0
H  H6  1  0.10242998  0.55869210  0.65344094  1  0  0.135718  0  0.939189  0  0  0.143918  0  0.998135  0  0  0.148113  0  0.996827  0  0  0.110379  0.141149  0  0.998892  0
H  H7  1  0.89758047  0.44131295  0.34655257  1  0  0.135718  0  0.939124  0  0  0.143941  0  0.998073  0  0  0.148138  0  0.996758  0  0  0.110361  0.14117  0  0.998828  0
H  H8  1  0.39004982  0.64585235  0.76898254  1  0  0.095751  0  0.975902  0  0  0.105437  0  1.039721  0  0  0.108032  0  1.037315  0  0  0.100479  0.10359  0  1.041162  0
H  H9  1  0.60997062  0.35414105  0.23100595  1  0  0.095724  0  0.975902  0  0  0.105452  0  1.039689  0  0  0.108048  0  1.037283  0  0  0.100513  0.103611  0  1.041117  0
H  H10  1  0.32652136  0.83647483  0.02615647  1  0  0.109085  0  0.954321  0  0  0.118167  0  1.015323  0  0  0.121118  0  1.015676  0  0  0.105245  0.116047  0  1.015495  0
H  H11  1  0.67347048  0.16353595  0.97384171  1  0  0.109105  0  0.954352  0  0  0.118164  0  1.015378  0  0  0.121111  0  1.015736  0  0  0.105256  0.116044  0  1.015548  0
H  H12  1  0.79702442  0.22636038  0.65349009  1  0  0.118814  0  0.958627  0  0  0.123083  0  1.027987  0  0  0.127453  0  1.023197  0  0  0.125689  0.120251  0  1.030772  0
H  H13  1  0.20295989  0.77362816  0.34651402  1  0  0.118804  0  0.958557  0  0  0.123086  0  1.027906  0  0  0.127468  0  1.023101  0  0  0.125694  0.120252  0  1.030696  0
H  H14  1  0.00330866  0.70288300  0.15835736  1  0  0.087759  0  0.976894  0  0  0.099269  0  1.040164  0  0  0.101636  0  1.037984  0  0  0.101093  0.097899  0  1.040663  0
H  H15  1  0.99669202  0.29714191  0.84164220  1  0  0.08785  0  0.976826  0  0  0.099357  0  1.040071  0  0  0.101733  0  1.037884  0  0  0.101068  0.097977  0  1.040577  0
H  H16  1  0.69402472  0.69624495  0.03066634  1  0  0.118444  0  0.966045  0  0  0.128436  0  1.026045  0  0  0.131341  0  1.026784  0  0  0.103637  0.126651  0  1.025229  0
H  H17  1  0.30597081  0.30376246  0.96934465  1  0  0.118453  0  0.965992  0  0  0.12845  0  1.025996  0  0  0.131329  0  1.026762  0  0  0.103647  0.126665  0  1.025179  0
C  C18  1  0.83034933  0.82795945  0.83350753  1  0  0.417024  0  3.878941  0  0  0.383464  0  4.147372  0  0  0.407126  0  4.156308  0  0  0.1937  0.367407  0  4.142546  0
C  C19  1  0.16964462  0.17203851  0.16649527  1  0  0.416875  0  3.878927  0  0  0.383335  0  4.147336  0  0  0.406998  0  4.156268  0  0  0.193677  0.367278  0  4.142512  0
C  C20  1  0.18540563  0.90340450  0.83436072  1  0  0.038036  0  3.653408  0  0  -0.001601  0  3.917037  0  0  0.010329  0  3.927369  0  0  0.037235  -0.009341  0  3.909888  0
C  C21  1  0.81459155  0.09659347  0.16563849  1  0  0.037871  0  3.653536  0  0  -0.00177  0  3.917227  0  0  0.010162  0  3.927552  0  0  0.037131  -0.009512  0  3.91008  0
C  C22  1  0.61242777  0.44126276  0.72558788  1  0  -0.152182  0  3.795163  0  0  -0.168508  0  4.062523  0  0  -0.178398  0  4.082821  0  0  -0.107277  -0.162254  0  4.048131  0
C  C23  1  0.38758299  0.55873066  0.27441244  1  0  -0.152398  0  3.795303  0  0  -0.168713  0  4.062679  0  0  -0.178603  0  4.082981  0  0  -0.107391  -0.162457  0  4.048291  0
C  C24  1  0.25501260  0.48705443  0.66222170  1  0  -0.243246  0  3.722709  0  0  -0.256169  0  3.981078  0  0  -0.268742  0  4.000091  0  0  -0.103901  -0.248278  0  3.967895  0
C  C25  1  0.74499682  0.51294712  0.33777452  1  0  -0.243153  0  3.722501  0  0  -0.256095  0  3.980898  0  0  -0.268667  0  3.999911  0  0  -0.103863  -0.248202  0  3.967719  0
C  C26  1  0.41434724  0.53450211  0.72419081  1  0  0.002378  0  3.765933  0  0  -0.024907  0  4.027133  0  0  -0.014827  0  4.041006  0  0  -0.083787  -0.030196  0  4.015939  0
C  C27  1  0.58567404  0.46549595  0.27579484  1  0  0.002447  0  3.765974  0  0  -0.0249  0  4.027235  0  0  -0.014813  0  4.041093  0  0  -0.083784  -0.030186  0  4.016026  0
C  C28  1  0.18637431  0.83303366  0.97522870  1  0  -0.15714  0  3.813786  0  0  -0.174712  0  4.083088  0  0  -0.185582  0  4.105665  0  0  -0.108285  -0.168022  0  4.067657  0
C  C29  1  0.81362490  0.16697133  0.02476935  1  0  -0.157059  0  3.813716  0  0  -0.17463  0  4.083021  0  0  -0.185499  0  4.105604  0  0  -0.108251  -0.167938  0  4.067587  0
C  C30  1  0.64581100  0.30265069  0.66421993  1  0  0.026083  0  3.648958  0  0  -0.015823  0  3.914168  0  0  -0.004467  0  3.925233  0  0  0.034158  -0.022926  0  3.906711  0
C  C31  1  0.35418307  0.69733680  0.33578849  1  0  0.026238  0  3.648786  0  0  -0.0157  0  3.914033  0  0  -0.004353  0  3.925098  0  0  0.034227  -0.022803  0  3.906576  0
C  C32  1  0.00749754  0.75846869  0.04697935  1  0  -0.011666  0  3.808176  0  0  -0.040123  0  4.072906  0  0  -0.031548  0  4.090034  0  0  -0.086759  -0.043371  0  4.05826  0
C  C33  1  0.99251070  0.24153988  0.95301716  1  0  -0.011928  0  3.808252  0  0  -0.040348  0  4.07294  0  0  -0.031772  0  4.090053  0  0  -0.08677  -0.043586  0  4.058281  0
C  C34  1  0.83362600  0.75502023  0.97724289  1  0  -0.244559  0  3.747819  0  0  -0.257612  0  4.000291  0  0  -0.270106  0  4.020502  0  0  -0.109191  -0.251258  0  3.986824  0
C  C35  1  0.16636816  0.24498596  0.02276414  1  0  -0.244432  0  3.747934  0  0  -0.257506  0  4.000401  0  0  -0.269976  0  4.020628  0  0  -0.109206  -0.251149  0  3.986928  0
C  C36  1  0.28619140  0.34403358  0.60078902  1  0  0.416992  0  3.877743  0  0  0.381484  0  4.150609  0  0  0.404348  0  4.161435  0  0  0.194823  0.365998  0  4.143844  0
C  C37  1  0.71381161  0.65596792  0.39920690  1  0  0.416902  0  3.877807  0  0  0.381389  0  4.150708  0  0  0.404252  0  4.161537  0  0  0.194803  0.365901  0  4.143947  0
N  N38  1  0.48714934  0.25657276  0.60574649  1  0  0.135266  0  3.5734  0  0  0.192544  0  3.82133  0  0  0.184344  0  3.842079  0  0  -0.13883  0.196991  0  3.807873  0
N  N39  1  0.51284322  0.74342401  0.39425449  1  0  0.13534  0  3.573587  0  0  0.192615  0  3.821534  0  0  0.184415  0  3.842291  0  0  -0.138806  0.197064  0  3.808078  0
N  N40  1  0.01447154  0.90008259  0.76726155  1  0  0.141169  0  3.56932  0  0  0.197478  0  3.818211  0  0  0.189831  0  3.838097  0  0  -0.134697  0.201983  0  3.804605  0
N  N41  1  0.98551987  0.09992117  0.23273759  1  0  0.141245  0  3.569474  0  0  0.197544  0  3.818359  0  0  0.189899  0  3.838248  0  0  -0.134693  0.202048  0  3.804754  0
O  O42  1  0.52068405  0.12279611  0.54273840  1  0  -0.584596  0  2.017053  0  0  -0.515868  0  2.307138  0  0  -0.542519  0  2.298318  0  0  -0.2495  -0.497181  0  2.312259  0
O  O43  1  0.47931012  0.87720067  0.45726132  1  0  -0.584746  0  2.017316  0  0  -0.515949  0  2.307325  0  0  -0.54258  0  2.298466  0  0  -0.249543  -0.497245  0  2.312406  0
O  O44  1  0.14752122  0.29033595  0.54271852  1  0  -0.598351  0  2.072594  0  0  -0.537699  0  2.337637  0  0  -0.563934  0  2.328535  0  0  -0.318954  -0.520048  0  2.343123  0
O  O45  1  0.85247516  0.70966670  0.45728231  1  0  -0.598319  0  2.072683  0  0  -0.53767  0  2.337734  0  0  -0.563908  0  2.328632  0  0  -0.318943  -0.52002  0  2.343224  0
O  O46  1  0.67712999  0.83316214  0.76040387  1  0  -0.600867  0  2.080408  0  0  -0.53829  0  2.339811  0  0  -0.564654  0  2.33022  0  0  -0.31854  -0.520566  0  2.346362  0
O  O47  1  0.32286714  0.16683588  0.23960174  1  0  -0.600779  0  2.080325  0  0  -0.538233  0  2.339764  0  0  -0.564598  0  2.330172  0  0  -0.318529  -0.520519  0  2.346336  0
O  O48  1  0.01326445  0.97004007  0.63037908  1  0  -0.578217  0  2.008751  0  0  -0.511488  0  2.293284  0  0  -0.537956  0  2.285062  0  0  -0.246659  -0.491955  0  2.29771  0
O  O49  1  0.98672979  0.02996603  0.36961623  1  0  -0.5782  0  2.008836  0  0  -0.5114  0  2.293245  0  0  -0.537873  0  2.285031  0  0  -0.246592  -0.491866  0  2.29767  0
