# generated using pymatgen
data_CuH12C10(NO)4
_symmetry_space_group_name_H-M   'P 1'
_cell_length_a   4.71701429
_cell_length_b   9.47074852
_cell_length_c   13.51090600
_cell_angle_alpha   90.00013171
_cell_angle_beta   90.00037519
_cell_angle_gamma   95.86185416
_symmetry_Int_Tables_number   1
_chemical_formula_structural   CuH12C10(NO)4
_chemical_formula_sum   'Cu2 H24 C20 N8 O8'
_cell_volume   600.42545994
_cell_formula_units_Z   2
loop_
 _symmetry_equiv_pos_site_id
 _symmetry_equiv_pos_as_xyz
  1  'x, y, z'
loop_
 _atom_site_type_symbol
 _atom_site_label
 _atom_site_symmetry_multiplicity
 _atom_site_fract_x
 _atom_site_fract_y
 _atom_site_fract_z
 _atom_site_occupancy
 _atom_site_pbe_cm5_charge
 _atom_site_pbe_ddec_charge
 _atom_site_pbe_ddec_spin_density
 _atom_site_pbe_ddec_sum_bond_order
 _atom_site_pbe_magmom
Cu  Cu0  1  0.00000284  0.50000109  0.50000092  1  0.748767  0.712077  0.718751  2.297798  0.557
Cu  Cu1  1  0.99999836  0.99999795  0.00000123  1  0.748759  0.712109  0.718746  2.297786  0.557
H  H2  1  0.89178207  0.33498518  0.29579272  1  0.121813  0.114539  -6.8e-05  1.003059  0.0
H  H3  1  0.10822373  0.16502142  0.79579589  1  0.121816  0.114558  -6.8e-05  1.003014  0.0
H  H4  1  0.10822933  0.66502127  0.70420954  1  0.121825  0.114526  -6.8e-05  1.003031  0.0
H  H5  1  0.89177520  0.83497546  0.20420563  1  0.121818  0.114565  -6.8e-05  1.002972  0.0
H  H6  1  0.49578325  0.41601956  0.16000128  1  0.108788  0.146425  0.000448  1.047555  0.001
H  H7  1  0.50421992  0.08398647  0.66000450  1  0.108822  0.146461  0.000448  1.047521  0.001
H  H8  1  0.50423726  0.58399010  0.83999802  1  0.108803  0.146383  0.000448  1.047661  0.001
H  H9  1  0.49576737  0.91600508  0.33999406  1  0.108826  0.146427  0.000447  1.047647  0.001
H  H10  1  0.27136866  0.63801309  0.25495856  1  0.128137  0.118209  0.00048  0.996616  0.001
H  H11  1  0.72862283  0.86198807  0.75495905  1  0.128182  0.118303  0.00048  0.996587  0.001
H  H12  1  0.72864507  0.36199444  0.74504148  1  0.128133  0.118268  0.00048  0.996571  0.001
H  H13  1  0.27135980  0.13800134  0.24503951  1  0.128163  0.1183  0.00048  0.996549  0.001
H  H14  1  0.96674121  0.95621094  0.60922603  1  0.097973  0.111344  -0.000347  1.001289  0.0
H  H15  1  0.03326210  0.54378857  0.10922409  1  0.097989  0.111342  -0.000347  1.001297  0.0
H  H16  1  0.03325472  0.04379230  0.39077328  1  0.09796  0.111325  -0.000347  1.00131  0.0
H  H17  1  0.96674045  0.45620513  0.89077151  1  0.097945  0.111267  -0.000347  1.001344  0.0
H  H18  1  0.69718872  0.92576615  0.51975722  1  0.100419  0.124134  -0.000197  1.008943  0.0
H  H19  1  0.30281033  0.57423085  0.01975597  1  0.100397  0.124131  -0.000197  1.008944  0.0
H  H20  1  0.30280912  0.07423603  0.48024060  1  0.100419  0.124166  -0.000197  1.008919  0.0
H  H21  1  0.69718648  0.42576602  0.98023889  1  0.100424  0.124122  -0.000197  1.008961  0.0
H  H22  1  0.50040865  0.66088931  0.42188918  1  0.318366  0.265908  -0.000245  1.014143  0.0
H  H23  1  0.49958376  0.83911149  0.92188836  1  0.318374  0.265917  -0.000245  1.014106  0.0
H  H24  1  0.49959577  0.33911395  0.57811308  1  0.318364  0.265923  -0.000245  1.014089  0.0
H  H25  1  0.50040861  0.16088431  0.07811242  1  0.318357  0.265943  -0.000245  1.014057  0.0
C  C26  1  0.74952195  0.41752735  0.30078562  1  0.018004  0.014385  -0.000838  3.978102  0.001
C  C27  1  0.25047950  0.08247820  0.80078825  1  0.018007  0.014453  -0.000837  3.978059  0.001
C  C28  1  0.25048733  0.58247910  0.69921442  1  0.018002  0.014455  -0.000838  3.978112  0.001
C  C29  1  0.74951266  0.91751654  0.19921253  1  0.018004  0.014482  -0.000839  3.978051  0.001
C  C30  1  0.55207632  0.46064248  0.23222970  1  -0.116842  -0.223646  0.001907  3.993582  0.002
C  C31  1  0.44792592  0.03936279  0.73223198  1  -0.11689  -0.223685  0.001908  3.993551  0.002
C  C32  1  0.44794186  0.53936612  0.76777108  1  -0.116773  -0.223439  0.001908  3.993607  0.002
C  C33  1  0.55206158  0.96062982  0.26776880  1  -0.116772  -0.223522  0.001907  3.993699  0.002
C  C34  1  0.43329511  0.57193918  0.27840864  1  0.027265  0.010938  -0.001185  3.946228  0.0
C  C35  1  0.56670150  0.92806421  0.77840960  1  0.02723  0.010774  -0.001184  3.946293  0.0
C  C36  1  0.56671650  0.42806834  0.72159214  1  0.027177  0.010651  -0.001184  3.946366  0.0
C  C37  1  0.43328791  0.07192734  0.22159118  1  0.027175  0.01071  -0.001185  3.946328  0.0
C  C38  1  0.03879203  0.79653278  0.50501345  1  0.206894  0.622652  -0.000837  4.1317  -0.002
C  C39  1  0.96121180  0.70346841  0.00501245  1  0.206994  0.622764  -0.000838  4.131751  -0.002
C  C40  1  0.96120793  0.20346941  0.49498659  1  0.206937  0.622807  -0.000838  4.131594  -0.002
C  C41  1  0.03878522  0.29652952  0.99498685  1  0.207018  0.622973  -0.000838  4.13154  -0.002
C  C42  1  0.92931461  0.93780716  0.52963175  1  -0.169581  -0.274629  0.009717  3.925639  0.01
C  C43  1  0.07068525  0.56219306  0.02962993  1  -0.16954  -0.274612  0.009717  3.925608  0.01
C  C44  1  0.07068132  0.06219607  0.47036681  1  -0.169574  -0.274766  0.009716  3.925736  0.01
C  C45  1  0.92931368  0.43780382  0.97036493  1  -0.169582  -0.274659  0.009717  3.925717  0.01
N  N46  1  0.75118301  0.49787214  0.38309179  1  -0.283488  -0.18487  0.050197  3.573585  0.065
N  N47  1  0.24881516  0.00213057  0.88309281  1  -0.283488  -0.185015  0.050193  3.573697  0.065
N  N48  1  0.24882352  0.50213113  0.61691047  1  -0.283549  -0.185053  0.050193  3.5738  0.065
N  N49  1  0.75117953  0.99786629  0.11690797  1  -0.283549  -0.185087  0.050195  3.573807  0.065
N  N50  1  0.55771105  0.59143385  0.36787135  1  -0.284771  -0.096525  0.001624  3.736195  0.002
N  N51  1  0.44228243  0.90856672  0.86787125  1  -0.284753  -0.096385  0.001624  3.736111  0.002
N  N52  1  0.44229357  0.40857047  0.63213166  1  -0.284702  -0.096348  0.001624  3.736117  0.002
N  N53  1  0.55770740  0.09142695  0.13212954  1  -0.284762  -0.096485  0.001624  3.736133  0.002
O  O54  1  0.88061764  0.68667600  0.53816016  1  -0.334812  -0.545383  0.079914  2.332689  0.113
O  O55  1  0.11939299  0.81332429  0.03815886  1  -0.33485  -0.545437  0.079919  2.332679  0.113
O  O56  1  0.11938444  0.31332619  0.46184063  1  -0.334823  -0.545441  0.079917  2.332638  0.113
O  O57  1  0.88060806  0.18667260  0.96184118  1  -0.334846  -0.545493  0.079916  2.332586  0.113
O  O58  1  0.26487082  0.79095722  0.45673937  1  -0.312559  -0.559493  5.6e-05  2.219914  0.002
O  O59  1  0.73513095  0.70904481  0.95673815  1  -0.312649  -0.559582  5.6e-05  2.219951  0.002
O  O60  1  0.73512915  0.20904497  0.54326215  1  -0.312573  -0.559527  5.6e-05  2.219853  0.002
O  O61  1  0.26486224  0.29095523  0.04326411  1  -0.312615  -0.559633  5.6e-05  2.219817  0.002
