# generated using pymatgen
data_LiBH16C10N8(OF)2
_symmetry_space_group_name_H-M   'P 1'
_cell_length_a   8.08825552
_cell_length_b   9.15776707
_cell_length_c   11.02817863
_cell_angle_alpha   107.14657331
_cell_angle_beta   100.95188197
_cell_angle_gamma   98.06371807
_symmetry_Int_Tables_number   1
_chemical_formula_structural   LiBH16C10N8(OF)2
_chemical_formula_sum   'Li2 B2 H32 C20 N16 O4 F4'
_cell_volume   749.37746245
_cell_formula_units_Z   2
loop_
 _symmetry_equiv_pos_site_id
 _symmetry_equiv_pos_as_xyz
  1  'x, y, z'
loop_
 _atom_site_type_symbol
 _atom_site_label
 _atom_site_symmetry_multiplicity
 _atom_site_fract_x
 _atom_site_fract_y
 _atom_site_fract_z
 _atom_site_occupancy
 _atom_site_hle17_bader_spin_density
 _atom_site_hle17_ddec_charge
 _atom_site_hle17_ddec_spin_density
 _atom_site_hle17_ddec_sum_bond_order
 _atom_site_hle17_magmom
 _atom_site_hse06_10hf_bader_spin_density
 _atom_site_hse06_10hf_ddec_charge
 _atom_site_hse06_10hf_ddec_spin_density
 _atom_site_hse06_10hf_ddec_sum_bond_order
 _atom_site_hse06_10hf_magmom
 _atom_site_hse06_bader_spin_density
 _atom_site_hse06_ddec_charge
 _atom_site_hse06_ddec_spin_density
 _atom_site_hse06_ddec_sum_bond_order
 _atom_site_hse06_magmom
 _atom_site_pbe_bader_spin_density
 _atom_site_pbe_cm5_charge
 _atom_site_pbe_ddec_charge
 _atom_site_pbe_ddec_spin_density
 _atom_site_pbe_ddec_sum_bond_order
 _atom_site_pbe_magmom
Li  Li0  1  0.02778236  0.65916273  0.78967760  1  0  0.774798  0  0.522438  0  0  0.698903  0  0.681422  0  0  0.710507  0  0.663735  0  0  0.565086  0.690896  0  0.693694  0
Li  Li1  1  0.97221743  0.34083662  0.21032117  1  0  0.7748  0  0.522448  0  0  0.698899  0  0.681442  0  0  0.710504  0  0.663753  0  0  0.565081  0.690892  0  0.693714  0
B  B2  1  0.23618566  0.11336302  0.55544881  1  0  0.973231  0  2.963903  0  0  0.790446  0  3.351591  0  0  0.825227  0  3.318775  0  0  0.098414  0.765659  0  3.375585  0
B  B3  1  0.76381413  0.88663633  0.44455086  1  0  0.97316  0  2.963836  0  0  0.790408  0  3.351463  0  0  0.825175  0  3.318665  0  0  0.098391  0.765621  0  3.375463  0
H  H4  1  0.98563774  0.63386357  0.07352656  1  0  0.052956  0  0.934061  0  0  0.064651  0  1.001928  0  0  0.065342  0  1.001303  0  0  0.104528  0.064116  0  1.002386  0
H  H5  1  0.01436483  0.36613695  0.92647471  1  0  0.052949  0  0.934058  0  0  0.064643  0  1.001924  0  0  0.065334  0  1.0013  0  0  0.104525  0.064108  0  1.002381  0
H  H6  1  0.07134860  0.83710914  0.10973277  1  0  0.046724  0  0.931142  0  0  0.060031  0  0.996923  0  0  0.060342  0  0.996838  0  0  0.09786  0.059682  0  0.997114  0
H  H7  1  0.92865243  0.16289021  0.89026799  1  0  0.046726  0  0.93118  0  0  0.060031  0  0.996958  0  0  0.060342  0  0.996873  0  0  0.097857  0.059682  0  0.997148  0
H  H8  1  0.33314957  0.82917956  0.24438049  1  0  0.077402  0  0.955192  0  0  0.090321  0  1.022309  0  0  0.091772  0  1.02165  0  0  0.087872  0.08875  0  1.023853  0
H  H9  1  0.66685274  0.17081979  0.75561864  1  0  0.077449  0  0.955194  0  0  0.090367  0  1.022305  0  0  0.091817  0  1.021643  0  0  0.087888  0.088796  0  1.023848  0
H  H10  1  0.21650569  0.65801543  0.25606821  1  0  0.080529  0  0.969903  0  0  0.093329  0  1.038983  0  0  0.094246  0  1.039478  0  0  0.096794  0.092626  0  1.038795  0
H  H11  1  0.78349510  0.34198276  0.74392950  1  0  0.080543  0  0.969873  0  0  0.093329  0  1.038975  0  0  0.094246  0  1.039468  0  0  0.096776  0.092626  0  1.038787  0
H  H12  1  0.49779171  0.64361198  0.15419003  1  0  0.081829  0  0.967206  0  0  0.089056  0  1.04776  0  0  0.090609  0  1.046896  0  0  0.092578  0.087964  0  1.048299  0
H  H13  1  0.50220987  0.35638971  0.84580957  1  0  0.081818  0  0.967183  0  0  0.089061  0  1.047754  0  0  0.090616  0  1.046887  0  0  0.092582  0.087969  0  1.048292  0
H  H14  1  0.30955439  0.49142917  0.07590205  1  0  0.073425  0  0.948633  0  0  0.09288  0  1.005146  0  0  0.093624  0  1.005891  0  0  0.093002  0.091896  0  1.005435  0
H  H15  1  0.69044819  0.50857136  0.92409650  1  0  0.073388  0  0.948599  0  0  0.092877  0  1.005112  0  0  0.093622  0  1.005857  0  0  0.09301  0.091893  0  1.005402  0
H  H16  1  0.41349219  0.78399713  0.00244006  1  0  0.048308  0  0.927788  0  0  0.061394  0  0.995485  0  0  0.062106  0  0.994745  0  0  0.097639  0.060825  0  0.996007  0
H  H17  1  0.58650786  0.21600339  0.99755903  1  0  0.048301  0  0.927799  0  0  0.061403  0  0.995478  0  0  0.062116  0  0.994737  0  0  0.097642  0.060834  0  0.996  0
H  H18  1  0.34526356  0.58479168  0.89487993  1  0  0.049397  0  0.962462  0  0  0.060898  0  1.035756  0  0  0.061243  0  1.035106  0  0  0.104884  0.060452  0  1.036439  0
H  H19  1  0.65473704  0.41521118  0.10511800  1  0  0.049371  0  0.96251  0  0  0.060865  0  1.035818  0  0  0.061224  0  1.035154  0  0  0.104868  0.060418  0  1.036502  0
H  H20  1  0.60620361  0.47695183  0.64068949  1  0  0.06224  0  0.933554  0  0  0.075337  0  0.998303  0  0  0.076016  0  0.997601  0  0  0.103876  0.074725  0  0.998985  0
H  H21  1  0.39379517  0.52304868  0.35931123  1  0  0.062237  0  0.933528  0  0  0.075362  0  0.998256  0  0  0.076042  0  0.997551  0  0  0.103884  0.074749  0  0.998941  0
H  H22  1  0.69623419  0.61270025  0.57125789  1  0  0.048689  0  0.934013  0  0  0.058324  0  1.003309  0  0  0.059154  0  1.002661  0  0  0.098207  0.057676  0  1.003883  0
H  H23  1  0.30376558  0.38729909  0.42874359  1  0  0.048666  0  0.933982  0  0  0.05832  0  1.003274  0  0  0.059151  0  1.002624  0  0  0.098202  0.057672  0  1.003849  0
H  H24  1  0.43596294  0.70706742  0.59140384  1  0  0.084075  0  0.949187  0  0  0.097813  0  1.016625  0  0  0.099076  0  1.016394  0  0  0.094045  0.096977  0  1.016671  0
H  H25  1  0.56403558  0.29293192  0.40859656  1  0  0.084131  0  0.949178  0  0  0.097844  0  1.016627  0  0  0.099107  0  1.016393  0  0  0.094065  0.097009  0  1.016672  0
H  H26  1  0.41741848  0.63715233  0.72300165  1  0  0.064874  0  0.963629  0  0  0.078642  0  1.034014  0  0  0.079057  0  1.035195  0  0  0.091314  0.078427  0  1.033108  0
H  H27  1  0.58258056  0.36284934  0.27700030  1  0  0.064895  0  0.963649  0  0  0.078668  0  1.034023  0  0  0.079083  0  1.035205  0  0  0.091315  0.078453  0  1.033117  0
H  H28  1  0.53406025  0.91599335  0.84142721  1  0  0.079289  0  0.959067  0  0  0.093801  0  1.02666  0  0  0.09427  0  1.027767  0  0  0.094628  0.093556  0  1.025761  0
H  H29  1  0.46594230  0.08400717  0.15857496  1  0  0.079284  0  0.959078  0  0  0.093789  0  1.02668  0  0  0.094257  0  1.027787  0  0  0.094619  0.093545  0  1.025782  0
H  H30  1  0.66786356  0.92706780  0.73189430  1  0  0.080823  0  0.951728  0  0  0.097159  0  1.011702  0  0  0.098799  0  1.010984  0  0  0.090616  0.095511  0  1.013135  0
H  H31  1  0.33213470  0.07293037  0.26810487  1  0  0.080814  0  0.951721  0  0  0.097143  0  1.011713  0  0  0.098781  0  1.010996  0  0  0.09061  0.0955  0  1.013141  0
H  H32  1  0.87154356  0.89168152  0.90808745  1  0  0.048349  0  0.937726  0  0  0.058386  0  1.013548  0  0  0.059108  0  1.012088  0  0  0.105931  0.057858  0  1.014584  0
H  H33  1  0.12845623  0.10831782  0.09191223  1  0  0.048293  0  0.937737  0  0  0.058337  0  1.013557  0  0  0.05906  0  1.012097  0  0  0.105912  0.057809  0  1.014594  0
H  H34  1  0.70832329  0.76684804  0.94088057  1  0  0.044135  0  0.944196  0  0  0.05564  0  1.016665  0  0  0.056336  0  1.015744  0  0  0.096328  0.054748  0  1.018096  0
H  H35  1  0.29167549  0.23315247  0.05911925  1  0  0.044136  0  0.944194  0  0  0.055639  0  1.016667  0  0  0.056335  0  1.015747  0  0  0.096329  0.054747  0  1.018098  0
C  C36  1  0.12472341  0.87254486  0.62891443  1  0  0.288608  0  3.746295  0  0  0.254174  0  4.015002  0  0  0.267342  0  4.025037  0  0  0.267686  0.245523  0  4.00826  0
C  C37  1  0.87527512  0.12745448  0.37108325  1  0  0.288672  0  3.746128  0  0  0.254194  0  4.014934  0  0  0.26735  0  4.024979  0  0  0.267705  0.245545  0  4.008188  0
C  C38  1  0.03226466  0.75721185  0.50270318  1  0  0.250327  0  3.744429  0  0  0.219735  0  4.020121  0  0  0.231178  0  4.030493  0  0  0.263179  0.211885  0  4.013666  0
C  C39  1  0.96773564  0.24278983  0.49729895  1  0  0.250332  0  3.74427  0  0  0.219735  0  4.019992  0  0  0.231187  0  4.030356  0  0  0.263198  0.211891  0  4.013527  0
C  C40  1  0.10224420  0.72020429  0.08623325  1  0  0.110701  0  3.557835  0  0  0.057423  0  3.82482  0  0  0.064439  0  3.83053  0  0  -0.063821  0.052771  0  3.820579  0
C  C41  1  0.89775684  0.27979506  0.91376661  1  0  0.110676  0  3.557891  0  0  0.057417  0  3.82487  0  0  0.064432  0  3.830579  0  0  -0.063832  0.052766  0  3.820627  0
C  C42  1  0.25621641  0.71205189  0.18712976  1  0  -0.144167  0  3.654271  0  0  -0.184936  0  3.913543  0  0  -0.186715  0  3.926068  0  0  -0.168114  -0.183329  0  3.905129  0
C  C43  1  0.74378591  0.28794747  0.81286847  1  0  -0.144234  0  3.654232  0  0  -0.184987  0  3.913553  0  0  -0.186757  0  3.926065  0  0  -0.168105  -0.183381  0  3.90514  0
C  C44  1  0.36123926  0.61747449  0.10367474  1  0  -0.151894  0  3.681449  0  0  -0.19002  0  3.935172  0  0  -0.192438  0  3.948916  0  0  -0.168837  -0.188031  0  3.925729  0
C  C45  1  0.63876180  0.38252487  0.89632239  1  0  -0.151804  0  3.68123  0  0  -0.190033  0  3.935085  0  0  -0.192456  0  3.94883  0  0  -0.16884  -0.188045  0  3.925642  0
C  C46  1  0.33085464  0.66933048  0.98421913  1  0  0.102102  0  3.602541  0  0  0.047116  0  3.867187  0  0  0.05413  0  3.873395  0  0  -0.066271  0.042383  0  3.862905  0
C  C47  1  0.66914517  0.33066887  0.01577783  1  0  0.102087  0  3.602511  0  0  0.047145  0  3.867095  0  0  0.054134  0  3.87333  0  0  -0.06628  0.042414  0  3.86281  0
C  C48  1  0.64794881  0.60167020  0.65554601  1  0  0.109365  0  3.561188  0  0  0.058138  0  3.825531  0  0  0.065172  0  3.830859  0  0  -0.065999  0.053378  0  3.821982  0
C  C49  1  0.35205123  0.39833031  0.34445490  1  0  0.109426  0  3.561092  0  0  0.058152  0  3.825462  0  0  0.065189  0  3.830789  0  0  -0.066  0.053394  0  3.821912  0
C  C50  1  0.50890323  0.69533077  0.68137186  1  0  -0.145571  0  3.670873  0  0  -0.186134  0  3.926939  0  0  -0.188528  0  3.941442  0  0  -0.16869  -0.184144  0  3.916398  0
C  C51  1  0.49109681  0.30466974  0.31862904  1  0  -0.145682  0  3.670864  0  0  -0.186226  0  3.926948  0  0  -0.188617  0  3.941444  0  0  -0.168714  -0.184236  0  3.916409  0
C  C52  1  0.61148870  0.85227718  0.78157995  1  0  -0.147874  0  3.670217  0  0  -0.185825  0  3.923823  0  0  -0.188435  0  3.938014  0  0  -0.168799  -0.18368  0  3.914107  0
C  C53  1  0.38851134  0.14772333  0.21842095  1  0  -0.147854  0  3.67018  0  0  -0.1858  0  3.923789  0  0  -0.188407  0  3.937977  0  0  -0.168792  -0.183659  0  3.914075  0
C  C54  1  0.75191622  0.80231077  0.86307166  1  0  0.099024  0  3.617549  0  0  0.03901  0  3.895849  0  0  0.046529  0  3.901072  0  0  -0.067346  0.034085  0  3.892075  0
C  C55  1  0.24808382  0.19768974  0.13692924  1  0  0.099101  0  3.617488  0  0  0.039094  0  3.895787  0  0  0.046612  0  3.90101  0  0  -0.067307  0.034167  0  3.892017  0
N  N56  1  0.20983832  0.01961150  0.65203717  1  0  -0.288406  0  3.386666  0  0  -0.204419  0  3.635597  0  0  -0.221376  0  3.650739  0  0  -0.09739  -0.193262  0  3.625471  0
N  N57  1  0.79016299  0.98038902  0.34796301  1  0  -0.288317  0  3.38659  0  0  -0.204341  0  3.635555  0  0  -0.221289  0  3.650705  0  0  -0.097397  -0.193188  0  3.625426  0
N  N58  1  0.27423508  0.08457749  0.78299163  1  0  -0.037337  0  2.87345  0  0  -0.043129  0  3.166549  0  0  -0.040935  0  3.176681  0  0  -0.047282  -0.044051  0  3.159522  0
N  N59  1  0.72576523  0.91542419  0.21700960  1  0  -0.037375  0  2.873448  0  0  -0.043157  0  3.16654  0  0  -0.040969  0  3.176677  0  0  -0.047255  -0.044073  0  3.15951  0
N  N60  1  0.23072198  0.98019215  0.83610541  1  0  -0.04256  0  2.932176  0  0  -0.036979  0  3.243522  0  0  -0.036194  0  3.252173  0  0  -0.060676  -0.037128  0  3.237346  0
N  N61  1  0.76927833  0.01980953  0.16389491  1  0  -0.042604  0  2.932195  0  0  -0.03702  0  3.243532  0  0  -0.036233  0  3.252183  0  0  -0.060742  -0.03717  0  3.237356  0
N  N62  1  0.13756212  0.84578039  0.74250886  1  0  -0.3653  0  3.011613  0  0  -0.339569  0  3.311743  0  0  -0.349138  0  3.31989  0  0  -0.273473  -0.333434  0  3.30645  0
N  N63  1  0.86243641  0.15421895  0.25749064  1  0  -0.365319  0  3.011648  0  0  -0.339575  0  3.311804  0  0  -0.349141  0  3.319953  0  0  -0.273446  -0.333439  0  3.306511  0
N  N64  1  0.08167455  0.62600786  0.44752272  1  0  -0.238404  0  2.902975  0  0  -0.231438  0  3.196263  0  0  -0.239265  0  3.207081  0  0  -0.185987  -0.226284  0  3.189562  0
N  N65  1  0.91832524  0.37399149  0.55247695  1  0  -0.238421  0  2.903004  0  0  -0.231446  0  3.196285  0  0  -0.239273  0  3.207098  0  0  -0.185989  -0.226293  0  3.189581  0
N  N66  1  0.95747807  0.55069194  0.33640602  1  0  -0.157891  0  3.083198  0  0  -0.138472  0  3.409898  0  0  -0.139009  0  3.417166  0  0  -0.14875  -0.138196  0  3.405408  0
N  N67  1  0.04252171  0.44930741  0.66359365  1  0  -0.157882  0  3.083198  0  0  -0.138459  0  3.40989  0  0  -0.138997  0  3.417159  0  0  -0.148755  -0.138184  0  3.4054  0
N  N68  1  0.83660245  0.62952937  0.32267252  1  0  -0.015174  0  2.88912  0  0  -0.022459  0  3.176801  0  0  -0.018663  0  3.185673  0  0  -0.044191  -0.024699  0  3.170821  0
N  N69  1  0.16339759  0.37047114  0.67732839  1  0  -0.015213  0  2.889128  0  0  -0.022498  0  3.176799  0  0  -0.018703  0  3.185669  0  0  -0.044214  -0.024739  0  3.170819  0
N  N70  1  0.88050218  0.76088136  0.42701852  1  0  -0.287423  0  3.40318  0  0  -0.205616  0  3.655727  0  0  -0.222215  0  3.671136  0  0  -0.093749  -0.194512  0  3.645467  0
N  N71  1  0.11949660  0.23911915  0.57298220  1  0  -0.287407  0  3.403123  0  0  -0.205588  0  3.655676  0  0  -0.222188  0  3.67108  0  0  -0.093751  -0.194487  0  3.645417  0
O  O72  1  0.15131392  0.68265645  0.96170116  1  0  -0.424319  0  2.227244  0  0  -0.347117  0  2.484031  0  0  -0.36249  0  2.481786  0  0  -0.317901  -0.336251  0  2.48503  0
O  O73  1  0.84868587  0.31734290  0.03829852  1  0  -0.424297  0  2.227278  0  0  -0.347104  0  2.484055  0  0  -0.362478  0  2.481813  0  0  -0.317884  -0.336239  0  2.485054  0
O  O74  1  0.79071600  0.66828296  0.77206836  1  0  -0.424001  0  2.231106  0  0  -0.345645  0  2.485344  0  0  -0.361534  0  2.484217  0  0  -0.317524  -0.334625  0  2.486117  0
O  O75  1  0.20928279  0.33171755  0.22793236  1  0  -0.424031  0  2.231094  0  0  -0.345675  0  2.485353  0  0  -0.361567  0  2.484227  0  0  -0.317533  -0.334655  0  2.486127  0
F  F76  1  0.17601160  0.00870182  0.42787704  1  0  -0.43549  0  1.090987  0  0  -0.370559  0  1.268551  0  0  -0.384531  0  1.25202  0  0  -0.112772  -0.360313  0  1.280061  0
F  F77  1  0.82398593  0.99129868  0.57212259  1  0  -0.435482  0  1.090989  0  0  -0.370558  0  1.268549  0  0  -0.384527  0  1.252021  0  0  -0.112779  -0.360312  0  1.280058  0
F  F78  1  0.40636236  0.18833129  0.58518164  1  0  -0.425371  0  1.081676  0  0  -0.360279  0  1.259807  0  0  -0.374148  0  1.241548  0  0  -0.106877  -0.35042  0  1.272622  0
F  F79  1  0.59363742  0.81166806  0.41481803  1  0  -0.425351  0  1.081624  0  0  -0.360268  0  1.259748  0  0  -0.374122  0  1.241489  0  0  -0.106866  -0.350412  0  1.27257  0
