# generated using pymatgen
data_ZnH18C25N4O5
_symmetry_space_group_name_H-M   'P 1'
_cell_length_a   14.09124278
_cell_length_b   16.32107559
_cell_length_c   19.73518136
_cell_angle_alpha   104.54448346
_cell_angle_beta   89.99890453
_cell_angle_gamma   89.99979183
_symmetry_Int_Tables_number   1
_chemical_formula_structural   ZnH18C25N4O5
_chemical_formula_sum   'Zn4 H72 C100 N16 O20'
_cell_volume   4393.32616073
_cell_formula_units_Z   4
loop_
 _symmetry_equiv_pos_site_id
 _symmetry_equiv_pos_as_xyz
  1  'x, y, z'
loop_
 _atom_site_type_symbol
 _atom_site_label
 _atom_site_symmetry_multiplicity
 _atom_site_fract_x
 _atom_site_fract_y
 _atom_site_fract_z
 _atom_site_occupancy
 _atom_site_pbe_bader_charge
 _atom_site_pbe_bader_spin_density
 _atom_site_pbe_cm5_charge
 _atom_site_pbe_ddec_charge
 _atom_site_pbe_ddec_spin_density
 _atom_site_pbe_ddec_sum_bond_order
 _atom_site_pbe_magmom
Zn  Zn0  1  0.56703960  0.74330519  0.66382056  1  1.247111  0  0.692245  0.758341  0  2.412431  0
Zn  Zn1  1  0.93294694  0.24331528  0.16382346  1  1.247239  0  0.692142  0.758124  0  2.412463  0
Zn  Zn2  1  0.43297593  0.25670211  0.33618221  1  1.247094  0  0.692233  0.758226  0  2.412667  0
Zn  Zn3  1  0.06702672  0.75669203  0.83617983  1  1.247066  0  0.692239  0.758344  0  2.412481  0
H  H4  1  0.73042719  0.94448801  0.29167221  1  0.028606  0  0.099817  0.098944  0  1.005777  0
H  H5  1  0.44467248  0.43880509  0.57856383  1  0.072939  0  0.116086  0.133753  0  0.978618  0
H  H6  1  0.91816258  0.46171396  0.07615505  1  0.067853  0  0.105019  0.109645  0  0.998524  0
H  H7  1  0.32566216  0.39550282  0.49710352  1  0.503115  0  0.315563  0.293574  0  0.977692  0
H  H8  1  0.76955367  0.44449228  0.79166896  1  0.028704  0  0.099813  0.098941  0  1.005881  0
H  H9  1  0.51146740  0.91961396  0.74950274  1  0.113009  0  0.126221  0.095779  0  0.962174  0
H  H10  1  0.61836581  0.06464441  0.50596849  1  0.098384  0  0.100702  0.099946  0  1.006436  0
H  H11  1  0.75788746  0.64835542  0.97905489  1  0.093049  0  0.099013  0.097872  0  1.004741  0
H  H12  1  0.72090078  0.54359532  0.72134881  1  0.06869  0  0.100153  0.105152  0  1.018444  0
H  H13  1  0.79292682  0.87712368  0.36857036  1  0.064985  0  0.101812  0.101356  0  1.004279  0
H  H14  1  0.05531642  0.93881040  0.07856690  1  0.072976  0  0.116098  0.133762  0  0.978503  0
H  H15  1  0.88163068  0.56464909  0.00596291  1  0.098089  0  0.100708  0.0999  0  1.006436  0
H  H16  1  0.17433774  0.89550457  0.99710010  1  0.503173  0  0.315581  0.293588  0  0.977756  0
H  H17  1  0.17444509  0.22180650  0.34665005  1  0.084866  0  0.118857  0.136135  0  0.974734  0
H  H18  1  0.74718783  0.27397620  0.93780555  1  0.100707  0  0.101913  0.105813  0  1.001121  0
H  H19  1  0.42780329  0.67403439  0.74203274  1  0.102636  0  0.12033  0.086887  0  0.989208  0
H  H20  1  0.77908153  0.04359647  0.22135093  1  0.068812  0  0.100172  0.10517  0  1.018518  0
H  H21  1  0.07219656  0.17404411  0.24203491  1  0.102629  0  0.120335  0.086851  0  0.989308  0
H  H22  1  0.78713327  0.24789003  0.40654694  1  0.089827  0  0.103042  0.107664  0  1.009241  0
H  H23  1  0.08991321  0.47874262  0.35432294  1  0.114716  0  0.115876  0.141683  0  1.009818  0
H  H24  1  0.74213222  0.14834673  0.47906307  1  0.093233  0  0.099071  0.09799  0  1.004659  0
H  H25  1  0.23719336  0.32997564  0.42918218  1  0.522274  0  0.308405  0.280411  0  1.009558  0
H  H26  1  0.71289290  0.74790224  0.90653909  1  0.089862  0  0.10305  0.107676  0  1.009186  0
H  H27  1  0.20314881  0.12275198  0.99351984  1  0.147236  0  0.115481  0.14373  0  1.020708  0
H  H28  1  0.09177980  0.23200283  0.06152912  1  0.080353  0  0.118775  0.086113  0  0.991099  0
H  H29  1  0.32554963  0.72178999  0.84664887  1  0.084673  0  0.118868  0.136255  0  0.974631  0
H  H30  1  0.94976516  0.05612305  0.14291104  1  0.126425  0  0.121602  0.09906  0  0.991634  0
H  H31  1  0.98853243  0.41961854  0.24949765  1  0.113536  0  0.126199  0.095743  0  0.962173  0
H  H32  1  0.40822179  0.73200150  0.56152845  1  0.080379  0  0.118775  0.086128  0  0.991124  0
H  H33  1  0.41007879  0.97872165  0.85432830  1  0.11511  0  0.115797  0.141548  0  1.009855  0
H  H34  1  0.26280082  0.82998429  0.92919267  1  0.522275  0  0.308405  0.280365  0  1.009772  0
H  H35  1  0.58182467  0.96170059  0.57615077  1  0.067797  0  0.104983  0.109662  0  0.998505  0
H  H36  1  0.75282035  0.77397871  0.43781040  1  0.100637  0  0.101946  0.105935  0  1.001302  0
H  H37  1  0.70708988  0.37711831  0.86856394  1  0.064582  0  0.101864  0.102464  0  1.002996  0
H  H38  1  0.55022061  0.55611563  0.64290640  1  0.126675  0  0.121485  0.098894  0  0.991582  0
H  H39  1  0.29684666  0.62275732  0.49352113  1  0.147148  0  0.115442  0.143676  0  1.020677  0
H  H40  1  0.59177601  0.26800897  0.43848309  1  0.080176  0  0.118762  0.086068  0  0.991123  0
H  H41  1  0.91009806  0.52127481  0.64566015  1  0.115003  0  0.115803  0.141536  0  1.010029  0
H  H42  1  0.41816106  0.03829215  0.42384443  1  0.067788  0  0.105057  0.109695  0  0.998788  0
H  H43  1  0.05021419  0.94388109  0.85710070  1  0.126566  0  0.121427  0.098927  0  0.991621  0
H  H44  1  0.67447797  0.27820403  0.15335165  1  0.084223  0  0.118924  0.136311  0  0.974699  0
H  H45  1  0.25281209  0.72602604  0.06219618  1  0.100607  0  0.101937  0.105877  0  1.001151  0
H  H46  1  0.82566503  0.10449894  0.00289530  1  0.502877  0  0.315598  0.293711  0  0.977478  0
H  H47  1  0.57222218  0.32597544  0.25797107  1  0.102447  0  0.120304  0.086767  0  0.989492  0
H  H48  1  0.24718809  0.22601530  0.56219164  1  0.100456  0  0.101899  0.105801  0  1.001203  0
H  H49  1  0.55534873  0.56120032  0.42144008  1  0.073032  0  0.116035  0.13364  0  0.978725  0
H  H50  1  0.21285530  0.75208436  0.59344140  1  0.08981  0  0.103114  0.107747  0  1.009024  0
H  H51  1  0.24212098  0.35163479  0.02094738  1  0.092774  0  0.099044  0.097973  0  1.00474  0
H  H52  1  0.90822083  0.76800257  0.93848340  1  0.080352  0  0.118767  0.086049  0  0.991099  0
H  H53  1  0.70316533  0.37725125  0.50648343  1  0.145246  0  0.115406  0.1436  0  1.02078  0
H  H54  1  0.29291218  0.62287570  0.13142999  1  0.064936  0  0.101862  0.102491  0  1.00307  0
H  H55  1  0.20709297  0.12286527  0.63142607  1  0.065167  0  0.101808  0.102443  0  1.003098  0
H  H56  1  0.92778066  0.82596699  0.75797220  1  0.102407  0  0.120283  0.086811  0  0.989331  0
H  H57  1  0.48851053  0.08040284  0.25048580  1  0.109276  0  0.12619  0.095786  0  0.962228  0
H  H58  1  0.23044129  0.55550299  0.20832878  1  0.028853  0  0.099834  0.098968  0  1.005923  0
H  H59  1  0.25787693  0.85163019  0.52093339  1  0.092652  0  0.099124  0.098134  0  1.004751  0
H  H60  1  0.27910270  0.45640375  0.27865328  1  0.068622  0  0.100145  0.105129  0  1.018406  0
H  H61  1  0.01146962  0.58039129  0.75049147  1  0.112768  0  0.126281  0.095821  0  0.962164  0
H  H62  1  0.94465441  0.06119754  0.92143551  1  0.073079  0  0.116072  0.133673  0  0.978661  0
H  H63  1  0.82553426  0.77820966  0.65335559  1  0.084227  0  0.118967  0.13632  0  0.97449  0
H  H64  1  0.67434132  0.60450069  0.50289695  1  0.503034  0  0.315577  0.29372  0  0.977587  0
H  H65  1  0.22091485  0.95638425  0.77864328  1  0.068693  0  0.100166  0.105133  0  1.018602  0
H  H66  1  0.58989701  0.02128249  0.14565862  1  0.115157  0  0.115765  0.141505  0  1.009931  0
H  H67  1  0.73721543  0.17002111  0.07081681  1  0.522767  0  0.308476  0.28036  0  1.009534  0
H  H68  1  0.38162063  0.93534327  0.49401045  1  0.0975  0  0.100712  0.100017  0  1.006256  0
H  H69  1  0.08183734  0.53829968  0.92385563  1  0.067868  0  0.104987  0.109587  0  0.998624  0
H  H70  1  0.76279024  0.67001584  0.57081376  1  0.521842  0  0.308461  0.280365  0  1.009618  0
H  H71  1  0.11837776  0.43535125  0.99402322  1  0.09769  0  0.100695  0.099907  0  1.006463  0
H  H72  1  0.26957061  0.05548258  0.70832041  1  0.028711  0  0.099796  0.098933  0  1.005949  0
H  H73  1  0.44978641  0.44389167  0.35710651  1  0.126577  0  0.121465  0.098999  0  0.991468  0
H  H74  1  0.28713542  0.25209621  0.09346134  1  0.089964  0  0.103066  0.107667  0  1.009224  0
H  H75  1  0.79683266  0.87725405  0.00648420  1  0.145283  0  0.115391  0.143647  0  1.020783  0
C  C76  1  0.68144763  0.71193066  0.76795731  1  1.543243  0  0.1887  0.555088  0  4.247756  0
C  C77  1  0.13798951  0.02123621  0.02991817  1  0.409778  0  0.129026  0.3136  0  4.026173  0
C  C78  1  0.06576468  0.00322975  0.07359751  1  0.052371  0  -0.092442  -0.240889  0  3.951254  0
C  C79  1  0.72940171  0.56617577  0.77781336  1  -0.096534  0  -0.090492  -0.096789  0  4.003811  0
C  C80  1  0.79146320  0.47850410  0.93216347  1  -0.025805  0  -0.001478  0.078676  0  3.997192  0
C  C81  1  0.36664198  0.76768875  0.82726712  1  0.105434  0  -0.084367  -0.219632  0  3.928943  0
C  C82  1  0.77642056  0.33783400  0.95210159  1  -0.057247  0  -0.087345  -0.088838  0  4.002526  0
C  C83  1  0.77059532  0.06616939  0.27781556  1  -0.096584  0  -0.090556  -0.096907  0  4.003886  0
C  C84  1  0.72358059  0.83783041  0.45209798  1  -0.056835  0  -0.087388  -0.088938  0  4.002639  0
C  C85  1  0.14029222  0.35481411  0.35951564  1  0.39528  0  0.130124  0.315748  0  4.012482  0
C  C86  1  0.75485862  0.39557751  0.91329621  1  -0.020206  0  -0.092396  -0.137134  0  3.987967  0
C  C87  1  0.14792393  0.10578084  0.02580242  1  0.016935  0  -0.090943  -0.235997  0  3.925574  0
C  C88  1  0.83506382  0.36127959  0.01125580  1  -0.023209  0  -0.028147  -0.053554  0  4.001961  0
C  C89  1  0.77367076  0.18117131  0.38233818  1  -0.056928  0  -0.087064  -0.095555  0  3.992616  0
C  C90  1  0.35207206  0.60578121  0.52580337  1  0.017117  0  -0.090914  -0.235918  0  3.925573  0
C  C91  1  0.42290188  0.74098099  0.76877335  1  0.392818  0  0.047405  0.110496  0  3.974217  0
C  C92  1  0.74387121  0.01075610  0.31754813  1  -0.056894  0  -0.094375  -0.13771  0  3.995671  0
C  C93  1  0.26396418  0.95871582  0.94471531  1  1.832698  0  0.342706  0.648097  0  4.133042  0
C  C94  1  0.85524614  0.29885945  0.05315212  1  1.540289  0  0.208129  0.580055  0  4.210887  0
C  C95  1  0.62787378  0.94370188  0.53045093  1  0.009997  0  -0.084535  -0.085374  0  3.985907  0
C  C96  1  0.76721027  0.53906071  0.89054289  1  0.031012  0  -0.00835  0.067599  0  4.009743  0
C  C97  1  0.74514544  0.89557122  0.41329681  1  -0.020976  0  -0.092279  -0.136206  0  3.988262  0
C  C98  1  0.00693107  0.06748420  0.10906477  1  0.409143  0  0.040444  0.09489  0  3.985975  0
C  C99  1  0.64474313  0.79884117  0.55313684  1  1.538925  0  0.208063  0.579882  0  4.210895  0
C  C100  1  0.08673084  0.41105028  0.33127240  1  0.022372  0  -0.088012  -0.232465  0  3.920844  0
C  C101  1  0.71406817  0.65200447  0.80978174  1  0.066341  0  -0.020777  -0.024958  0  3.961899  0
C  C102  1  0.43422337  0.50322505  0.57359629  1  0.053362  0  -0.092219  -0.240712  0  3.951053  0
C  C103  1  0.64929244  0.00136304  0.49134940  1  -0.122711  0  -0.092312  -0.136766  0  3.982373  0
C  C104  1  0.81855613  0.21191948  0.26796241  1  1.543261  0  0.188725  0.555039  0  4.248054  0
C  C105  1  0.03129300  0.37818456  0.27278385  1  0.480849  0  0.056148  0.123283  0  3.962395  0
C  C106  1  0.13334383  0.26770242  0.32727232  1  0.105182  0  -0.084418  -0.219524  0  3.929205  0
C  C107  1  0.35969734  0.85480049  0.85951258  1  0.394949  0  0.130131  0.315845  0  4.012683  0
C  C108  1  0.23602691  0.45870084  0.44472886  1  1.831559  0  0.342586  0.648071  0  4.133059  0
C  C109  1  0.41431292  0.66590104  0.56330383  1  0.463623  0  0.048684  0.10854  0  3.979021  0
C  C110  1  0.72634782  0.68118214  0.88232985  1  -0.056461  0  -0.086979  -0.095552  0  3.992407  0
C  C111  1  0.08568180  0.16590179  0.06330547  1  0.46315  0  0.048667  0.108609  0  3.978821  0
C  C112  1  0.74772799  0.12548139  0.42226310  1  -0.128845  0  -0.094772  -0.13995  0  3.992349  0
C  C113  1  0.75612215  0.51076037  0.81754513  1  -0.056285  0  -0.094511  -0.13791  0  3.995673  0
C  C114  1  0.85070696  0.50136658  0.99134395  1  -0.122586  0  -0.092367  -0.136732  0  3.98223  0
C  C115  1  0.36199891  0.52123270  0.52991667  1  0.409489  0  0.12897  0.31357  0  4.026172  0
C  C116  1  0.46871083  0.87817263  0.77278674  1  0.482352  0  0.056227  0.12345  0  3.962355  0
C  C117  1  0.70854072  0.97850062  0.43217073  1  -0.025746  0  -0.001524  0.078764  0  3.997049  0
C  C118  1  0.78594821  0.15199607  0.30979141  1  0.067223  0  -0.020884  -0.025038  0  3.962008  0
C  C119  1  0.66492772  0.86127002  0.51125066  1  -0.023342  0  -0.028162  -0.053388  0  4.00199  0
C  C120  1  0.41326633  0.91103372  0.83127305  1  0.021338  0  -0.087877  -0.232449  0  3.920871  0
C  C121  1  0.87212116  0.44370674  0.03045154  1  0.009984  0  -0.084569  -0.085295  0  3.985803  0
C  C122  1  0.49305433  0.56747967  0.60906328  1  0.408329  0  0.040497  0.095026  0  3.98596  0
C  C123  1  0.07709555  0.24099130  0.26877660  1  0.393805  0  0.047503  0.110624  0  3.974233  0
C  C124  1  0.73279734  0.03905019  0.39054728  1  0.031004  0  -0.008451  0.067584  0  4.009815  0
C  C125  1  0.75228904  0.62549266  0.92225400  1  -0.129247  0  -0.094887  -0.139891  0  3.99241  0
C  C126  1  0.91430180  0.83410045  0.93670031  1  0.463554  0  0.048788  0.108886  0  3.978606  0
C  C127  1  0.28596014  0.34799777  0.19021644  1  0.066648  0  -0.020812  -0.025145  0  3.9619  0
C  C128  1  0.85970700  0.64519889  0.64047818  1  0.394937  0  0.1302  0.315897  0  4.012488  0
C  C129  1  0.50696050  0.43252826  0.39094216  1  0.407344  0  0.040431  0.094734  0  3.985756  0
C  C130  1  0.24387778  0.48923490  0.18245262  1  -0.056495  0  -0.094611  -0.138109  0  3.995788  0
C  C131  1  0.99303834  0.93251994  0.89093583  1  0.407787  0  0.040456  0.094765  0  3.985891  0
C  C132  1  0.16492971  0.63873341  0.98875323  1  -0.023464  0  -0.028185  -0.053535  0  4.00212  0
C  C133  1  0.23280385  0.46093457  0.10945485  1  0.03167  0  -0.00836  0.067664  0  4.009884  0
C  C134  1  0.63801804  0.47877081  0.47008026  1  0.40867  0  0.128931  0.313576  0  4.026222  0
C  C135  1  0.57711082  0.25902694  0.23122854  1  0.392246  0  0.047396  0.110543  0  3.97445  0
C  C136  1  0.25613581  0.98921703  0.68244350  1  -0.056592  0  -0.094473  -0.13805  0  3.995927  0
C  C137  1  0.37213253  0.05629403  0.46954948  1  0.01059  0  -0.084658  -0.085413  0  3.986113  0
C  C138  1  0.22632774  0.81879675  0.61765391  1  -0.055679  0  -0.086977  -0.095363  0  3.991959  0
C  C139  1  0.29145069  0.02147883  0.56782069  1  -0.024708  0  -0.001642  0.078728  0  3.997098  0
C  C140  1  0.14929297  0.49863692  0.00865146  1  -0.121647  0  -0.092303  -0.136665  0  3.982389  0
C  C141  1  0.92289515  0.75901917  0.73122430  1  0.392968  0  0.047537  0.110621  0  3.974356  0
C  C142  1  0.21404816  0.84797642  0.69020464  1  0.067204  0  -0.020735  -0.025124  0  3.961687  0
C  C143  1  0.56579785  0.49677972  0.42640140  1  0.053941  0  -0.092034  -0.240286  0  3.950536  0
C  C144  1  0.73603007  0.04130035  0.05527715  1  1.83231  0  0.34274  0.648318  0  4.133105  0
C  C145  1  0.18143244  0.78805428  0.73203492  1  1.543458  0  0.188743  0.555123  0  4.248178  0
C  C146  1  0.27367482  0.31881123  0.11766902  1  -0.056476  0  -0.086912  -0.09526  0  3.992138  0
C  C147  1  0.86198273  0.97876730  0.97007622  1  0.408611  0  0.128957  0.313733  0  4.026129  0
C  C148  1  0.22356588  0.66217393  0.04790942  1  -0.057059  0  -0.087347  -0.088831  0  4.002828  0
C  C149  1  0.86665609  0.73230994  0.67272441  1  0.105567  0  -0.084573  -0.219745  0  3.928899  0
C  C150  1  0.26720187  0.96092357  0.60944447  1  0.03156  0  -0.008335  0.067697  0  4.009854  0
C  C151  1  0.93420473  0.99677439  0.92639853  1  0.053801  0  -0.092122  -0.240427  0  3.95086  0
C  C152  1  0.25486513  0.10441203  0.58669793  1  -0.022672  0  -0.09227  -0.137196  0  3.987949  0
C  C153  1  0.27643282  0.16216486  0.54790230  1  -0.055879  0  -0.087305  -0.088714  0  4.002685  0
C  C154  1  0.33507575  0.13872589  0.48874924  1  -0.023003  0  -0.02815  -0.053548  0  4.001913  0
C  C155  1  0.96870763  0.62182781  0.72720832  1  0.422257  0  0.056187  0.123409  0  3.962381  0
C  C156  1  0.58672366  0.08897106  0.16872109  1  0.08153  0  -0.087762  -0.232249  0  3.920831  0
C  C157  1  0.27060602  0.43382141  0.22218934  1  -0.096638  0  -0.090363  -0.096492  0  4.00366  0
C  C158  1  0.12787167  0.55629993  0.96955769  1  0.009644  0  -0.084548  -0.085282  0  3.986209  0
C  C159  1  0.24771443  0.37449945  0.07774664  1  -0.129532  0  -0.095033  -0.140313  0  3.992568  0
C  C160  1  0.24514059  0.60442284  0.08670208  1  -0.020639  0  -0.092383  -0.137202  0  3.988052  0
C  C161  1  0.85205684  0.89422203  0.97420096  1  0.018717  0  -0.090911  -0.23606  0  3.925329  0
C  C162  1  0.31856861  0.28806968  0.23205010  1  1.542237  0  0.188852  0.555254  0  4.247633  0
C  C163  1  0.64794419  0.39422293  0.47419976  1  0.018736  0  -0.090842  -0.235802  0  3.925301  0
C  C164  1  0.58569623  0.33410690  0.43670212  1  0.463882  0  0.048675  0.108657  0  3.978909  0
C  C165  1  0.35071103  0.99862971  0.50864579  1  -0.122685  0  -0.092274  -0.136824  0  3.98211  0
C  C166  1  0.25228754  0.87448857  0.57773243  1  -0.13068  0  -0.095107  -0.140476  0  3.992447  0
C  C167  1  0.64030472  0.14520365  0.14048650  1  0.395088  0  0.130215  0.315954  0  4.012544  0
C  C168  1  0.20855447  0.52148675  0.06782677  1  -0.02598  0  -0.001513  0.078644  0  3.997202  0
C  C169  1  0.35526886  0.20115980  0.44686767  1  1.539358  0  0.208182  0.580047  0  4.21064  0
C  C170  1  0.53128767  0.12183658  0.22720934  1  0.425543  0  0.056311  0.123453  0  3.962491  0
C  C171  1  0.91327547  0.58896335  0.66871801  1  0.082045  0  -0.087852  -0.232338  0  3.920867  0
C  C172  1  0.14473178  0.70116178  0.94686723  1  1.539855  0  0.208143  0.579949  0  4.210483  0
C  C173  1  0.76397585  0.54129824  0.55528032  1  1.832168  0  0.342785  0.64836  0  4.133108  0
C  C174  1  0.63335936  0.23231412  0.17273321  1  0.106119  0  -0.084529  -0.219901  0  3.929277  0
C  C175  1  0.22940532  0.93380184  0.72217871  1  -0.096395  0  -0.090528  -0.096567  0  4.003428  0
N  N176  1  0.01567399  0.14822014  0.10400744  1  -1.256175  0  -0.346802  -0.26882  0  3.599871  0
N  N177  1  0.02644946  0.29496069  0.24116764  1  -1.244226  0  -0.345105  -0.260102  0  3.606819  0
N  N178  1  0.19301806  0.95516806  0.99342816  1  -1.263937  0  -0.39549  -0.417603  0  3.511676  0
N  N179  1  0.47354848  0.79494936  0.74116806  1  -1.24341  0  -0.345279  -0.260327  0  3.607229  0
N  N180  1  0.20019173  0.37857361  0.41627845  1  -1.293538  0  -0.399323  -0.417459  0  3.538931  0
N  N181  1  0.30697530  0.45516773  0.49342858  1  -1.264047  0  -0.395426  -0.417542  0  3.512196  0
N  N182  1  0.29979975  0.87857122  0.91627904  1  -1.293379  0  -0.399383  -0.417491  0  3.538713  0
N  N183  1  0.48431902  0.64821315  0.60400456  1  -1.2567  0  -0.346842  -0.268839  0  3.599977  0
N  N184  1  0.79980394  0.62143559  0.58372117  1  -1.293321  0  -0.399525  -0.417583  0  3.539042  0
N  N185  1  0.51569155  0.35179352  0.39600265  1  -1.255685  0  -0.346956  -0.26903  0  3.60038  0
N  N186  1  0.98430890  0.85178527  0.89599849  1  -1.255952  0  -0.346933  -0.269059  0  3.600106  0
N  N187  1  0.97354124  0.70504914  0.75882907  1  -1.243112  0  -0.345333  -0.26043  0  3.607266  0
N  N188  1  0.52645783  0.20505858  0.25883283  1  -1.242689  0  -0.34532  -0.260229  0  3.60709  0
N  N189  1  0.69303740  0.54483768  0.50656975  1  -1.263354  0  -0.395379  -0.417828  0  3.512159  0
N  N190  1  0.70020088  0.12143988  0.08372148  1  -1.294268  0  -0.399528  -0.417525  0  3.538781  0
N  N191  1  0.80696200  0.04483418  0.00656596  1  -1.263215  0  -0.395358  -0.417723  0  3.512128  0
O  O192  1  0.67584444  0.72391162  0.53213033  1  -1.218474  0  -0.332859  -0.596967  0  2.237302  0
O  O193  1  0.90347599  0.32596374  0.11006097  1  -1.163221  0  -0.329493  -0.540385  0  2.316269  0
O  O194  1  0.20998030  0.52383897  0.42945363  1  -1.142868  0  -0.293677  -0.508562  0  2.075045  0
O  O195  1  0.65129153  0.67424979  0.70479228  1  -1.183376  0  -0.351025  -0.588082  0  2.364047  0
O  O196  1  0.84870983  0.17424090  0.20479289  1  -1.183158  0  -0.350995  -0.587972  0  2.364074  0
O  O197  1  0.59649390  0.82593380  0.61003886  1  -1.16311  0  -0.329485  -0.54037  0  2.316156  0
O  O198  1  0.68219156  0.78978820  0.79317395  1  -1.143747  0  -0.340465  -0.555617  0  2.075502  0
O  O199  1  0.81781758  0.28977512  0.29318222  1  -1.144152  0  -0.340513  -0.555636  0  2.075532  0
O  O200  1  0.82416842  0.22392065  0.03214868  1  -1.219608  0  -0.332836  -0.596954  0  2.237354  0
O  O201  1  0.29000169  0.02382663  0.92944058  1  -1.144029  0  -0.29356  -0.508257  0  2.07613  0
O  O202  1  0.40356209  0.17408806  0.38998316  1  -1.163406  0  -0.329621  -0.54046  0  2.316174  0
O  O203  1  0.34870485  0.32575055  0.29522121  1  -1.182599  0  -0.351083  -0.588178  0  2.364032  0
O  O204  1  0.15129223  0.82573159  0.79520519  1  -1.183473  0  -0.350893  -0.588  0  2.364193  0
O  O205  1  0.70996346  0.97616802  0.07054741  1  -1.143342  0  -0.293739  -0.508641  0  2.075311  0
O  O206  1  0.09645013  0.67407902  0.88998160  1  -1.163791  0  -0.329583  -0.540396  0  2.316057  0
O  O207  1  0.17585138  0.77608792  0.96785842  1  -1.218398  0  -0.332805  -0.596907  0  2.2372  0
O  O208  1  0.31782894  0.21021404  0.20682777  1  -1.143578  0  -0.340513  -0.555613  0  2.075519  0
O  O209  1  0.32413987  0.27607986  0.46786258  1  -1.218558  0  -0.332845  -0.596937  0  2.237304  0
O  O210  1  0.18218163  0.71019737  0.70680877  1  -1.144206  0  -0.340634  -0.555677  0  2.075578  0
O  O211  1  0.79003027  0.47616960  0.57055093  1  -1.143397  0  -0.293732  -0.50857  0  2.075503  0
