# generated using pymatgen
data_DyH11(C5O3)3
_symmetry_space_group_name_H-M   'P 1'
_cell_length_a   8.99226088
_cell_length_b   9.74037791
_cell_length_c   12.86416011
_cell_angle_alpha   68.44154569
_cell_angle_beta   85.21814372
_cell_angle_gamma   60.73530763
_symmetry_Int_Tables_number   1
_chemical_formula_structural   DyH11(C5O3)3
_chemical_formula_sum   'Dy2 H22 C30 O18'
_cell_volume   907.71967518
_cell_formula_units_Z   2
loop_
 _symmetry_equiv_pos_site_id
 _symmetry_equiv_pos_as_xyz
  1  'x, y, z'
loop_
 _atom_site_type_symbol
 _atom_site_label
 _atom_site_symmetry_multiplicity
 _atom_site_fract_x
 _atom_site_fract_y
 _atom_site_fract_z
 _atom_site_occupancy
 _atom_site_hle17_bader_spin_density
 _atom_site_hle17_ddec_charge
 _atom_site_hle17_ddec_spin_density
 _atom_site_hle17_ddec_sum_bond_order
 _atom_site_hle17_magmom
 _atom_site_hse06_10hf_bader_spin_density
 _atom_site_hse06_10hf_ddec_charge
 _atom_site_hse06_10hf_ddec_spin_density
 _atom_site_hse06_10hf_ddec_sum_bond_order
 _atom_site_hse06_10hf_magmom
 _atom_site_hse06_bader_spin_density
 _atom_site_hse06_ddec_charge
 _atom_site_hse06_ddec_spin_density
 _atom_site_hse06_ddec_sum_bond_order
 _atom_site_hse06_magmom
 _atom_site_pbe_bader_spin_density
 _atom_site_pbe_cm5_charge
 _atom_site_pbe_ddec_charge
 _atom_site_pbe_ddec_spin_density
 _atom_site_pbe_ddec_sum_bond_order
 _atom_site_pbe_magmom
Dy  Dy0  1  0.74617787  0.55164398  0.48087256  1  0  2.2782  0  1.575624  0  0  2.12837  0  2.044491  0  0  2.259449  0  1.851436  0  0  1.497555  2.090486  0  2.076756  0
Dy  Dy1  1  0.25382579  0.44835459  0.51912663  1  0  2.278154  0  1.575579  0  0  2.128338  0  2.0444  0  0  2.259394  0  1.851394  0  0  1.497478  2.090454  0  2.076668  0
H  H2  1  0.37000033  0.76011331  0.50320242  1  0  0.445875  0  0.854665  0  0  0.41427  0  0.918982  0  0  0.425839  0  0.902484  0  0  0.300265  0.406254  0  0.930566  0
H  H3  1  0.62999853  0.23989296  0.49679345  1  0  0.445872  0  0.854665  0  0  0.414283  0  0.918964  0  0  0.425852  0  0.902466  0  0  0.300246  0.406266  0  0.930552  0
H  H4  1  0.43613871  0.86681778  0.40587430  1  0  0.43146  0  0.824078  0  0  0.411902  0  0.882776  0  0  0.420045  0  0.874642  0  0  0.320883  0.406155  0  0.889362  0
H  H5  1  0.56385771  0.13319093  0.59412414  1  0  0.431482  0  0.824127  0  0  0.411921  0  0.882826  0  0  0.420063  0  0.874691  0  0  0.32088  0.406172  0  0.889412  0
H  H6  1  0.87179808  0.64675598  0.63700044  1  0  0.447766  0  0.852179  0  0  0.415497  0  0.917231  0  0  0.427136  0  0.900408  0  0  0.300078  0.407542  0  0.928818  0
H  H7  1  0.12819421  0.35325654  0.36299796  1  0  0.447855  0  0.852057  0  0  0.415542  0  0.917175  0  0  0.427181  0  0.90035  0  0  0.300071  0.407588  0  0.928761  0
H  H8  1  0.66679460  0.77284410  0.60074460  1  0  0.438505  0  0.816886  0  0  0.42196  0  0.866704  0  0  0.430583  0  0.854222  0  0  0.325165  0.415981  0  0.875533  0
H  H9  1  0.33319964  0.22717600  0.39925026  1  0  0.438486  0  0.816811  0  0  0.421967  0  0.866657  0  0  0.430589  0  0.854178  0  0  0.325143  0.41599  0  0.875484  0
H  H10  1  0.35334593  0.40222950  0.86206923  1  0  0.109715  0  0.931187  0  0  0.119959  0  0.987208  0  0  0.123431  0  0.984974  0  0  0.110358  0.117567  0  0.988597  0
H  H11  1  0.64667028  0.59774655  0.13792589  1  0  0.109771  0  0.931099  0  0  0.119959  0  0.987177  0  0  0.12343  0  0.984944  0  0  0.110338  0.117564  0  0.988566  0
H  H12  1  0.43112072  0.34127881  0.06286646  1  0  0.095151  0  0.935436  0  0  0.108764  0  0.98646  0  0  0.111718  0  0.985728  0  0  0.104292  0.106589  0  0.987167  0
H  H13  1  0.56888849  0.65866320  0.93714140  1  0  0.095052  0  0.935512  0  0  0.108636  0  0.986569  0  0  0.111589  0  0.98584  0  0  0.104289  0.106471  0  0.987277  0
H  H14  1  0.73556559  0.22587017  0.13194875  1  0  0.085218  0  0.97158  0  0  0.094061  0  1.035278  0  0  0.095194  0  1.036837  0  0  0.097849  0.093226  0  1.034253  0
H  H15  1  0.26444019  0.77409173  0.86806275  1  0  0.085135  0  0.971784  0  0  0.094038  0  1.035408  0  0  0.095168  0  1.036974  0  0  0.097875  0.093205  0  1.034381  0
H  H16  1  0.96075486  0.16525997  0.00159503  1  0  0.109941  0  0.955735  0  0  0.118805  0  1.018106  0  0  0.121954  0  1.017096  0  0  0.103921  0.116588  0  1.018893  0
H  H17  1  0.03925428  0.83473239  0.99840088  1  0  0.109962  0  0.955686  0  0  0.118831  0  1.01805  0  0  0.12198  0  1.017039  0  0  0.103959  0.116613  0  1.018837  0
H  H18  1  0.23113062  0.93859395  0.57585537  1  0  0.10786  0  0.961913  0  0  0.11666  0  1.026298  0  0  0.120815  0  1.022197  0  0  0.108735  0.113843  0  1.028731  0
H  H19  1  0.76886003  0.06140606  0.42414469  1  0  0.107888  0  0.961844  0  0  0.116697  0  1.026222  0  0  0.120855  0  1.022116  0  0  0.10876  0.113878  0  1.028654  0
H  H20  1  0.89096194  0.77213961  0.76352047  1  0  0.101184  0  0.935581  0  0  0.113874  0  0.990062  0  0  0.117766  0  0.986381  0  0  0.109384  0.111075  0  0.992573  0
H  H21  1  0.10902697  0.22788691  0.23647217  1  0  0.101173  0  0.935554  0  0  0.113862  0  0.99005  0  0  0.117754  0  0.986368  0  0  0.109345  0.111063  0  0.992561  0
H  H22  1  0.78921934  0.99754209  0.84156750  1  0  0.118278  0  0.945428  0  0  0.130324  0  0.997956  0  0  0.133785  0  0.99725  0  0  0.111499  0.127878  0  0.998573  0
H  H23  1  0.21077280  0.00247026  0.15843561  1  0  0.118297  0  0.945462  0  0  0.130361  0  0.997958  0  0  0.133821  0  0.997256  0  0  0.111497  0.127918  0  0.998574  0
C  C24  1  0.55348977  0.37330418  0.69845226  1  0  0.744896  0  3.852814  0  0  0.695965  0  4.147822  0  0  0.733214  0  4.138807  0  0  0.234482  0.671165  0  4.155844  0
C  C25  1  0.44651986  0.62670600  0.30153368  1  0  0.744912  0  3.85313  0  0  0.696  0  4.148124  0  0  0.733239  0  4.139114  0  0  0.234552  0.671198  0  4.156144  0
C  C26  1  0.60995308  0.32380657  0.81936760  1  0  -0.168682  0  3.72641  0  0  -0.151601  0  3.961535  0  0  -0.161089  0  3.980627  0  0  -0.020469  -0.145049  0  3.94751  0
C  C27  1  0.39004406  0.67620101  0.18062721  1  0  -0.168789  0  3.726743  0  0  -0.151697  0  3.961901  0  0  -0.161184  0  3.980985  0  0  -0.020488  -0.145143  0  3.947872  0
C  C28  1  0.48569673  0.35092748  0.89455480  1  0  -0.051366  0  3.732536  0  0  -0.0743  0  3.980215  0  0  -0.073314  0  4.000027  0  0  -0.079817  -0.074606  0  3.966177  0
C  C29  1  0.51430541  0.64905340  0.10545126  1  0  -0.051427  0  3.7326  0  0  -0.074322  0  3.980267  0  0  -0.073335  0  4.000076  0  0  -0.079765  -0.074626  0  3.966228  0
C  C30  1  0.52968034  0.31587763  0.00626682  1  0  -0.081047  0  3.788469  0  0  -0.097315  0  4.042975  0  0  -0.101352  0  4.065098  0  0  -0.092263  -0.094622  0  4.027932  0
C  C31  1  0.47032246  0.68407681  0.99374511  1  0  -0.080855  0  3.788623  0  0  -0.097082  0  4.043096  0  0  -0.101119  0  4.065219  0  0  -0.09226  -0.094403  0  4.028067  0
C  C32  1  0.70010747  0.25168263  0.04514656  1  0  -0.033523  0  3.771634  0  0  -0.048771  0  4.024586  0  0  -0.048064  0  4.046581  0  0  -0.084639  -0.049009  0  4.009484  0
C  C33  1  0.29989747  0.74827431  0.95486467  1  0  -0.033547  0  3.77182  0  0  -0.048841  0  4.024752  0  0  -0.048134  0  4.046747  0  0  -0.084681  -0.04908  0  4.009658  0
C  C34  1  0.82628948  0.21923796  0.97279198  1  0  -0.177154  0  3.754865  0  0  -0.201159  0  4.012637  0  0  -0.206771  0  4.032435  0  0  -0.099518  -0.197428  0  3.999233  0
C  C35  1  0.17371466  0.78074523  0.02721809  1  0  -0.177215  0  3.754711  0  0  -0.201207  0  4.012516  0  0  -0.206821  0  4.032306  0  0  -0.099599  -0.197475  0  3.99911  0
C  C36  1  0.78109631  0.25363540  0.86150091  1  0  0.261417  0  3.758211  0  0  0.24386  0  4.02034  0  0  0.255226  0  4.035622  0  0  0.09015  0.236214  0  4.009532  0
C  C37  1  0.21889816  0.74637700  0.13849977  1  0  0.261603  0  3.75798  0  0  0.243992  0  4.020177  0  0  0.255372  0  4.035434  0  0  0.090243  0.236351  0  4.009361  0
C  C38  1  0.95264579  0.09564702  0.75119516  1  0  0.30207  0  3.743233  0  0  0.276021  0  4.015385  0  0  0.292102  0  4.027124  0  0  0.110878  0.265182  0  4.007178  0
C  C39  1  0.04734285  0.90437587  0.24879452  1  0  0.302208  0  3.743335  0  0  0.275977  0  4.015712  0  0  0.292061  0  4.027444  0  0  0.110829  0.265142  0  4.007499  0
C  C40  1  0.07691501  0.07866329  0.67543999  1  0  -0.155482  0  3.722507  0  0  -0.139871  0  3.969075  0  0  -0.149765  0  3.985551  0  0  -0.015884  -0.133376  0  3.957802  0
C  C41  1  0.92309725  0.92132604  0.32456902  1  0  -0.155572  0  3.722475  0  0  -0.139835  0  3.969034  0  0  -0.149727  0  3.985507  0  0  -0.015746  -0.133338  0  3.957755  0
C  C42  1  0.13389769  0.95067000  0.63357529  1  0  -0.037681  0  3.688597  0  0  -0.073196  0  3.937167  0  0  -0.06779  0  3.952164  0  0  -0.070042  -0.076188  0  3.925936  0
C  C43  1  0.86608979  0.04933894  0.36642107  1  0  -0.037721  0  3.688433  0  0  -0.073271  0  3.936956  0  0  -0.067861  0  3.951947  0  0  -0.070167  -0.076261  0  3.925721  0
C  C44  1  0.06624220  0.84056160  0.66319166  1  0  -0.096221  0  3.785756  0  0  -0.077513  0  4.033955  0  0  -0.087606  0  4.055754  0  0  -0.030397  -0.070753  0  4.018519  0
C  C45  1  0.93374611  0.15945227  0.33680576  1  0  -0.096082  0  3.78543  0  0  -0.077296  0  4.033518  0  0  -0.08739  0  4.055322  0  0  -0.03032  -0.070538  0  4.018079  0
C  C46  1  0.94195911  0.85927061  0.73848620  1  0  -0.033348  0  3.737887  0  0  -0.058738  0  3.98889  0  0  -0.053374  0  4.004806  0  0  -0.077165  -0.061793  0  3.977442  0
C  C47  1  0.05803340  0.14074815  0.26151217  1  0  -0.033346  0  3.737765  0  0  -0.05877  0  3.988759  0  0  -0.053407  0  4.004679  0  0  -0.077139  -0.061824  0  3.977308  0
C  C48  1  0.88496837  0.98525343  0.78262589  1  0  -0.209122  0  3.755344  0  0  -0.227408  0  4.015596  0  0  -0.235436  0  4.03387  0  0  -0.103368  -0.222132  0  4.002997  0
C  C49  1  0.11504394  0.01474190  0.21738938  1  0  -0.209238  0  3.755574  0  0  -0.227479  0  4.015868  0  0  -0.235502  0  4.034133  0  0  -0.103368  -0.222204  0  4.003271  0
C  C50  1  0.13836038  0.20432900  0.63201490  1  0  0.713591  0  3.883057  0  0  0.664074  0  4.177473  0  0  0.700093  0  4.173943  0  0  0.219423  0.639213  0  4.185708  0
C  C51  1  0.86164890  0.79566681  0.36798869  1  0  0.713812  0  3.882628  0  0  0.664192  0  4.177165  0  0  0.700215  0  4.17363  0  0  0.219514  0.639329  0  4.185401  0
C  C52  1  0.12269393  0.70954293  0.61396454  1  0  0.653863  0  3.911763  0  0  0.603048  0  4.206117  0  0  0.636183  0  4.206396  0  0  0.203744  0.580087  0  4.209948  0
C  C53  1  0.87729370  0.29047213  0.38603494  1  0  0.653645  0  3.911736  0  0  0.602809  0  4.206115  0  0  0.635942  0  4.206408  0  0  0.203818  0.57985  0  4.209941  0
O  O54  1  0.62872721  0.43244056  0.62210473  1  0  -0.747033  0  2.089727  0  0  -0.701001  0  2.366451  0  0  -0.739507  0  2.350155  0  0  -0.413663  -0.683309  0  2.375293  0
O  O55  1  0.37129024  0.56757272  0.37789494  1  0  -0.747126  0  2.089729  0  0  -0.701066  0  2.366335  0  0  -0.739604  0  2.35014  0  0  -0.413746  -0.683399  0  2.375232  0
O  O56  1  0.42820801  0.35589887  0.68015396  1  0  -0.739425  0  2.059027  0  0  -0.689378  0  2.31009  0  0  -0.725948  0  2.294819  0  0  -0.400813  -0.671217  0  2.317253  0
O  O57  1  0.57179320  0.64411342  0.31984652  1  0  -0.739408  0  2.05902  0  0  -0.689358  0  2.310075  0  0  -0.72593  0  2.294811  0  0  -0.400841  -0.671195  0  2.317239  0
O  O58  1  0.91387167  0.21633190  0.79441257  1  0  -0.268593  0  2.371529  0  0  -0.19932  0  2.596058  0  0  -0.21805  0  2.597587  0  0  -0.130227  -0.186045  0  2.594768  0
O  O59  1  0.08613518  0.78368033  0.20558695  1  0  -0.268609  0  2.37159  0  0  -0.199274  0  2.596199  0  0  -0.218007  0  2.597725  0  0  -0.130271  -0.186001  0  2.594906  0
O  O60  1  0.02507588  0.36200410  0.58344115  1  0  -0.807278  0  2.136323  0  0  -0.752424  0  2.400701  0  0  -0.798248  0  2.390021  0  0  -0.422208  -0.733083  0  2.407322  0
O  O61  1  0.97493430  0.63799674  0.41656113  1  0  -0.807487  0  2.136486  0  0  -0.75262  0  2.400954  0  0  -0.798449  0  2.390287  0  0  -0.422321  -0.733277  0  2.407571  0
O  O62  1  0.29606734  0.15819901  0.63639622  1  0  -0.661645  0  1.921757  0  0  -0.615332  0  2.144847  0  0  -0.645972  0  2.132034  0  0  -0.353796  -0.599019  0  2.152453  0
O  O63  1  0.70393186  0.84179437  0.36361067  1  0  -0.661705  0  1.921407  0  0  -0.615357  0  2.144547  0  0  -0.646006  0  2.131734  0  0  -0.353816  -0.599044  0  2.152154  0
O  O64  1  0.22538836  0.70223994  0.53825744  1  0  -0.708253  0  2.098306  0  0  -0.650111  0  2.338019  0  0  -0.685489  0  2.332338  0  0  -0.357102  -0.6311  0  2.341488  0
O  O65  1  0.77459346  0.29777169  0.46173610  1  0  -0.708081  0  2.098442  0  0  -0.64999  0  2.338224  0  0  -0.685372  0  2.332547  0  0  -0.35711  -0.630978  0  2.341688  0
O  O66  1  0.06916594  0.60222810  0.64528263  1  0  -0.687693  0  2.025363  0  0  -0.631764  0  2.253891  0  0  -0.663571  0  2.243622  0  0  -0.344173  -0.614659  0  2.260432  0
O  O67  1  0.93083906  0.39778199  0.35470817  1  0  -0.687689  0  2.025156  0  0  -0.63172  0  2.253681  0  0  -0.663531  0  2.243414  0  0  -0.344213  -0.614615  0  2.260222  0
O  O68  1  0.46350514  0.79088569  0.48468912  1  0  -0.88859  0  1.859056  0  0  -0.841189  0  2.046892  0  0  -0.868411  0  2.014883  0  0  -0.617946  -0.827682  0  2.066052  0
O  O69  1  0.53649441  0.20911672  0.51530925  1  0  -0.888643  0  1.859138  0  0  -0.841258  0  2.046938  0  0  -0.868476  0  2.01493  0  0  -0.617929  -0.82775  0  2.066099  0
O  O70  1  0.75940517  0.65655121  0.61956333  1  0  -0.892765  0  1.840385  0  0  -0.846949  0  2.021967  0  0  -0.874674  0  1.984889  0  0  -0.63512  -0.833895  0  2.042812  0
O  O71  1  0.24058629  0.34347032  0.38042816  1  0  -0.892856  0  1.84019  0  0  -0.847038  0  2.021899  0  0  -0.874751  0  1.98482  0  0  -0.635106  -0.833983  0  2.042746  0
