# generated using pymatgen
data_MnH8C7SNO3
_symmetry_space_group_name_H-M   'P 1'
_cell_length_a   15.40984898
_cell_length_b   16.40515795
_cell_length_c   16.40514532
_cell_angle_alpha   110.66807857
_cell_angle_beta   108.24541515
_cell_angle_gamma   108.24531754
_symmetry_Int_Tables_number   1
_chemical_formula_structural   MnH8C7SNO3
_chemical_formula_sum   'Mn12 H96 C84 S12 N12 O36'
_cell_volume   3239.57721524
_cell_formula_units_Z   12
loop_
 _symmetry_equiv_pos_site_id
 _symmetry_equiv_pos_as_xyz
  1  'x, y, z'
loop_
 _atom_site_type_symbol
 _atom_site_label
 _atom_site_symmetry_multiplicity
 _atom_site_fract_x
 _atom_site_fract_y
 _atom_site_fract_z
 _atom_site_occupancy
 _atom_site_pbe_bader_charge
 _atom_site_pbe_bader_spin_density
 _atom_site_pbe_cm5_charge
 _atom_site_pbe_ddec_charge
 _atom_site_pbe_ddec_spin_density
 _atom_site_pbe_ddec_sum_bond_order
 _atom_site_pbe_magmom
Mn  Mn0  1  0.25000080  0.34235316  0.65764749  1  1.389906  4.476926  0.474017  0.807966  4.5998  2.638234  4.389
Mn  Mn1  1  0.90763195  0.31525573  0.65758168  1  1.391931  4.476798  0.473696  0.80713  4.59941  2.638062  4.389
Mn  Mn2  1  0.59237026  0.34241865  0.68474528  1  1.391935  4.476804  0.473688  0.807177  4.599415  2.637969  4.389
Mn  Mn3  1  0.75000067  0.65764972  0.34235433  1  1.389785  4.47696  0.474041  0.807948  4.599804  2.638322  4.389
Mn  Mn4  1  0.09236810  0.68474567  0.34241920  1  1.391935  4.476803  0.473694  0.807209  4.599407  2.638018  4.389
Mn  Mn5  1  0.40762967  0.65757979  0.31525391  1  1.391915  4.476812  0.473696  0.807172  4.599418  2.638007  4.389
Mn  Mn6  1  0.34330311  0.18666654  0.59327885  1  1.412164  4.518841  0.494669  0.836696  4.645035  2.475148  4.429
Mn  Mn7  1  0.15669691  0.40671968  0.81333270  1  1.412113  4.518859  0.494687  0.836744  4.645038  2.475067  4.429
Mn  Mn8  1  0.75000009  0.40664211  0.59335685  1  1.411174  4.518832  0.495003  0.83705  4.644458  2.476246  4.429
Mn  Mn9  1  0.65669414  0.81333337  0.40672007  1  1.412225  4.518833  0.494659  0.836735  4.645031  2.475029  4.429
Mn  Mn10  1  0.84330159  0.59327727  0.18666738  1  1.412103  4.518857  0.494651  0.836695  4.645042  2.475168  4.429
Mn  Mn11  1  0.24999853  0.59335781  0.40664187  1  1.411185  4.518836  0.494994  0.837057  4.644468  2.476226  4.429
H  H12  1  0.59924169  0.40933526  0.97455967  1  0.092104  0.001056  0.10549  0.121023  0.000105  1.003909  0.0
H  H13  1  0.22050424  0.14988322  0.71370178  1  0.098852  0.001495  0.121739  0.040902  0.000311  1.042477  0.0
H  H14  1  0.21772176  0.91736122  0.59753263  1  0.119715  0.000418  0.118571  0.149298  -0.000365  0.994868  0.0
H  H15  1  0.09912960  0.85419572  0.59471494  1  0.073283  0.00124  0.103591  0.118744  0.000648  1.024637  0.0
H  H16  1  0.21971256  0.89832324  0.69912207  1  0.042938  0.000807  0.095969  0.10337  0.000468  1.002357  0.0
H  H17  1  0.12892338  0.09047982  0.77406023  1  0.056418  0.000348  0.110754  0.125634  7.8e-05  0.993473  0.0
H  H18  1  0.15494874  0.00506132  0.80833413  1  0.04496  0.000499  0.095406  0.10017  0.000253  0.99371  0.0
H  H19  1  0.04030170  0.96094933  0.69714689  1  0.109023  0.001718  0.103073  0.122498  0.001165  1.012971  0.0
H  H20  1  0.18985750  0.56503889  0.59053720  1  0.084921  0.001063  0.105013  0.119976  0.000103  1.004854  0.0
H  H21  1  0.07050247  0.56385202  0.85005319  1  0.11597  0.001488  0.121572  0.040796  0.000317  1.040962  0.0
H  H22  1  0.30020892  0.68012728  0.08247681  1  0.121789  0.000417  0.118716  0.149203  -0.000365  0.994583  0.0
H  H23  1  0.24484703  0.74048988  0.14570351  1  0.07968  0.00123  0.103374  0.118297  0.000649  1.024945  0.0
H  H24  1  0.32130130  0.80078304  0.10157858  1  0.044377  0.000804  0.095841  0.103557  0.000468  1.002404  0.0
H  H25  1  0.03834165  0.68365318  0.90950594  1  0.074417  0.000344  0.110527  0.125343  7.8e-05  0.992745  0.0
H  H26  1  0.14981103  0.80331438  0.99492277  1  0.016764  0.000507  0.09556  0.100321  0.000253  0.992931  0.0
H  H27  1  0.07927838  0.73624059  0.03905046  1  0.078182  0.001749  0.103412  0.122522  0.001165  1.014788  0.0
H  H28  1  0.62480657  0.02541139  0.43491369  1  0.102518  0.001039  0.105219  0.120377  0.000105  1.003306  0.0
H  H29  1  0.50670746  0.28629638  0.43606338  1  0.088552  0.001507  0.121846  0.041157  0.00032  1.040264  0.0
H  H30  1  0.62048732  0.40250136  0.31995861  1  0.133215  0.000409  0.118752  0.149364  -0.000367  0.995856  0.0
H  H31  1  0.50479585  0.40539534  0.25954380  1  0.072792  0.001241  0.103285  0.118274  0.000647  1.024237  0.0
H  H32  1  0.52097032  0.30098113  0.19922755  1  0.034174  0.000807  0.09596  0.103585  0.000469  1.002052  0.0
H  H33  1  0.35493170  0.22588336  0.31611914  1  0.062443  0.000347  0.11074  0.125288  7.9e-05  0.993388  0.0
H  H34  1  0.34686382  0.19169519  0.19650540  1  0.026747  0.000509  0.09574  0.100522  0.000254  0.993691  0.0
H  H35  1  0.34334799  0.30286299  0.26357170  1  0.069743  0.001742  0.102867  0.121896  0.001168  1.014417  0.0
H  H36  1  0.87519439  0.56508656  0.97458879  1  0.10253  0.001039  0.105243  0.120407  0.000105  1.00329  0.0
H  H37  1  0.99329484  0.56393668  0.71370149  1  0.088538  0.001507  0.121837  0.041131  0.00032  1.040312  0.0
H  H38  1  0.87951330  0.68004218  0.59750027  1  0.133255  0.000409  0.118755  0.149367  -0.000367  0.995885  0.0
H  H39  1  0.99520377  0.74045743  0.59460553  1  0.072975  0.001241  0.103286  0.118302  0.000647  1.024192  0.0
H  H40  1  0.97902834  0.80077315  0.69901993  1  0.034148  0.000807  0.095955  0.103573  0.000469  1.002048  0.0
H  H41  1  0.14507093  0.68388523  0.77412028  1  0.062468  0.000347  0.110734  0.125297  7.9e-05  0.993338  0.0
H  H42  1  0.15313458  0.80349635  0.80830646  1  0.026696  0.000509  0.095736  0.100488  0.000254  0.993719  0.0
H  H43  1  0.15665299  0.73643298  0.69714031  1  0.06974  0.001742  0.102856  0.121852  0.001168  1.014455  0.0
H  H44  1  0.90075925  0.02544168  0.59066510  1  0.092119  0.001056  0.105478  0.120984  0.000105  1.003862  0.0
H  H45  1  0.27949490  0.28629974  0.85011707  1  0.099053  0.001494  0.121743  0.040898  0.000311  1.042515  0.0
H  H46  1  0.28227814  0.40246735  0.08264030  1  0.119711  0.000418  0.118582  0.14931  -0.000365  0.99485  0.0
H  H47  1  0.40086911  0.40528442  0.14580358  1  0.073303  0.001241  0.103597  0.118743  0.000648  1.024636  0.0
H  H48  1  0.28028725  0.30087814  0.10167703  1  0.042929  0.000807  0.095962  0.103358  0.000468  1.002356  0.0
H  H49  1  0.37107524  0.22594010  0.90951950  1  0.056397  0.000348  0.11075  0.125649  7.8e-05  0.99348  0.0
H  H50  1  0.34505032  0.19166522  0.99493679  1  0.044968  0.000499  0.09546  0.100242  0.000253  0.993696  0.0
H  H51  1  0.45969659  0.30285232  0.03904902  1  0.109062  0.001718  0.103099  0.122545  0.001165  1.012951  0.0
H  H52  1  0.31014209  0.40946115  0.43496005  1  0.084929  0.001063  0.105006  0.119954  0.000103  1.004874  0.0
H  H53  1  0.42949486  0.14994573  0.43614687  1  0.115991  0.001488  0.121572  0.040816  0.000317  1.040946  0.0
H  H54  1  0.19979088  0.91752286  0.31987200  1  0.121803  0.000417  0.118692  0.149154  -0.000365  0.994603  0.0
H  H55  1  0.25515302  0.85429729  0.25951021  1  0.080028  0.001229  0.103399  0.118358  0.000648  1.024969  0.0
H  H56  1  0.17869896  0.89842141  0.19921696  1  0.044364  0.000804  0.095852  0.103576  0.000468  1.002428  0.0
H  H57  1  0.46165794  0.09049374  0.31634666  1  0.074428  0.000344  0.11052  0.12535  7.8e-05  0.992709  0.0
H  H58  1  0.35018855  0.00507777  0.19668486  1  0.016738  0.000507  0.095539  0.100307  0.000253  0.99293  0.0
H  H59  1  0.42072070  0.96094947  0.26375904  1  0.078195  0.001749  0.103392  0.12251  0.001165  1.014779  0.0
H  H60  1  0.40075903  0.59066614  0.02544263  1  0.092106  0.001056  0.105483  0.120992  0.000105  1.00378  0.0
H  H61  1  0.77949296  0.85011521  0.28629661  1  0.098824  0.001495  0.121732  0.040907  0.000311  1.042494  0.0
H  H62  1  0.78227717  0.08263795  0.40246653  1  0.119719  0.000418  0.118605  0.149354  -0.000365  0.994802  0.0
H  H63  1  0.90086754  0.14580124  0.40528290  1  0.073426  0.00124  0.1036  0.118767  0.000648  1.024639  0.0
H  H64  1  0.78028742  0.10167668  0.30087827  1  0.042939  0.000807  0.095969  0.103381  0.000468  1.002349  0.0
H  H65  1  0.87107624  0.90951935  0.22593913  1  0.056776  0.000348  0.110751  0.12564  7.8e-05  0.993464  0.0
H  H66  1  0.84505051  0.99493711  0.19166425  1  0.044955  0.000499  0.095457  0.100243  0.000253  0.99366  0.0
H  H67  1  0.95969723  0.03904985  0.30285287  1  0.109046  0.001718  0.103084  0.122512  0.001165  1.012986  0.0
H  H68  1  0.81014106  0.43495955  0.40946220  1  0.084912  0.001063  0.105026  0.119984  0.000103  1.004839  0.0
H  H69  1  0.92949683  0.43614790  0.14994634  1  0.11598  0.001488  0.121568  0.040797  0.000317  1.040971  0.0
H  H70  1  0.69979070  0.31987190  0.91752255  1  0.121714  0.000417  0.118691  0.149144  -0.000365  0.994613  0.0
H  H71  1  0.75515295  0.25951004  0.85429683  1  0.080078  0.001229  0.103394  0.118342  0.000648  1.024983  0.0
H  H72  1  0.67869869  0.19921688  0.89842115  1  0.044361  0.000804  0.095849  0.103564  0.000468  1.002438  0.0
H  H73  1  0.96165766  0.31634674  0.09049359  1  0.074434  0.000344  0.110525  0.125358  7.8e-05  0.992699  0.0
H  H74  1  0.85018895  0.19668554  0.00507757  1  0.016668  0.000507  0.095556  0.100329  0.000253  0.992913  0.0
H  H75  1  0.92072092  0.26375933  0.96094968  1  0.078191  0.001749  0.103386  0.122491  0.001165  1.014805  0.0
H  H76  1  0.37519201  0.97458705  0.56508022  1  0.102526  0.001039  0.105192  0.120337  0.000105  1.00319  0.0
H  H77  1  0.49329651  0.71370057  0.56393588  1  0.088502  0.001507  0.121881  0.041163  0.000319  1.040265  0.0
H  H78  1  0.37951304  0.59749930  0.68004088  1  0.133234  0.000409  0.118753  0.149365  -0.000367  0.995835  0.0
H  H79  1  0.49520345  0.59460457  0.74045695  1  0.072899  0.001241  0.103274  0.118275  0.000647  1.02425  0.0
H  H80  1  0.47903073  0.69901953  0.80077276  1  0.034176  0.000807  0.095952  0.103569  0.000469  1.001998  0.0
H  H81  1  0.64507138  0.77411730  0.68388481  1  0.062481  0.000347  0.110739  0.125288  7.9e-05  0.993432  0.0
H  H82  1  0.65313685  0.80830473  0.80349636  1  0.026748  0.000509  0.095714  0.100499  0.000254  0.993698  0.0
H  H83  1  0.65665379  0.69713915  0.73643117  1  0.069711  0.001742  0.102857  0.121854  0.001168  1.014475  0.0
H  H84  1  0.12480498  0.43491484  0.02541127  1  0.102566  0.001039  0.10523  0.120402  0.000105  1.003281  0.0
H  H85  1  0.00670242  0.43606323  0.28629865  1  0.08852  0.001507  0.121896  0.041207  0.00032  1.04027  0.0
H  H86  1  0.12048569  0.31995848  0.40250003  1  0.133268  0.000409  0.118762  0.149395  -0.000367  0.995876  0.0
H  H87  1  0.00479728  0.25954323  0.40539538  1  0.073034  0.001241  0.103264  0.118273  0.000647  1.024231  0.0
H  H88  1  0.02096997  0.19922751  0.30098078  1  0.034182  0.000807  0.095937  0.103569  0.000469  1.001991  0.0
H  H89  1  0.85492738  0.31611543  0.22588164  1  0.06246  0.000347  0.110736  0.125277  7.9e-05  0.993375  0.0
H  H90  1  0.84686267  0.19650357  0.19169489  1  0.026744  0.000509  0.095715  0.100494  0.000254  0.993707  0.0
H  H91  1  0.84334501  0.26356842  0.30286057  1  0.069856  0.001742  0.102867  0.121858  0.001168  1.014426  0.0
H  H92  1  0.09924006  0.97455824  0.40933382  1  0.09209  0.001056  0.105468  0.120965  0.000105  1.003879  0.0
H  H93  1  0.72050572  0.71369869  0.14988172  1  0.099059  0.001494  0.121752  0.040899  0.000311  1.042547  0.0
H  H94  1  0.71772253  0.59753257  0.91735964  1  0.119708  0.000418  0.118576  0.149296  -0.000365  0.994849  0.0
H  H95  1  0.59913194  0.59471624  0.85419672  1  0.073309  0.001241  0.103605  0.118755  0.000648  1.024637  0.0
H  H96  1  0.71971273  0.69912178  0.89832270  1  0.042896  0.000807  0.095962  0.10336  0.000468  1.002361  0.0
H  H97  1  0.62892580  0.77406056  0.09048080  1  0.056407  0.000348  0.110762  0.125654  7.8e-05  0.993455  0.0
H  H98  1  0.65494998  0.80833396  0.00506277  1  0.044976  0.000499  0.095437  0.100223  0.000253  0.993641  0.0
H  H99  1  0.54030446  0.69714834  0.96095128  1  0.109067  0.001718  0.103097  0.122559  0.001165  1.012959  0.0
H  H100  1  0.68985852  0.59053729  0.56503995  1  0.084926  0.001063  0.105006  0.119934  0.000103  1.004803  0.0
H  H101  1  0.57050450  0.85005567  0.56385381  1  0.116016  0.001488  0.121586  0.040814  0.000317  1.040939  0.0
H  H102  1  0.80021047  0.08247706  0.68012997  1  0.121755  0.000417  0.118673  0.149123  -0.000365  0.994562  0.0
H  H103  1  0.74484733  0.14570337  0.74049111  1  0.079619  0.00123  0.103365  0.118265  0.000649  1.024968  0.0
H  H104  1  0.82130244  0.10157999  0.80078615  1  0.044254  0.000804  0.095868  0.103588  0.000468  1.002444  0.0
H  H105  1  0.53834273  0.90950618  0.68365388  1  0.074453  0.000344  0.110523  0.125343  7.8e-05  0.992705  0.0
H  H106  1  0.64981112  0.99492289  0.80331626  1  0.016635  0.000507  0.095534  0.100283  0.000253  0.992948  0.0
H  H107  1  0.57927929  0.03905044  0.73624130  1  0.078185  0.001749  0.103392  0.122486  0.001165  1.0148  0.0
C  C108  1  0.48036936  0.44014757  0.90376923  1  -0.019814  0.015615  -0.02485  -0.09585  0.011249  3.976444  0.009
C  C109  1  0.46646555  0.37512647  0.80462249  1  1.540999  0.028294  0.232963  0.608732  0.026778  4.11461  0.024
C  C110  1  0.55481282  0.44855019  0.98608691  1  -0.003021  0.01399  -0.094693  -0.150961  0.01067  3.955363  0.008
C  C111  1  0.42399528  0.49292544  0.91661378  1  -0.156515  0.024348  -0.016593  0.099797  0.016141  4.037229  0.012
C  C112  1  0.22823461  0.08335568  0.67853860  1  1.371319  0.00777  0.181969  0.299216  0.007827  4.090256  0.007
C  C113  1  0.17944618  0.91418727  0.64310046  1  0.236129  0.001402  -0.135145  -0.277727  0.000936  3.897542  0.0
C  C114  1  0.12292578  0.01646651  0.74553091  1  0.261192  0.001406  -0.12867  -0.273398  0.001322  3.927685  0.001
C  C115  1  0.04017041  0.46352227  0.55975187  1  -0.031575  0.015646  -0.024972  -0.094761  0.011256  3.974768  0.009
C  C116  1  0.09128157  0.42931953  0.62470955  1  1.541424  0.028292  0.231992  0.606  0.026774  4.117778  0.024
C  C117  1  0.10623616  0.53744359  0.55137664  1  -0.01228  0.013981  -0.093626  -0.149298  0.010645  3.95568  0.008
C  C118  1  0.93102442  0.42366332  0.50702217  1  -0.119055  0.024181  -0.017169  0.098468  0.016136  4.036512  0.012
C  C119  1  0.14479513  0.59522808  0.91655052  1  1.353356  0.00777  0.18209  0.299365  0.007846  4.087534  0.007
C  C120  1  0.26512452  0.72889138  0.08568050  1  0.241966  0.001398  -0.134935  -0.277768  0.000934  3.897797  0.0
C  C121  1  0.10635384  0.72909527  0.98350959  1  0.283341  0.001384  -0.128787  -0.272861  0.001321  3.927764  0.001
C  C122  1  0.57666325  0.09622672  0.53641371  1  -0.051273  0.015682  -0.025019  -0.096034  0.011259  3.975268  0.009
C  C123  1  0.66193641  0.19540746  0.57058561  1  1.54454  0.028296  0.232329  0.607043  0.026741  4.117776  0.023
C  C124  1  0.56880433  0.01388016  0.46254890  1  -0.044432  0.014055  -0.094259  -0.149184  0.010661  3.954123  0.008
C  C125  1  0.50735462  0.08339517  0.57624484  1  -0.092781  0.024142  -0.017021  0.09834  0.016142  4.03821  0.012
C  C126  1  0.54973048  0.32148620  0.40478501  1  1.388972  0.007719  0.181256  0.297966  0.00785  4.090198  0.007
C  C127  1  0.53666400  0.35695151  0.27111402  1  0.246605  0.001404  -0.134855  -0.277997  0.000934  3.898341  0.0
C  C128  1  0.37760161  0.25448060  0.27072289  1  0.312963  0.001377  -0.128707  -0.273165  0.001324  3.929068  0.001
C  C129  1  0.92333653  0.46358267  0.90377385  1  -0.05188  0.015683  -0.025001  -0.095896  0.01126  3.975247  0.009
C  C130  1  0.83806488  0.42941501  0.80459323  1  1.544505  0.028298  0.232271  0.606837  0.026743  4.117866  0.023
C  C131  1  0.93119547  0.53745000  0.98611998  1  -0.044383  0.014055  -0.094273  -0.149256  0.010661  3.954119  0.008
C  C132  1  0.99264605  0.42375201  0.91660516  1  -0.092145  0.024139  -0.017036  0.098323  0.016142  4.038326  0.012
C  C133  1  0.95027247  0.59521848  0.67851690  1  1.388867  0.007717  0.181266  0.297915  0.007849  4.090357  0.007
C  C134  1  0.96333472  0.72888560  0.64304942  1  0.246412  0.001404  -0.134851  -0.278001  0.000934  3.898331  0.0
C  C135  1  0.12239977  0.72928055  0.74552201  1  0.312934  0.001377  -0.12866  -0.273038  0.001324  3.92903  0.001
C  C136  1  0.01963443  0.09623270  0.55985440  1  -0.02022  0.015615  -0.024816  -0.095827  0.011247  3.976439  0.009
C  C137  1  0.03353718  0.19537897  0.62487517  1  1.541079  0.028292  0.232931  0.608664  0.026778  4.114591  0.024
C  C138  1  0.94518738  0.01391375  0.55144812  1  -0.00285  0.01399  -0.094671  -0.150897  0.010671  3.955284  0.008
C  C139  1  0.07600343  0.08338301  0.50707285  1  -0.156074  0.024346  -0.016598  0.099771  0.016142  4.037239  0.012
C  C140  1  0.27176540  0.32146355  0.91664521  1  1.371427  0.007769  0.181889  0.299144  0.007826  4.090515  0.007
C  C141  1  0.32055266  0.35689891  0.08581244  1  0.236104  0.001402  -0.135158  -0.277724  0.000936  3.897539  0.0
C  C142  1  0.37707207  0.25446826  0.98353182  1  0.261131  0.001406  -0.128764  -0.273559  0.001322  3.927781  0.001
C  C143  1  0.45983029  0.44024838  0.53647818  1  -0.031612  0.015646  -0.024953  -0.094727  0.011256  3.974764  0.009
C  C144  1  0.40872118  0.37529213  0.57068217  1  1.541414  0.028288  0.231955  0.605991  0.026769  4.117731  0.024
C  C145  1  0.39376394  0.44862394  0.46255640  1  -0.012287  0.013983  -0.093606  -0.149245  0.010647  3.955701  0.008
C  C146  1  0.56897512  0.49297762  0.57633798  1  -0.119156  0.024183  -0.01719  0.098386  0.016138  4.036721  0.012
C  C147  1  0.35520355  0.08344992  0.40477104  1  1.353955  0.007765  0.182102  0.299331  0.007847  4.087513  0.007
C  C148  1  0.23487522  0.91431949  0.27110742  1  0.241953  0.001398  -0.134954  -0.277803  0.000934  3.897907  0.0
C  C149  1  0.39364512  0.01649013  0.27090360  1  0.283325  0.001384  -0.128729  -0.272834  0.001321  3.927676  0.001
C  C150  1  0.51963348  0.55985531  0.09623299  1  -0.019997  0.015613  -0.024806  -0.095834  0.011246  3.976514  0.009
C  C151  1  0.53353654  0.62487493  0.19537960  1  1.54109  0.028292  0.232955  0.608722  0.026777  4.114611  0.024
C  C152  1  0.44518779  0.55144825  0.01391370  1  -0.002975  0.013992  -0.094678  -0.150916  0.010672  3.955262  0.008
C  C153  1  0.57600372  0.50707522  0.08338409  1  -0.156152  0.024347  -0.016605  0.099804  0.016143  4.037208  0.012
C  C154  1  0.77176395  0.91664275  0.32146080  1  1.371369  0.007769  0.181945  0.299174  0.007826  4.090363  0.007
C  C155  1  0.82055307  0.08581117  0.35689792  1  0.235923  0.001402  -0.135176  -0.277789  0.000936  3.897482  0.0
C  C156  1  0.87707347  0.98353192  0.25446808  1  0.26082  0.001406  -0.128753  -0.273511  0.001322  3.927719  0.001
C  C157  1  0.95983063  0.53647838  0.44024965  1  -0.031688  0.015646  -0.0249  -0.094628  0.011256  3.97474  0.009
C  C158  1  0.90871978  0.57068039  0.37529181  1  1.541368  0.02829  0.23197  0.606043  0.02677  4.1176  0.024
C  C159  1  0.89376346  0.46255558  0.44862211  1  -0.012302  0.013982  -0.093602  -0.149276  0.010646  3.955607  0.008
C  C160  1  0.06897520  0.57633585  0.49297658  1  -0.119107  0.024181  -0.01715  0.098503  0.016136  4.036669  0.012
C  C161  1  0.85520449  0.40477110  0.08345006  1  1.353945  0.007764  0.182088  0.299305  0.007846  4.087576  0.007
C  C162  1  0.73487473  0.27110705  0.91431910  1  0.241983  0.001398  -0.134929  -0.277749  0.000934  3.897964  0.0
C  C163  1  0.89364510  0.27090391  0.01648956  1  0.283406  0.001384  -0.128724  -0.272825  0.001321  3.927664  0.001
C  C164  1  0.42333577  0.90377394  0.46357746  1  -0.05161  0.015683  -0.024902  -0.095816  0.01126  3.975351  0.009
C  C165  1  0.33806465  0.80459320  0.42940982  1  1.544437  0.028297  0.232304  0.606928  0.026741  4.117894  0.023
C  C166  1  0.43119431  0.98611975  0.53744251  1  -0.044501  0.014052  -0.094279  -0.149187  0.010658  3.954057  0.008
C  C167  1  0.49264570  0.91660401  0.42374741  1  -0.092205  0.024137  -0.01706  0.098327  0.01614  4.038432  0.012
C  C168  1  0.45027230  0.67851520  0.59521668  1  1.388846  0.007717  0.181233  0.297916  0.007849  4.090341  0.007
C  C169  1  0.46333704  0.64304915  0.72888568  1  0.246485  0.001404  -0.134837  -0.277989  0.000934  3.898281  0.0
C  C170  1  0.62239974  0.74551932  0.72927907  1  0.312903  0.001377  -0.128662  -0.273087  0.001324  3.929075  0.001
C  C171  1  0.07666246  0.53641799  0.09622767  1  -0.051984  0.015684  -0.02498  -0.095946  0.01126  3.975323  0.009
C  C172  1  0.16193448  0.57058639  0.19540684  1  1.544546  0.028297  0.232313  0.606999  0.026742  4.117885  0.023
C  C173  1  0.06880358  0.46255214  0.01388148  1  -0.044357  0.014053  -0.094281  -0.149259  0.010659  3.954154  0.008
C  C174  1  0.00735473  0.57625087  0.08339646  1  -0.092166  0.024139  -0.017051  0.098363  0.016141  4.038307  0.012
C  C175  1  0.04972795  0.40478366  0.32148374  1  1.38886  0.007717  0.181224  0.297878  0.007849  4.090278  0.007
C  C176  1  0.03666359  0.27111506  0.35695130  1  0.24632  0.001404  -0.134872  -0.278076  0.000934  3.898401  0.0
C  C177  1  0.87759959  0.27072085  0.25447989  1  0.312774  0.001377  -0.128648  -0.273032  0.001324  3.929065  0.001
C  C178  1  0.98036729  0.90376796  0.44014610  1  -0.019841  0.015614  -0.024822  -0.095854  0.011248  3.976547  0.009
C  C179  1  0.96646560  0.80462243  0.37512591  1  1.540998  0.028294  0.232956  0.608749  0.026778  4.114599  0.024
C  C180  1  0.05481224  0.98608543  0.44855063  1  -0.003032  0.013991  -0.094696  -0.150903  0.010671  3.955459  0.008
C  C181  1  0.92399545  0.91661468  0.49292455  1  -0.15653  0.024348  -0.016609  0.099779  0.016142  4.037232  0.012
C  C182  1  0.72823601  0.67853784  0.08335425  1  1.371423  0.007769  0.181945  0.299199  0.007827  4.090469  0.007
C  C183  1  0.67944733  0.64310101  0.91418729  1  0.236125  0.001402  -0.135153  -0.277703  0.000936  3.897491  0.0
C  C184  1  0.62292755  0.74553091  0.01646754  1  0.261124  0.001406  -0.128745  -0.27354  0.001322  3.92771  0.001
C  C185  1  0.54017101  0.55975006  0.46352202  1  -0.03133  0.015646  -0.024926  -0.094619  0.011256  3.97473  0.009
C  C186  1  0.59128127  0.62471001  0.42932212  1  1.541377  0.028291  0.231932  0.605907  0.026772  4.117818  0.024
C  C187  1  0.60623542  0.55137746  0.53744549  1  -0.012304  0.013981  -0.093598  -0.149193  0.010645  3.955649  0.008
C  C188  1  0.43102486  0.50702230  0.42366297  1  -0.119421  0.02418  -0.017146  0.098474  0.016135  4.03676  0.012
C  C189  1  0.64479823  0.91655222  0.59523183  1  1.353994  0.007764  0.182095  0.299359  0.007846  4.08736  0.007
C  C190  1  0.76512613  0.08568043  0.72889454  1  0.242136  0.001398  -0.134916  -0.277685  0.000934  3.897901  0.0
C  C191  1  0.60635487  0.98350978  0.72909674  1  0.283382  0.001384  -0.128721  -0.272761  0.00132  3.927706  0.001
S  S192  1  0.33432123  0.49406668  0.81963597  1  -0.470519  0.15172  -0.199112  -0.451268  0.120791  2.616371  0.054
S  S193  1  0.84018791  0.32553073  0.50586646  1  -0.481932  0.151954  -0.199091  -0.450992  0.120776  2.614788  0.054
S  S194  1  0.51460548  0.18037311  0.67433448  1  -0.482681  0.151997  -0.198848  -0.450604  0.120764  2.615507  0.054
S  S195  1  0.98539151  0.32566312  0.81962499  1  -0.482729  0.152  -0.198821  -0.450561  0.120762  2.615624  0.054
S  S196  1  0.16567832  0.18036392  0.50593322  1  -0.47086  0.151723  -0.199109  -0.451227  0.120789  2.616254  0.054
S  S197  1  0.65981352  0.49413236  0.67446985  1  -0.481842  0.15195  -0.199064  -0.45096  0.120777  2.614767  0.054
S  S198  1  0.66567881  0.50593472  0.18036613  1  -0.470873  0.151723  -0.199125  -0.451251  0.120793  2.616292  0.054
S  S199  1  0.15981239  0.67446845  0.49413432  1  -0.481892  0.151947  -0.199096  -0.451033  0.120777  2.61483  0.054
S  S200  1  0.48539241  0.81962532  0.32566167  1  -0.482768  0.152  -0.198844  -0.450624  0.120762  2.61572  0.054
S  S201  1  0.01460642  0.67433680  0.18037596  1  -0.48273  0.151996  -0.198829  -0.450594  0.120764  2.615671  0.054
S  S202  1  0.83432104  0.81963748  0.49406807  1  -0.470491  0.151717  -0.199106  -0.451236  0.120787  2.616304  0.054
S  S203  1  0.34018709  0.50586608  0.32553198  1  -0.481889  0.151945  -0.199091  -0.451009  0.120776  2.614851  0.054
N  N204  1  0.18022881  0.00824070  0.69035416  1  -1.225769  0.00905  -0.281289  0.030541  0.006584  3.717776  0.007
N  N205  1  0.17185983  0.68212542  0.99167911  1  -1.214329  0.009056  -0.281352  0.030139  0.006601  3.716664  0.007
N  N206  1  0.49004749  0.30964289  0.31779109  1  -1.233265  0.009071  -0.281327  0.032041  0.006619  3.716996  0.007
N  N207  1  0.00995500  0.68221062  0.69035853  1  -1.233068  0.00907  -0.281384  0.031956  0.006618  3.717136  0.007
N  N208  1  0.31977072  0.30964665  0.99175974  1  -1.225736  0.00905  -0.281257  0.030569  0.006584  3.717757  0.007
N  N209  1  0.32813946  0.00832093  0.31787401  1  -1.21432  0.009057  -0.281369  0.030133  0.006601  3.716667  0.007
N  N210  1  0.81976907  0.99175774  0.30964503  1  -1.225703  0.00905  -0.281264  0.030555  0.006584  3.717812  0.007
N  N211  1  0.82813948  0.31787450  0.00832042  1  -1.214321  0.009056  -0.281398  0.030106  0.0066  3.716711  0.007
N  N212  1  0.50995380  0.69035555  0.68220912  1  -1.233019  0.009069  -0.281371  0.03203  0.006617  3.716962  0.007
N  N213  1  0.99004541  0.31779152  0.30964333  1  -1.233037  0.00907  -0.281367  0.032004  0.006618  3.717156  0.007
N  N214  1  0.68022927  0.69035327  0.00823999  1  -1.225761  0.00905  -0.28127  0.030536  0.006583  3.717777  0.007
N  N215  1  0.67186169  0.99168270  0.68212919  1  -1.214368  0.009056  -0.281352  0.030119  0.0066  3.716713  0.007
O  O216  1  0.37377785  0.30646401  0.73482460  1  -1.224643  0.104483  -0.302216  -0.575218  0.078446  2.423805  0.049
O  O217  1  0.54802269  0.38995657  0.79658756  1  -1.179402  0.077023  -0.285635  -0.491417  0.054084  2.328621  0.041
O  O218  1  0.27823020  0.07973988  0.63135310  1  -1.168648  0.059389  -0.285669  -0.426632  0.040319  2.444517  0.025
O  O219  1  0.06731819  0.42825078  0.69340564  1  -1.221892  0.104574  -0.302021  -0.573448  0.078419  2.424528  0.049
O  O220  1  0.15796560  0.40639623  0.60982408  1  -1.180043  0.077011  -0.284954  -0.490506  0.054089  2.329181  0.041
O  O221  1  0.19848516  0.55174330  0.92011962  1  -1.176115  0.059303  -0.285538  -0.426367  0.04029  2.444449  0.025
O  O222  1  0.63902870  0.26517406  0.57166018  1  -1.221916  0.104523  -0.302048  -0.57416  0.07841  2.426581  0.049
O  O223  1  0.75152954  0.20344349  0.59353934  1  -1.175913  0.076977  -0.285067  -0.490377  0.054108  2.328375  0.041
O  O224  1  0.64690212  0.36866322  0.44846565  1  -1.183382  0.059409  -0.28508  -0.426304  0.040371  2.448361  0.025
O  O225  1  0.86097553  0.42834267  0.73482821  1  -1.221915  0.104521  -0.302024  -0.574014  0.078404  2.426412  0.049
O  O226  1  0.74847140  0.40646159  0.79655624  1  -1.175878  0.076981  -0.285046  -0.490332  0.054111  2.328426  0.041
O  O227  1  0.85310140  0.55153513  0.63133519  1  -1.183418  0.059408  -0.285052  -0.426218  0.040369  2.448364  0.025
O  O228  1  0.12622543  0.26517460  0.69353758  1  -1.22467  0.104474  -0.302232  -0.575266  0.078449  2.423819  0.049
O  O229  1  0.95198117  0.20341472  0.61004789  1  -1.179343  0.077024  -0.285629  -0.491333  0.054083  2.328596  0.041
O  O230  1  0.22176916  0.36864721  0.92026165  1  -1.168715  0.059391  -0.285583  -0.426537  0.040318  2.44474  0.025
O  O231  1  0.43267854  0.30659347  0.57174643  1  -1.22188  0.104573  -0.302019  -0.573443  0.078414  2.424469  0.049
O  O232  1  0.34203494  0.39017643  0.59360272  1  -1.180021  0.077011  -0.284951  -0.490522  0.054088  2.329148  0.041
O  O233  1  0.30151396  0.07988059  0.44825527  1  -1.176733  0.059312  -0.285524  -0.426333  0.040289  2.444467  0.025
O  O234  1  0.62622462  0.69353813  0.26517604  1  -1.224745  0.104495  -0.302218  -0.575203  0.078447  2.423763  0.049
O  O235  1  0.45198021  0.61004779  0.20341337  1  -1.179389  0.077024  -0.285654  -0.49141  0.054083  2.328629  0.041
O  O236  1  0.72176738  0.92025930  0.36864504  1  -1.168675  0.059389  -0.285641  -0.426615  0.04032  2.444559  0.025
O  O237  1  0.93267968  0.57174765  0.30659477  1  -1.221889  0.10458  -0.302028  -0.573523  0.078419  2.424505  0.049
O  O238  1  0.84203613  0.59360442  0.39017703  1  -1.180014  0.077009  -0.28499  -0.490572  0.05409  2.329123  0.041
O  O239  1  0.80151478  0.44825513  0.07987835  1  -1.176667  0.059303  -0.285497  -0.426286  0.040287  2.444506  0.025
O  O240  1  0.36097272  0.73482734  0.42833866  1  -1.221873  0.10452  -0.301997  -0.574061  0.078408  2.426588  0.049
O  O241  1  0.24847004  0.79655421  0.40645400  1  -1.175868  0.076977  -0.285123  -0.49044  0.054111  2.328378  0.041
O  O242  1  0.35310154  0.63133447  0.55153378  1  -1.183424  0.059405  -0.285044  -0.426249  0.040367  2.448427  0.025
O  O243  1  0.13902488  0.57165947  0.26517243  1  -1.221925  0.104521  -0.302026  -0.574093  0.078408  2.42653  0.049
O  O244  1  0.25152796  0.59353981  0.20344382  1  -1.175848  0.07698  -0.285086  -0.490425  0.054111  2.328399  0.041
O  O245  1  0.14689765  0.44846701  0.36866444  1  -1.183436  0.059407  -0.28504  -0.426218  0.040369  2.448385  0.025
O  O246  1  0.87377760  0.73482457  0.30646401  1  -1.224621  0.104479  -0.302217  -0.575208  0.078445  2.42378  0.049
O  O247  1  0.04802197  0.79658742  0.38995600  1  -1.179409  0.077027  -0.285632  -0.491414  0.054086  2.328665  0.041
O  O248  1  0.77823045  0.63135196  0.07973954  1  -1.168683  0.059386  -0.285661  -0.426617  0.040319  2.444639  0.025
O  O249  1  0.56731835  0.69340570  0.42825090  1  -1.221904  0.104573  -0.302024  -0.573436  0.078416  2.4245  0.049
O  O250  1  0.65797068  0.60982793  0.40640451  1  -1.179913  0.076991  -0.284952  -0.490556  0.054092  2.329213  0.041
O  O251  1  0.69848645  0.92012155  0.55174659  1  -1.176689  0.05931  -0.285541  -0.426387  0.040288  2.444523  0.025
