# generated using pymatgen
data_AgH3C4(NO)3
_symmetry_space_group_name_H-M   'P 1'
_cell_length_a   3.52262862
_cell_length_b   10.63928712
_cell_length_c   16.54414007
_cell_angle_alpha   88.85536307
_cell_angle_beta   84.05971990
_cell_angle_gamma   80.66936557
_symmetry_Int_Tables_number   1
_chemical_formula_structural   AgH3C4(NO)3
_chemical_formula_sum   'Ag4 H12 C16 N12 O12'
_cell_volume   608.55318896
_cell_formula_units_Z   4
loop_
 _symmetry_equiv_pos_site_id
 _symmetry_equiv_pos_as_xyz
  1  'x, y, z'
loop_
 _atom_site_type_symbol
 _atom_site_label
 _atom_site_symmetry_multiplicity
 _atom_site_fract_x
 _atom_site_fract_y
 _atom_site_fract_z
 _atom_site_occupancy
 _atom_site_hle17_bader_spin_density
 _atom_site_hle17_ddec_charge
 _atom_site_hle17_ddec_spin_density
 _atom_site_hle17_ddec_sum_bond_order
 _atom_site_hle17_magmom
 _atom_site_hse06_10hf_bader_spin_density
 _atom_site_hse06_10hf_ddec_charge
 _atom_site_hse06_10hf_ddec_spin_density
 _atom_site_hse06_10hf_ddec_sum_bond_order
 _atom_site_hse06_10hf_magmom
 _atom_site_hse06_bader_spin_density
 _atom_site_hse06_ddec_charge
 _atom_site_hse06_ddec_spin_density
 _atom_site_hse06_ddec_sum_bond_order
 _atom_site_hse06_magmom
 _atom_site_pbe_bader_spin_density
 _atom_site_pbe_cm5_charge
 _atom_site_pbe_ddec_charge
 _atom_site_pbe_ddec_spin_density
 _atom_site_pbe_ddec_sum_bond_order
 _atom_site_pbe_magmom
Ag  Ag0  1  0.50909979  0.84385595  0.84391071  1  0  0.57141  0  1.363033  0  0  0.421779  0  1.829169  0  0  0.455296  0  1.773183  0  0  0.447646  0.399419  0  1.86865  0
Ag  Ag1  1  0.19822468  0.65638760  0.65591714  1  0  0.573238  0  1.359233  0  0  0.423845  0  1.824425  0  0  0.457178  0  1.768641  0  0  0.446952  0.400498  0  1.863964  0
Ag  Ag2  1  0.49088863  0.15614161  0.15609054  1  0  0.571443  0  1.362998  0  0  0.421748  0  1.829163  0  0  0.455259  0  1.773189  0  0  0.447592  0.399383  0  1.868645  0
Ag  Ag3  1  0.80179109  0.34361474  0.34408293  1  0  0.573266  0  1.35927  0  0  0.423854  0  1.824483  0  0  0.457179  0  1.768697  0  0  0.446952  0.400509  0  1.864017  0
H  H4  1  0.92922700  0.86819045  0.19603394  1  0  0.099444  0  0.933432  0  0  0.108647  0  0.992803  0  0  0.111468  0  0.989699  0  0  0.123684  0.106257  0  0.995466  0
H  H5  1  0.98931409  0.63259414  0.30414331  1  0  0.099501  0  0.93338  0  0  0.108526  0  0.99315  0  0  0.11126  0  0.990144  0  0  0.123777  0.106469  0  0.995435  0
H  H6  1  0.07079772  0.13180426  0.80396381  1  0  0.099367  0  0.933535  0  0  0.108568  0  0.992906  0  0  0.11139  0  0.9898  0  0  0.123657  0.106177  0  0.995566  0
H  H7  1  0.01067846  0.36740721  0.69585188  1  0  0.099502  0  0.93336  0  0  0.108527  0  0.993148  0  0  0.111267  0  0.99014  0  0  0.123765  0.106471  0  0.99543  0
H  H8  1  0.10299028  0.65317571  0.12513160  1  0  0.127882  0  0.988099  0  0  0.127209  0  1.060011  0  0  0.131562  0  1.058029  0  0  0.111059  0.123761  0  1.062138  0
H  H9  1  0.87680665  0.84798176  0.37479837  1  0  0.128741  0  0.986726  0  0  0.12771  0  1.059325  0  0  0.132188  0  1.057133  0  0  0.110929  0.124448  0  1.061036  0
H  H10  1  0.89702234  0.34682090  0.87486588  1  0  0.127896  0  0.988093  0  0  0.127244  0  1.059987  0  0  0.131601  0  1.058  0  0  0.111074  0.123791  0  1.062111  0
H  H11  1  0.12315732  0.15202054  0.62519925  1  0  0.12876  0  0.986723  0  0  0.127708  0  1.059335  0  0  0.132185  0  1.057146  0  0  0.110923  0.124449  0  1.061042  0
H  H12  1  0.94415571  0.64419177  0.97973747  1  0  0.10369  0  0.930486  0  0  0.110736  0  0.991761  0  0  0.113635  0  0.988319  0  0  0.1259  0.108253  0  0.994728  0
H  H13  1  0.56251323  0.85694298  0.51973069  1  0  0.103463  0  0.931839  0  0  0.110499  0  0.993231  0  0  0.113387  0  0.989799  0  0  0.125692  0.10836  0  0.995582  0
H  H14  1  0.05583496  0.35579436  0.02026436  1  0  0.103734  0  0.930521  0  0  0.110681  0  0.991918  0  0  0.113569  0  0.988477  0  0  0.125897  0.108203  0  0.994887  0
H  H15  1  0.43747388  0.14306411  0.48026998  1  0  0.103484  0  0.931888  0  0  0.110512  0  0.993287  0  0  0.113399  0  0.989857  0  0  0.125744  0.108373  0  0.995638  0
C  C16  1  0.60317474  0.94321279  0.02040469  1  0  0.291451  0  3.761359  0  0  0.269099  0  4.009308  0  0  0.281048  0  4.027691  0  0  0.238552  0.260955  0  3.997021  0
C  C17  1  0.56558641  0.55704373  0.47956031  1  0  0.291984  0  3.759667  0  0  0.270158  0  4.006429  0  0  0.282155  0  4.024609  0  0  0.238345  0.262144  0  3.993989  0
C  C18  1  0.39681332  0.05677621  0.97959834  1  0  0.291533  0  3.761009  0  0  0.269063  0  4.009088  0  0  0.281017  0  4.027467  0  0  0.238607  0.260927  0  3.996787  0
C  C19  1  0.43443815  0.44295575  0.52043808  1  0  0.292202  0  3.759564  0  0  0.270037  0  4.00664  0  0  0.282123  0  4.024734  0  0  0.23833  0.262018  0  3.994203  0
C  C20  1  0.86270032  0.85396862  0.13426802  1  0  0.186855  0  3.627412  0  0  0.152644  0  3.877634  0  0  0.162556  0  3.89324  0  0  0.069852  0.145914  0  3.868106  0
C  C21  1  0.84751171  0.64674142  0.36579561  1  0  0.188074  0  3.627409  0  0  0.153464  0  3.878178  0  0  0.163497  0  3.893551  0  0  0.069312  0.146563  0  3.867833  0
C  C22  1  0.13729357  0.14602228  0.86573393  1  0  0.186717  0  3.62811  0  0  0.15255  0  3.878234  0  0  0.162462  0  3.893844  0  0  0.069774  0.145821  0  3.868697  0
C  C23  1  0.15249968  0.35326092  0.63420312  1  0  0.188192  0  3.627351  0  0  0.153529  0  3.878142  0  0  0.163555  0  3.893519  0  0  0.069325  0.146624  0  3.867812  0
C  C24  1  0.95664052  0.73664624  0.09543436  1  0  -0.139293  0  3.65081  0  0  -0.148891  0  3.900428  0  0  -0.15933  0  3.921078  0  0  -0.072478  -0.142749  0  3.888306  0
C  C25  1  0.78490216  0.76422130  0.40445943  1  0  -0.141121  0  3.65027  0  0  -0.150444  0  3.900765  0  0  -0.160719  0  3.920892  0  0  -0.071759  -0.143744  0  3.887631  0
C  C26  1  0.04336230  0.26334275  0.90456530  1  0  -0.139307  0  3.651046  0  0  -0.148887  0  3.900555  0  0  -0.159327  0  3.921198  0  0  -0.072476  -0.142739  0  3.888426  0
C  C27  1  0.21507888  0.23577911  0.59553919  1  0  -0.141206  0  3.650217  0  0  -0.150473  0  3.900706  0  0  -0.160743  0  3.920831  0  0  -0.071747  -0.143774  0  3.887569  0
C  C28  1  0.87059045  0.73127358  0.01541335  1  0  0.196063  0  3.626347  0  0  0.158923  0  3.884483  0  0  0.169808  0  3.89803  0  0  0.074796  0.151066  0  3.876585  0
C  C29  1  0.61346537  0.76956155  0.48431963  1  0  0.195846  0  3.626558  0  0  0.158294  0  3.885442  0  0  0.16933  0  3.898776  0  0  0.074977  0.150921  0  3.876765  0
C  C30  1  0.12941173  0.26872113  0.98458696  1  0  0.196086  0  3.626096  0  0  0.158943  0  3.884294  0  0  0.169846  0  3.897827  0  0  0.074729  0.151075  0  3.876404  0
C  C31  1  0.38651955  0.23044553  0.51568037  1  0  0.195832  0  3.626814  0  0  0.158282  0  3.885672  0  0  0.169318  0  3.899009  0  0  0.074926  0.150915  0  3.876994  0
N  N32  1  0.69517297  0.83448432  0.97786442  1  0  -0.370666  0  3.232292  0  0  -0.306091  0  3.522715  0  0  -0.325548  0  3.534794  0  0  -0.320515  -0.293361  0  3.515192  0
N  N33  1  0.50505053  0.66603468  0.52190864  1  0  -0.37085  0  3.2311  0  0  -0.306378  0  3.520911  0  0  -0.325841  0  3.532963  0  0  -0.32011  -0.293723  0  3.51329  0
N  N34  1  0.30481616  0.16550372  0.02213800  1  0  -0.370779  0  3.231938  0  0  -0.30611  0  3.522343  0  0  -0.325576  0  3.534432  0  0  -0.320467  -0.29338  0  3.514816  0
N  N35  1  0.49496446  0.33396480  0.47809077  1  0  -0.370974  0  3.231309  0  0  -0.30642  0  3.521213  0  0  -0.325905  0  3.53324  0  0  -0.320165  -0.293767  0  3.513596  0
N  N36  1  0.68655650  0.95738670  0.09677544  1  0  -0.36316  0  3.241675  0  0  -0.296019  0  3.530596  0  0  -0.3158  0  3.543427  0  0  -0.323649  -0.283116  0  3.522384  0
N  N37  1  0.73865905  0.54300438  0.40332389  1  0  -0.364817  0  3.239635  0  0  -0.29788  0  3.528288  0  0  -0.317484  0  3.540841  0  0  -0.323278  -0.284271  0  3.519536  0
N  N38  1  0.31344723  0.04260610  0.90322427  1  0  -0.362961  0  3.241722  0  0  -0.295848  0  3.530691  0  0  -0.315629  0  3.543517  0  0  -0.323585  -0.282952  0  3.522481  0
N  N39  1  0.26135417  0.45699222  0.59667298  1  0  -0.36493  0  3.239684  0  0  -0.297871  0  3.528423  0  0  -0.317497  0  3.540951  0  0  -0.323251  -0.284267  0  3.519687  0
N  N40  1  0.82941595  0.94662534  0.67382904  1  0  0.69055  0  4.124846  0  0  0.732294  0  4.396208  0  0  0.762131  0  4.403354  0  0  0.094803  0.712066  0  4.390724  0
N  N41  1  0.45328371  0.55255441  0.82626221  1  0  0.69536  0  4.120423  0  0  0.733523  0  4.396773  0  0  0.763277  0  4.403879  0  0  0.095644  0.713023  0  4.391134  0
N  N42  1  0.17059350  0.05337321  0.32617641  1  0  0.690719  0  4.124898  0  0  0.732326  0  4.396399  0  0  0.762165  0  4.403556  0  0  0.094846  0.712108  0  4.390906  0
N  N43  1  0.54672726  0.44745078  0.17373839  1  0  0.695343  0  4.120386  0  0  0.733521  0  4.396729  0  0  0.763273  0  4.403845  0  0  0.095589  0.713013  0  4.391093  0
O  O44  1  0.00138489  0.94803761  0.60379540  1  0  -0.431247  0  1.750998  0  0  -0.422254  0  1.953827  0  0  -0.437919  0  1.949119  0  0  -0.16889  -0.410936  0  1.956643  0
O  O45  1  0.55512370  0.55115466  0.89655203  1  0  -0.43226  0  1.749775  0  0  -0.42197  0  1.953487  0  0  -0.437458  0  1.948737  0  0  -0.168337  -0.410095  0  1.956155  0
O  O46  1  0.99865043  0.05195619  0.39620939  1  0  -0.431278  0  1.751229  0  0  -0.422235  0  1.954092  0  0  -0.437905  0  1.949384  0  0  -0.168873  -0.410923  0  1.956907  0
O  O47  1  0.44486813  0.44885054  0.10345059  1  0  -0.432354  0  1.749544  0  0  -0.422018  0  1.953204  0  0  -0.437502  0  1.948451  0  0  -0.168408  -0.410141  0  1.955888  0
O  O48  1  0.71018694  0.04596079  0.71459033  1  0  -0.450498  0  1.766834  0  0  -0.442598  0  1.978258  0  0  -0.458548  0  1.973098  0  0  -0.175702  -0.430942  0  1.981528  0
O  O49  1  0.47753226  0.45331565  0.78505414  1  0  -0.452594  0  1.764238  0  0  -0.443939  0  1.977238  0  0  -0.459612  0  1.971825  0  0  -0.176905  -0.43223  0  1.980852  0
O  O50  1  0.28979466  0.95403486  0.28541012  1  0  -0.450532  0  1.766882  0  0  -0.442576  0  1.978323  0  0  -0.458516  0  1.973146  0  0  -0.175707  -0.430917  0  1.981584  0
O  O51  1  0.52252192  0.54668764  0.21494127  1  0  -0.452516  0  1.764326  0  0  -0.44391  0  1.977363  0  0  -0.459566  0  1.971929  0  0  -0.176848  -0.432215  0  1.981022  0
O  O52  1  0.77034140  0.83738753  0.70603340  1  0  -0.512594  0  1.979999  0  0  -0.464878  0  2.270295  0  0  -0.490289  0  2.254864  0  0  -0.224945  -0.447237  0  2.280906  0
O  O53  1  0.31494910  0.66152264  0.79421957  1  0  -0.514486  0  1.977161  0  0  -0.465934  0  2.268281  0  0  -0.491191  0  2.252879  0  0  -0.225327  -0.447631  0  2.278722  0
O  O54  1  0.22967265  0.16261102  0.29397031  1  0  -0.512729  0  1.979807  0  0  -0.464942  0  2.27017  0  0  -0.49034  0  2.254697  0  0  -0.224982  -0.447307  0  2.280785  0
O  O55  1  0.68503676  0.33848254  0.20578044  1  0  -0.514476  0  1.977231  0  0  -0.465876  0  2.268296  0  0  -0.491139  0  2.252908  0  0  -0.225247  -0.447558  0  2.278727  0
