# generated using pymatgen
data_Cd3H14C12(NO4)4
_symmetry_space_group_name_H-M   'P 1'
_cell_length_a   9.49115027
_cell_length_b   9.49110674
_cell_length_c   12.33125670
_cell_angle_alpha   89.17030094
_cell_angle_beta   89.16805725
_cell_angle_gamma   68.47710536
_symmetry_Int_Tables_number   1
_chemical_formula_structural   Cd3H14C12(NO4)4
_chemical_formula_sum   'Cd6 H28 C24 N8 O32'
_cell_volume   1033.20318384
_cell_formula_units_Z   2
loop_
 _symmetry_equiv_pos_site_id
 _symmetry_equiv_pos_as_xyz
  1  'x, y, z'
loop_
 _atom_site_type_symbol
 _atom_site_label
 _atom_site_symmetry_multiplicity
 _atom_site_fract_x
 _atom_site_fract_y
 _atom_site_fract_z
 _atom_site_occupancy
 _atom_site_hle17_bader_spin_density
 _atom_site_hle17_ddec_charge
 _atom_site_hle17_ddec_spin_density
 _atom_site_hle17_ddec_sum_bond_order
 _atom_site_hle17_magmom
 _atom_site_hse06_10hf_bader_spin_density
 _atom_site_hse06_10hf_ddec_charge
 _atom_site_hse06_10hf_ddec_spin_density
 _atom_site_hse06_10hf_ddec_sum_bond_order
 _atom_site_hse06_10hf_magmom
 _atom_site_hse06_bader_spin_density
 _atom_site_hse06_ddec_charge
 _atom_site_hse06_ddec_spin_density
 _atom_site_hse06_ddec_sum_bond_order
 _atom_site_hse06_magmom
 _atom_site_pbe_bader_spin_density
 _atom_site_pbe_cm5_charge
 _atom_site_pbe_ddec_charge
 _atom_site_pbe_ddec_spin_density
 _atom_site_pbe_ddec_sum_bond_order
 _atom_site_pbe_magmom
Cd  Cd0  1  0.18692478  0.06880521  0.58506749  1  0  1.277929  0  1.604  0  0  1.10033  0  2.055784  0  0  1.153489  0  1.997275  0  0  0.799196  1.062454  0  2.095923  0
Cd  Cd1  1  0.93119611  0.81307252  0.91493450  1  0  1.277924  0  1.603894  0  0  1.100321  0  2.055669  0  0  1.153496  0  1.997142  0  0  0.799201  1.062448  0  2.095807  0
Cd  Cd2  1  0.81307392  0.93119536  0.41493529  1  0  1.27791  0  1.603987  0  0  1.100326  0  2.055752  0  0  1.153479  0  1.997265  0  0  0.799209  1.062447  0  2.095887  0
Cd  Cd3  1  0.06880426  0.18692914  0.08506580  1  0  1.277914  0  1.603932  0  0  1.100289  0  2.055733  0  0  1.153472  0  1.997193  0  0  0.799206  1.06242  0  2.095872  0
Cd  Cd4  1  0.99999744  0.50000195  0.49999801  1  0  1.17008  0  1.656917  0  0  0.978372  0  2.098665  0  0  1.032191  0  2.047737  0  0  0.792239  0.939137  0  2.134069  0
Cd  Cd5  1  0.50000233  0.99999825  0.99999924  1  0  1.170053  0  1.656906  0  0  0.978361  0  2.09864  0  0  1.032178  0  2.047713  0  0  0.792255  0.939134  0  2.134052  0
H  H6  1  0.47173968  0.51274970  0.35952586  1  0  0.144028  0  0.930828  0  0  0.152742  0  0.988823  0  0  0.157742  0  0.98649  0  0  0.117176  0.148423  0  0.992038  0
H  H7  1  0.48725129  0.52826456  0.14047077  1  0  0.143886  0  0.930856  0  0  0.152637  0  0.988823  0  0  0.157638  0  0.98649  0  0  0.117099  0.148315  0  0.99204  0
H  H8  1  0.52826053  0.48725536  0.64047519  1  0  0.143887  0  0.930929  0  0  0.152662  0  0.988857  0  0  0.157663  0  0.986528  0  0  0.117121  0.148343  0  0.992072  0
H  H9  1  0.51275219  0.47173143  0.85952957  1  0  0.144039  0  0.930732  0  0  0.152687  0  0.988821  0  0  0.157687  0  0.986489  0  0  0.117156  0.148368  0  0.992032  0
H  H10  1  0.41215281  0.92965904  0.41178959  1  0  0.431131  0  0.872342  0  0  0.39598  0  0.943467  0  0  0.407361  0  0.926822  0  0  0.289293  0.387987  0  0.955185  0
H  H11  1  0.07033665  0.58784977  0.08820627  1  0  0.431144  0  0.872301  0  0  0.396008  0  0.9434  0  0  0.407388  0  0.926757  0  0  0.289297  0.388014  0  0.955121  0
H  H12  1  0.58784666  0.07033922  0.58820916  1  0  0.431131  0  0.872351  0  0  0.395987  0  0.943461  0  0  0.407368  0  0.926817  0  0  0.289293  0.38799  0  0.955185  0
H  H13  1  0.92967022  0.41214844  0.91179234  1  0  0.431185  0  0.872246  0  0  0.396045  0  0.943354  0  0  0.407425  0  0.926711  0  0  0.289291  0.38805  0  0.955075  0
H  H14  1  0.33951510  0.10966935  0.39055651  1  0  0.41695  0  0.879993  0  0  0.385142  0  0.951738  0  0  0.395429  0  0.936623  0  0  0.294109  0.377996  0  0.962143  0
H  H15  1  0.89032615  0.66048787  0.10944507  1  0  0.417072  0  0.879813  0  0  0.385191  0  0.951712  0  0  0.39549  0  0.936576  0  0  0.294139  0.378054  0  0.962106  0
H  H16  1  0.66048442  0.89032895  0.60944630  1  0  0.417004  0  0.879872  0  0  0.385172  0  0.9517  0  0  0.395464  0  0.936577  0  0  0.294144  0.378029  0  0.962101  0
H  H17  1  0.10967924  0.33951147  0.89055274  1  0  0.417075  0  0.879701  0  0  0.385187  0  0.951697  0  0  0.395484  0  0.936562  0  0  0.294157  0.378044  0  0.962098  0
H  H18  1  0.95943282  0.29825806  0.70223643  1  0  0.431366  0  0.865349  0  0  0.401422  0  0.926126  0  0  0.412046  0  0.910691  0  0  0.290028  0.393451  0  0.937818  0
H  H19  1  0.70175009  0.04055275  0.79776229  1  0  0.431431  0  0.865278  0  0  0.40151  0  0.926012  0  0  0.412133  0  0.910576  0  0  0.290081  0.393542  0  0.9377  0
H  H20  1  0.04055995  0.70174700  0.29775989  1  0  0.431282  0  0.865481  0  0  0.401432  0  0.926112  0  0  0.412057  0  0.910675  0  0  0.290051  0.393463  0  0.937802  0
H  H21  1  0.29824965  0.95944779  0.20223884  1  0  0.431305  0  0.865455  0  0  0.401463  0  0.926074  0  0  0.412085  0  0.910642  0  0  0.290062  0.393497  0  0.937758  0
H  H22  1  0.02759947  0.17451739  0.79135383  1  0  0.445583  0  0.825936  0  0  0.418301  0  0.887583  0  0  0.428387  0  0.872817  0  0  0.304448  0.411063  0  0.898179  0
H  H23  1  0.82550104  0.97239501  0.70864541  1  0  0.445572  0  0.825917  0  0  0.418292  0  0.88759  0  0  0.428376  0  0.872828  0  0  0.304437  0.411055  0  0.898186  0
H  H24  1  0.97240037  0.82549441  0.20864304  1  0  0.445554  0  0.825925  0  0  0.418275  0  0.887608  0  0  0.428359  0  0.872846  0  0  0.304445  0.411037  0  0.898207  0
H  H25  1  0.17449764  0.02760554  0.29135575  1  0  0.445557  0  0.825937  0  0  0.418277  0  0.88761  0  0  0.428361  0  0.872847  0  0  0.304441  0.411042  0  0.898201  0
H  H26  1  0.95887651  0.52684482  0.73238162  1  0  0.435665  0  0.864486  0  0  0.40032  0  0.934285  0  0  0.411927  0  0.917498  0  0  0.293892  0.391887  0  0.946535  0
H  H27  1  0.47315252  0.04112028  0.76761975  1  0  0.435621  0  0.864533  0  0  0.400272  0  0.934339  0  0  0.411879  0  0.917554  0  0  0.293888  0.391841  0  0.946587  0
H  H28  1  0.04112108  0.47315570  0.26761550  1  0  0.435622  0  0.864529  0  0  0.400282  0  0.934322  0  0  0.411889  0  0.917537  0  0  0.293895  0.391853  0  0.946569  0
H  H29  1  0.52684617  0.95888028  0.23238221  1  0  0.435641  0  0.864513  0  0  0.400305  0  0.934297  0  0  0.411912  0  0.917511  0  0  0.293897  0.391877  0  0.946544  0
H  H30  1  0.79300431  0.56421876  0.68385688  1  0  0.447498  0  0.837088  0  0  0.414355  0  0.902653  0  0  0.424597  0  0.887798  0  0  0.302173  0.406792  0  0.913695  0
H  H31  1  0.43579057  0.20699239  0.81614816  1  0  0.447463  0  0.83712  0  0  0.414301  0  0.902721  0  0  0.424543  0  0.887865  0  0  0.302161  0.406737  0  0.913764  0
H  H32  1  0.20699376  0.43578628  0.31614096  1  0  0.44745  0  0.837131  0  0  0.414315  0  0.90269  0  0  0.424557  0  0.887835  0  0  0.302161  0.406756  0  0.913727  0
H  H33  1  0.56420772  0.79300931  0.18385461  1  0  0.447486  0  0.837085  0  0  0.414343  0  0.902657  0  0  0.424585  0  0.887801  0  0  0.302179  0.406782  0  0.913698  0
C  C34  1  0.87379120  0.24453123  0.43458240  1  0  0.71685  0  3.875419  0  0  0.665865  0  4.154499  0  0  0.697772  0  4.155031  0  0  0.321709  0.64433  0  4.153451  0
C  C35  1  0.75547632  0.12619274  0.06541489  1  0  0.716923  0  3.875393  0  0  0.665931  0  4.154457  0  0  0.697857  0  4.154956  0  0  0.321796  0.644395  0  4.153413  0
C  C36  1  0.12619825  0.75547725  0.56541473  1  0  0.716822  0  3.875677  0  0  0.665869  0  4.154691  0  0  0.697781  0  4.155212  0  0  0.321758  0.644329  0  4.153654  0
C  C37  1  0.24452637  0.87380554  0.93458867  1  0  0.716909  0  3.875432  0  0  0.665883  0  4.154545  0  0  0.697826  0  4.155028  0  0  0.321734  0.644333  0  4.153527  0
C  C38  1  0.69380787  0.49181271  0.41543845  1  0  0.187026  0  3.722911  0  0  0.179815  0  3.975102  0  0  0.190448  0  3.990175  0  0  0.128337  0.172723  0  3.96453  0
C  C39  1  0.50818955  0.30618886  0.08455867  1  0  0.18686  0  3.723249  0  0  0.179677  0  3.975372  0  0  0.190301  0  3.990471  0  0  0.128273  0.172581  0  3.964804  0
C  C40  1  0.30619120  0.50818669  0.58456029  1  0  0.186887  0  3.723152  0  0  0.179663  0  3.975328  0  0  0.190298  0  3.990403  0  0  0.128248  0.172567  0  3.964763  0
C  C41  1  0.49181076  0.69380715  0.91544173  1  0  0.186687  0  3.723494  0  0  0.179481  0  3.975602  0  0  0.1901  0  3.990705  0  0  0.128198  0.172391  0  3.965029  0
C  C42  1  0.66196054  0.66152431  0.41815661  1  0  0.637552  0  3.898833  0  0  0.580439  0  4.205324  0  0  0.613634  0  4.19674  0  0  0.214447  0.558164  0  4.209373  0
C  C43  1  0.33847570  0.33804192  0.08184026  1  0  0.637447  0  3.899039  0  0  0.58039  0  4.205428  0  0  0.613588  0  4.196851  0  0  0.214502  0.558119  0  4.209476  0
C  C44  1  0.33803891  0.33847392  0.58183971  1  0  0.637474  0  3.898908  0  0  0.580422  0  4.205289  0  0  0.61362  0  4.196716  0  0  0.214508  0.558146  0  4.209332  0
C  C45  1  0.66152779  0.66195409  0.91816171  1  0  0.637518  0  3.898941  0  0  0.58048  0  4.205292  0  0  0.613677  0  4.196719  0  0  0.214554  0.558204  0  4.209339  0
C  C46  1  0.58430835  0.43647325  0.38179925  1  0  -0.217901  0  3.693516  0  0  -0.254843  0  3.963432  0  0  -0.267806  0  3.984045  0  0  -0.093584  -0.24673  0  3.950535  0
C  C47  1  0.56352956  0.41568928  0.11819948  1  0  -0.217626  0  3.693555  0  0  -0.254629  0  3.963479  0  0  -0.267592  0  3.984106  0  0  -0.093463  -0.246509  0  3.950573  0
C  C48  1  0.41568883  0.56352841  0.61819867  1  0  -0.217707  0  3.693576  0  0  -0.25473  0  3.963459  0  0  -0.267704  0  3.984084  0  0  -0.093503  -0.246614  0  3.950558  0
C  C49  1  0.43647558  0.58430220  0.88180335  1  0  -0.217583  0  3.693397  0  0  -0.254512  0  3.9633  0  0  -0.267471  0  3.983919  0  0  -0.09346  -0.246396  0  3.950396  0
C  C50  1  0.62902270  0.27924230  0.37650643  1  0  0.188579  0  3.746296  0  0  0.181082  0  4.000957  0  0  0.191711  0  4.016843  0  0  0.12798  0.174272  0  3.989455  0
C  C51  1  0.72075711  0.37097784  0.12349087  1  0  0.188405  0  3.746534  0  0  0.180889  0  4.001187  0  0  0.191515  0  4.017096  0  0  0.127855  0.174082  0  3.989675  0
C  C52  1  0.37097767  0.72075934  0.62349224  1  0  0.188434  0  3.746372  0  0  0.181033  0  4.000963  0  0  0.191665  0  4.016849  0  0  0.127914  0.174227  0  3.989455  0
C  C53  1  0.27924451  0.62902044  0.87651109  1  0  0.188384  0  3.746471  0  0  0.180929  0  4.001061  0  0  0.191559  0  4.016955  0  0  0.127915  0.174123  0  3.989553  0
C  C54  1  0.52448255  0.20139110  0.33794436  1  0  0.620688  0  3.897685  0  0  0.566557  0  4.198065  0  0  0.598072  0  4.190976  0  0  0.215297  0.545274  0  4.201923  0
C  C55  1  0.79861193  0.47551874  0.16205489  1  0  0.620692  0  3.897504  0  0  0.56662  0  4.197752  0  0  0.598123  0  4.190681  0  0  0.215337  0.545338  0  4.201608  0
C  C56  1  0.47551930  0.79860943  0.66205755  1  0  0.620884  0  3.897667  0  0  0.566682  0  4.1981  0  0  0.598196  0  4.191012  0  0  0.215352  0.545386  0  4.201967  0
C  C57  1  0.20139245  0.52448065  0.83794700  1  0  0.620807  0  3.897384  0  0  0.566672  0  4.197695  0  0  0.598182  0  4.190612  0  0  0.215323  0.545384  0  4.201563  0
N  N58  1  0.83292460  0.39866189  0.44283481  1  0  -0.503637  0  3.168036  0  0  -0.42554  0  3.424951  0  0  -0.452559  0  3.436915  0  0  -0.346281  -0.406743  0  3.416217  0
N  N59  1  0.60133268  0.16707634  0.05716373  1  0  -0.503466  0  3.167962  0  0  -0.425386  0  3.424823  0  0  -0.452407  0  3.436788  0  0  -0.346232  -0.406588  0  3.416095  0
N  N60  1  0.16707779  0.60133408  0.55716312  1  0  -0.503457  0  3.167977  0  0  -0.425354  0  3.424831  0  0  -0.452377  0  3.436796  0  0  -0.346189  -0.406552  0  3.416099  0
N  N61  1  0.39867121  0.83291852  0.94283662  1  0  -0.503425  0  3.168079  0  0  -0.425314  0  3.424934  0  0  -0.45234  0  3.436897  0  0  -0.346197  -0.406515  0  3.416214  0
N  N62  1  0.76873690  0.18637908  0.40243977  1  0  -0.501876  0  3.14102  0  0  -0.431277  0  3.402907  0  0  -0.457204  0  3.413347  0  0  -0.33685  -0.413645  0  3.395152  0
N  N63  1  0.81361999  0.23125919  0.09755735  1  0  -0.501923  0  3.140973  0  0  -0.431282  0  3.402806  0  0  -0.457214  0  3.413237  0  0  -0.336846  -0.413647  0  3.395049  0
N  N64  1  0.23125856  0.81362145  0.59755658  1  0  -0.501916  0  3.140936  0  0  -0.431354  0  3.402784  0  0  -0.457284  0  3.41321  0  0  -0.336869  -0.413724  0  3.39504  0
N  N65  1  0.18638163  0.76873910  0.90244542  1  0  -0.502011  0  3.14099  0  0  -0.43141  0  3.40285  0  0  -0.457349  0  3.413273  0  0  -0.336898  -0.41377  0  3.395103  0
O  O66  1  0.00792968  0.15707381  0.45247655  1  0  -0.669275  0  2.025997  0  0  -0.608163  0  2.284472  0  0  -0.635529  0  2.271467  0  0  -0.33256  -0.588817  0  2.291924  0
O  O67  1  0.84291445  0.99207141  0.04752445  1  0  -0.669203  0  2.026389  0  0  -0.608092  0  2.284857  0  0  -0.635463  0  2.271836  0  0  -0.332554  -0.588757  0  2.292321  0
O  O68  1  0.99207438  0.84291767  0.54752468  1  0  -0.669167  0  2.02644  0  0  -0.608079  0  2.284899  0  0  -0.635444  0  2.271888  0  0  -0.332533  -0.588736  0  2.292356  0
O  O69  1  0.15708865  0.00792575  0.95247993  1  0  -0.669128  0  2.026474  0  0  -0.608016  0  2.284984  0  0  -0.635394  0  2.271961  0  0  -0.332487  -0.58867  0  2.292449  0
O  O70  1  0.77717276  0.69909464  0.43371024  1  0  -0.685373  0  2.104169  0  0  -0.606857  0  2.38191  0  0  -0.637924  0  2.367279  0  0  -0.329961  -0.584506  0  2.390263  0
O  O71  1  0.30090710  0.22282792  0.06629113  1  0  -0.685352  0  2.104307  0  0  -0.606879  0  2.382053  0  0  -0.63793  0  2.367376  0  0  -0.329998  -0.584531  0  2.390408  0
O  O72  1  0.22282424  0.30090482  0.56629341  1  0  -0.685306  0  2.10401  0  0  -0.606865  0  2.381818  0  0  -0.637895  0  2.367094  0  0  -0.329984  -0.584536  0  2.390223  0
O  O73  1  0.69909613  0.77716580  0.93370845  1  0  -0.685346  0  2.104297  0  0  -0.606868  0  2.381991  0  0  -0.637928  0  2.367344  0  0  -0.329977  -0.584521  0  2.390346  0
O  O74  1  0.52811927  0.74823327  0.40358355  1  0  -0.580888  0  1.98613  0  0  -0.529186  0  2.210535  0  0  -0.55188  0  2.201421  0  0  -0.298117  -0.512647  0  2.216485  0
O  O75  1  0.25177015  0.47188563  0.09641329  1  0  -0.580795  0  1.986197  0  0  -0.529124  0  2.210611  0  0  -0.551816  0  2.201493  0  0  -0.298115  -0.512584  0  2.216563  0
O  O76  1  0.47188075  0.25176601  0.59640463  1  0  -0.580848  0  1.986148  0  0  -0.529181  0  2.210535  0  0  -0.551876  0  2.201422  0  0  -0.298177  -0.512639  0  2.216488  0
O  O77  1  0.74823462  0.52810703  0.90359439  1  0  -0.580873  0  1.986129  0  0  -0.529199  0  2.21051  0  0  -0.551888  0  2.201397  0  0  -0.298187  -0.512657  0  2.21646  0
O  O78  1  0.38440496  0.27589292  0.33265596  1  0  -0.60612  0  1.972823  0  0  -0.549612  0  2.193483  0  0  -0.573077  0  2.184803  0  0  -0.302943  -0.533405  0  2.198845  0
O  O79  1  0.72410666  0.61560054  0.16734489  1  0  -0.606172  0  1.972673  0  0  -0.549608  0  2.193215  0  0  -0.573081  0  2.184567  0  0  -0.302935  -0.533403  0  2.198577  0
O  O80  1  0.61559022  0.72411444  0.66734594  1  0  -0.606107  0  1.972934  0  0  -0.549604  0  2.19363  0  0  -0.573064  0  2.184951  0  0  -0.302927  -0.5334  0  2.199001  0
O  O81  1  0.27589959  0.38439656  0.83265619  1  0  -0.606382  0  1.972612  0  0  -0.549682  0  2.193104  0  0  -0.573167  0  2.184465  0  0  -0.302966  -0.533473  0  2.198469  0
O  O82  1  0.58823632  0.06085483  0.31446999  1  0  -0.661146  0  2.065266  0  0  -0.590285  0  2.310473  0  0  -0.618112  0  2.298044  0  0  -0.316021  -0.571459  0  2.319472  0
O  O83  1  0.93914336  0.41176799  0.18552782  1  0  -0.661089  0  2.065315  0  0  -0.590257  0  2.310491  0  0  -0.618079  0  2.298066  0  0  -0.316042  -0.571441  0  2.31951  0
O  O84  1  0.41175733  0.93914802  0.68553284  1  0  -0.661305  0  2.065253  0  0  -0.590373  0  2.310427  0  0  -0.618202  0  2.298  0  0  -0.316063  -0.571544  0  2.31945  0
O  O85  1  0.06086120  0.58822802  0.81447494  1  0  -0.661087  0  2.06533  0  0  -0.590284  0  2.310573  0  0  -0.618111  0  2.298148  0  0  -0.316048  -0.571452  0  2.319559  0
O  O86  1  0.31821675  0.02186625  0.41896243  1  0  -0.853545  0  1.925142  0  0  -0.786921  0  2.1272  0  0  -0.809919  0  2.09274  0  0  -0.584208  -0.770503  0  2.15048  0
O  O87  1  0.97813097  0.68178682  0.08104053  1  0  -0.853708  0  1.924913  0  0  -0.787056  0  2.126964  0  0  -0.810067  0  2.092523  0  0  -0.584234  -0.770645  0  2.150242  0
O  O88  1  0.68177982  0.97813431  0.58103877  1  0  -0.853597  0  1.925022  0  0  -0.786965  0  2.127103  0  0  -0.80997  0  2.092655  0  0  -0.584242  -0.770552  0  2.150387  0
O  O89  1  0.02187311  0.31821024  0.91895491  1  0  -0.853717  0  1.924715  0  0  -0.787053  0  2.126835  0  0  -0.81007  0  2.092399  0  0  -0.584241  -0.77064  0  2.150116  0
O  O90  1  0.00746754  0.18664302  0.71309256  1  0  -0.841041  0  1.850466  0  0  -0.775969  0  2.041058  0  0  -0.798224  0  2.005674  0  0  -0.586646  -0.760066  0  2.06677  0
O  O91  1  0.81336499  0.99252555  0.78690739  1  0  -0.841103  0  1.850391  0  0  -0.776042  0  2.040994  0  0  -0.798295  0  2.005614  0  0  -0.586662  -0.760142  0  2.066704  0
O  O92  1  0.99252825  0.81336542  0.28690526  1  0  -0.840927  0  1.850594  0  0  -0.775927  0  2.041122  0  0  -0.798176  0  2.00574  0  0  -0.586633  -0.760022  0  2.066835  0
O  O93  1  0.18663370  0.00747501  0.21309458  1  0  -0.840979  0  1.85056  0  0  -0.775979  0  2.041078  0  0  -0.798236  0  2.005697  0  0  -0.586654  -0.760082  0  2.066783  0
O  O94  1  0.89955581  0.49377917  0.67807849  1  0  -0.845101  0  1.893311  0  0  -0.772891  0  2.085116  0  0  -0.796493  0  2.050944  0  0  -0.567072  -0.755866  0  2.109874  0
O  O95  1  0.50622599  0.10044097  0.82191908  1  0  -0.845012  0  1.893276  0  0  -0.772864  0  2.085134  0  0  -0.796463  0  2.050967  0  0  -0.567107  -0.75584  0  2.109903  0
O  O96  1  0.10044120  0.50622587  0.32191937  1  0  -0.844997  0  1.893363  0  0  -0.772847  0  2.085137  0  0  -0.796452  0  2.050977  0  0  -0.567076  -0.755822  0  2.10989  0
O  O97  1  0.49377333  0.89956070  0.17808123  1  0  -0.845052  0  1.893265  0  0  -0.772933  0  2.085076  0  0  -0.796533  0  2.050911  0  0  -0.567115  -0.755905  0  2.109831  0
