# generated using pymatgen
data_CdH22C26(NO)4
_symmetry_space_group_name_H-M   'P 1'
_cell_length_a   5.03566713
_cell_length_b   8.99171918
_cell_length_c   12.80825075
_cell_angle_alpha   102.57763803
_cell_angle_beta   91.12545223
_cell_angle_gamma   100.78449849
_symmetry_Int_Tables_number   1
_chemical_formula_structural   CdH22C26(NO)4
_chemical_formula_sum   'Cd1 H22 C26 N4 O4'
_cell_volume   554.92965015
_cell_formula_units_Z   1
loop_
 _symmetry_equiv_pos_site_id
 _symmetry_equiv_pos_as_xyz
  1  'x, y, z'
loop_
 _atom_site_type_symbol
 _atom_site_label
 _atom_site_symmetry_multiplicity
 _atom_site_fract_x
 _atom_site_fract_y
 _atom_site_fract_z
 _atom_site_occupancy
 _atom_site_pbe_bader_spin_density
 _atom_site_pbe_cm5_charge
 _atom_site_pbe_ddec_charge
 _atom_site_pbe_ddec_spin_density
 _atom_site_pbe_ddec_sum_bond_order
 _atom_site_pbe_magmom
Cd  Cd0  1  0.00000482  0.00000410  0.50000152  1  0  0.77616  0.934208  0  2.143482  0
H  H1  1  0.32648283  0.23775856  0.37847175  1  0  0.116328  0.089063  0  1.030172  0
H  H2  1  0.67351644  0.76224659  0.62153164  1  0  0.11633  0.089058  0  1.030192  0
H  H3  1  0.01758207  0.17554476  0.05187696  1  0  0.108432  0.108913  0  1.025741  0
H  H4  1  0.98242584  0.82444526  0.94812419  1  0  0.10846  0.108944  0  1.025732  0
H  H5  1  0.60922686  0.99502324  0.09536152  1  0  0.107892  0.112969  0  1.004277  0
H  H6  1  0.39077357  0.00497378  0.90464299  1  0  0.1079  0.11299  0  1.004218  0
H  H7  1  0.58494630  0.94820696  0.28231673  1  0  0.116774  0.094687  0  1.034373  0
H  H8  1  0.41504706  0.05179823  0.71769209  1  0  0.116788  0.094728  0  1.03439  0
H  H9  1  0.58801796  0.37878332  0.26833392  1  0  0.10914  0.067485  0  0.99234  0
H  H10  1  0.41197215  0.62121836  0.73166810  1  0  0.109145  0.067478  0  0.992353  0
H  H11  1  0.70658035  0.62664469  0.25084798  1  0  0.101411  0.112011  0  1.031061  0
H  H12  1  0.29340814  0.37335235  0.74915333  1  0  0.101417  0.11199  0  1.031096  0
H  H13  1  0.12755890  0.80888784  0.23779941  1  0  0.097077  0.102662  0  1.043821  0
H  H14  1  0.87243794  0.19111034  0.76220291  1  0  0.097058  0.102666  0  1.043904  0
H  H15  1  0.39779734  0.76282572  0.07573643  1  0  0.094503  0.088087  0  1.064175  0
H  H16  1  0.60220301  0.23715967  0.92426476  1  0  0.094528  0.088116  0  1.064021  0
H  H17  1  0.80498811  0.44556300  0.66302823  1  0  0.092045  0.145082  0  1.025267  0
H  H18  1  0.19504704  0.55447694  0.33697364  1  0  0.092059  0.145181  0  1.025714  0
H  H19  1  0.68095046  0.46083266  0.53545752  1  0  0.087492  0.1384  0  1.031997  0
H  H20  1  0.31903958  0.53918638  0.46452527  1  0  0.087449  0.13845  0  1.03235  0
H  H21  1  0.96338910  0.36666510  0.54843932  1  0  0.093113  0.156957  0  1.034424  0
H  H22  1  0.03663779  0.63334572  0.45154090  1  0  0.093133  0.15698  0  1.034672  0
C  C23  1  0.17230421  0.18628092  0.31305850  1  0  0.053542  0.052573  0  3.912447  0
C  C24  1  0.82769781  0.81372074  0.68694360  1  0  0.0535  0.052481  0  3.912779  0
C  C25  1  0.20367581  0.22153016  0.21214675  1  0  -0.008908  0.01129  0  4.035852  0
C  C26  1  0.79631821  0.77846569  0.78785207  1  0  -0.008954  0.011258  0  4.035713  0
C  C27  1  0.99872153  0.15011509  0.13114166  1  0  -0.058771  -0.057017  0  3.899676  0
C  C28  1  0.00127964  0.84987843  0.86885920  1  0  -0.058745  -0.056962  0  3.899722  0
C  C29  1  0.77426491  0.05086625  0.15547500  1  0  -0.082454  -0.127657  0  3.990672  0
C  C30  1  0.22572118  0.94912383  0.84452836  1  0  -0.082489  -0.127733  0  3.990649  0
C  C31  1  0.75864639  0.02337847  0.25869135  1  0  0.051228  0.091993  0  3.923952  0
C  C32  1  0.24135962  0.97662319  0.74131312  1  0  0.051241  0.091952  0  3.923642  0
C  C33  1  0.44743627  0.32881628  0.19665507  1  0  0.076627  0.077908  0  3.989004  0
C  C34  1  0.55255941  0.67118424  0.80334916  1  0  0.076591  0.07782  0  3.989236  0
C  C35  1  0.73321257  0.47096748  0.09911479  1  0  0.093289  0.162324  0  4.037403  0
C  C36  1  0.26677944  0.52902256  0.90088392  1  0  0.093344  0.162394  0  4.037184  0
C  C37  1  0.82181286  0.60351941  0.17996564  1  0  -0.094033  -0.169647  0  3.960276  0
C  C38  1  0.17817681  0.39647529  0.82003454  1  0  -0.094145  -0.169787  0  3.960557  0
C  C39  1  0.05961968  0.70945506  0.17126534  1  0  -0.098339  -0.07253  0  4.030494  0
C  C40  1  0.94037552  0.29053846  0.82873314  1  0  -0.09829  -0.072415  0  4.030411  0
C  C41  1  0.20861661  0.68479350  0.08196962  1  0  -0.097852  -0.136  0  4.00485  0
C  C42  1  0.79137502  0.31519540  0.91803204  1  0  -0.097824  -0.136055  0  4.004599  0
C  C43  1  0.87874439  0.44573152  0.00363710  1  0  -0.002503  0.015603  0  3.954681  0
C  C44  1  0.12125358  0.55425852  0.99636243  1  0  -0.002448  0.015766  0  3.954588  0
C  C45  1  0.57356490  0.23262589  0.57235971  1  0  0.204687  0.685826  0  4.140502  0
C  C46  1  0.42645065  0.76739199  0.42763713  1  0  0.204441  0.685088  0  4.140521  0
C  C47  1  0.76688170  0.38560849  0.57792070  1  0  -0.256553  -0.537237  0  3.88528  0
C  C48  1  0.23307957  0.61436761  0.42206476  1  0  -0.256631  -0.537253  0  3.885586  0
N  N49  1  0.95635310  0.08951422  0.33618460  1  0  -0.319875  -0.235593  0  3.472381  0
N  N50  1  0.04363619  0.91047933  0.66381931  1  0  -0.31984  -0.235459  0  3.472228  0
N  N51  1  0.50075841  0.36153375  0.10549261  1  0  -0.300246  -0.267881  0  3.370861  0
N  N52  1  0.49924237  0.63846441  0.89450583  1  0  -0.300196  -0.267778  0  3.37087  0
O  O53  1  0.66690607  0.11722952  0.58879110  1  0  -0.340033  -0.597515  0  2.298978  0
O  O54  1  0.33310010  0.88280120  0.41121543  1  0  -0.339813  -0.597074  0  2.299085  0
O  O55  1  0.32097177  0.23000770  0.55631357  1  0  -0.332147  -0.579986  0  2.234958  0
O  O56  1  0.67905688  0.77000204  0.44368837  1  0  -0.33204  -0.579804  0  2.235237  0
