# generated using pymatgen
data_Zn2H23C37N7O8
_symmetry_space_group_name_H-M   'P 1'
_cell_length_a   7.86157566
_cell_length_b   17.70904335
_cell_length_c   25.96989721
_cell_angle_alpha   95.75060235
_cell_angle_beta   89.99987396
_cell_angle_gamma   89.99989817
_symmetry_Int_Tables_number   1
_chemical_formula_structural   Zn2H23C37N7O8
_chemical_formula_sum   'Zn8 H92 C148 N28 O32'
_cell_volume   3597.35924362
_cell_formula_units_Z   4
loop_
 _symmetry_equiv_pos_site_id
 _symmetry_equiv_pos_as_xyz
  1  'x, y, z'
loop_
 _atom_site_type_symbol
 _atom_site_label
 _atom_site_symmetry_multiplicity
 _atom_site_fract_x
 _atom_site_fract_y
 _atom_site_fract_z
 _atom_site_occupancy
 _atom_site_pbe_bader_charge
 _atom_site_pbe_bader_spin_density
 _atom_site_pbe_cm5_charge
 _atom_site_pbe_ddec_charge
 _atom_site_pbe_ddec_spin_density
 _atom_site_pbe_ddec_sum_bond_order
 _atom_site_pbe_magmom
Zn  Zn0  1  0.43033309  0.19607778  0.02392970  1  1.298034  0  0.702043  0.891335  0  2.231919  0
Zn  Zn1  1  0.98292216  0.30332601  0.95918984  1  1.266417  0  0.724955  0.811282  0  2.391742  0
Zn  Zn2  1  0.93033424  0.80392527  0.47606959  1  1.298077  0  0.702047  0.891322  0  2.231924  0
Zn  Zn3  1  0.48292264  0.69667466  0.54080943  1  1.266336  0  0.724984  0.811272  0  2.391725  0
Zn  Zn4  1  0.56966930  0.80392372  0.97607046  1  1.298047  0  0.702067  0.89136  0  2.231801  0
Zn  Zn5  1  0.01707642  0.69667320  0.04080943  1  1.266389  0  0.724951  0.811224  0  2.391776  0
Zn  Zn6  1  0.06966815  0.19607734  0.52392987  1  1.298029  0  0.702043  0.89131  0  2.231916  0
Zn  Zn7  1  0.51707721  0.30332573  0.45919144  1  1.266372  0  0.724998  0.811314  0  2.391782  0
H  H8  1  0.29178760  0.04533229  0.98607373  1  0.089715  0  0.103735  0.106549  0  1.032501  0
H  H9  1  0.65010894  0.45049324  0.07322462  1  0.106656  0  0.097626  0.102602  0  1.03641  0
H  H10  1  0.33499833  0.77476504  0.09433483  1  0.182632  0  0.145211  0.122057  0  0.989315  0
H  H11  1  0.11640894  0.56142114  0.11162742  1  0.13667  0  0.122217  0.127526  0  1.012904  0
H  H12  1  0.42749902  0.57330872  0.16523486  1  0.130449  0  0.130792  0.134034  0  0.987304  0
H  H13  1  0.63586551  0.77396417  0.09173318  1  0.167859  0  0.112188  0.13167  0  1.029627  0
H  H14  1  0.89369778  0.83476740  0.13025441  1  0.063973  0  0.104416  0.115794  0  1.024761  0
H  H15  1  0.81323906  0.72422923  0.26887460  1  0.101413  0  0.102221  0.110618  0  1.023184  0
H  H16  1  0.54963314  0.66591299  0.23093265  1  0.064485  0  0.100547  0.101797  0  1.019729  0
H  H17  1  0.11341525  0.67418224  0.22259282  1  0.08433  0  0.108496  0.118456  0  1.007997  0
H  H18  1  0.25149938  0.61566779  0.29469004  1  0.063813  0  0.11057  0.115924  0  0.993002  0
H  H19  1  0.26895820  0.83470027  0.38416986  1  0.132291  0  0.110091  0.123316  0  1.015487  0
H  H20  1  0.12309701  0.89157394  0.31293385  1  0.061815  0  0.104924  0.111055  0  1.002318  0
H  H21  1  0.28030696  0.76845854  0.45006530  1  0.218005  0  0.133643  0.107209  0  1.076866  0
H  H22  1  0.46904342  0.58728826  0.34571189  1  0.123456  0  0.127925  0.127636  0  0.996143  0
H  H23  1  0.57970793  0.57020805  0.44523746  1  0.142093  0  0.127938  0.123738  0  0.98869  0
H  H24  1  0.82911730  0.94404964  0.21891202  1  0.105507  0  0.105845  0.114949  0  1.002596  0
H  H25  1  0.92092907  0.06298067  0.18383585  1  0.071386  0  0.103498  0.109175  0  1.032414  0
H  H26  1  0.42484355  0.97024752  0.15868372  1  0.093778  0  0.113763  0.12497  0  0.984623  0
H  H27  1  0.33262169  0.85175325  0.19371436  1  0.106535  0  0.105865  0.112102  0  1.010608  0
H  H28  1  0.08031742  0.17610311  0.19219588  1  0.105284  0  0.12175  0.12137  0  1.026469  0
H  H29  1  0.38691949  0.04231960  0.08417911  1  0.212957  0  0.137021  0.116045  0  1.031898  0
H  H30  1  0.21661334  0.26795470  0.12027151  1  0.17193  0  0.121438  0.129875  0  1.0244  0
H  H31  1  0.79178269  0.95466971  0.51392689  1  0.089668  0  0.103723  0.106556  0  1.03248  0
H  H32  1  0.15010968  0.54950844  0.42677747  1  0.106743  0  0.097618  0.10257  0  1.036461  0
H  H33  1  0.83499603  0.22523128  0.40566377  1  0.182558  0  0.145261  0.122177  0  0.989432  0
H  H34  1  0.61640589  0.43857721  0.38837606  1  0.136682  0  0.122222  0.127528  0  1.012947  0
H  H35  1  0.92749388  0.42668986  0.33476611  1  0.13048  0  0.130786  0.134011  0  0.987289  0
H  H36  1  0.13586645  0.22603577  0.40826690  1  0.167857  0  0.112188  0.131684  0  1.029599  0
H  H37  1  0.39370052  0.16523402  0.36974597  1  0.063974  0  0.104417  0.115766  0  1.024789  0
H  H38  1  0.31323730  0.27576888  0.23112642  1  0.101445  0  0.102221  0.110613  0  1.023196  0
H  H39  1  0.04962704  0.33408473  0.26906660  1  0.064999  0  0.100562  0.101823  0  1.019743  0
H  H40  1  0.61341477  0.32581945  0.27740853  1  0.08429  0  0.108489  0.118459  0  1.007976  0
H  H41  1  0.75149411  0.38433374  0.20531005  1  0.063769  0  0.110536  0.115889  0  0.992961  0
H  H42  1  0.76895831  0.16530237  0.11582951  1  0.132308  0  0.110039  0.123254  0  1.01546  0
H  H43  1  0.62309936  0.10842770  0.18706595  1  0.061874  0  0.104935  0.111038  0  1.002285  0
H  H44  1  0.78029966  0.23154297  0.04993477  1  0.218367  0  0.133607  0.10713  0  1.076982  0
H  H45  1  0.96903587  0.41271302  0.15428574  1  0.123643  0  0.127943  0.127666  0  0.996182  0
H  H46  1  0.07970177  0.42979187  0.05476073  1  0.1421  0  0.127879  0.123675  0  0.988764  0
H  H47  1  0.32911861  0.05595238  0.28108766  1  0.105525  0  0.105863  0.114999  0  1.002604  0
H  H48  1  0.42092651  0.93702072  0.31616412  1  0.071406  0  0.1035  0.109194  0  1.032392  0
H  H49  1  0.92484380  0.02975103  0.34131610  1  0.093766  0  0.113758  0.124956  0  0.984575  0
H  H50  1  0.83262426  0.14824594  0.30628517  1  0.10652  0  0.105859  0.112088  0  1.010659  0
H  H51  1  0.58031467  0.82389748  0.30780543  1  0.105282  0  0.121744  0.121356  0  1.026468  0
H  H52  1  0.88691665  0.95768014  0.41582156  1  0.212972  0  0.137035  0.11607  0  1.031862  0
H  H53  1  0.71660915  0.73204635  0.37973011  1  0.171877  0  0.121453  0.129883  0  1.024374  0
H  H54  1  0.70822116  0.95466979  0.01392685  1  0.089706  0  0.103719  0.106537  0  1.032426  0
H  H55  1  0.34988583  0.54950772  0.92677628  1  0.106692  0  0.097632  0.10259  0  1.036498  0
H  H56  1  0.66499261  0.22523363  0.90566557  1  0.182553  0  0.145241  0.122154  0  0.989419  0
H  H57  1  0.88358074  0.43857870  0.88837420  1  0.13656  0  0.122241  0.127573  0  1.012928  0
H  H58  1  0.57249701  0.42668938  0.83476511  1  0.130745  0  0.130778  0.133999  0  0.987275  0
H  H59  1  0.36412670  0.22603452  0.90826760  1  0.167847  0  0.112198  0.131781  0  1.02945  0
H  H60  1  0.10629316  0.16523068  0.86974518  1  0.064007  0  0.104378  0.115809  0  1.02469  0
H  H61  1  0.18676079  0.27576834  0.73112650  1  0.101426  0  0.102253  0.110656  0  1.023193  0
H  H62  1  0.45036290  0.33408513  0.76906810  1  0.064558  0  0.100504  0.101708  0  1.019717  0
H  H63  1  0.88658460  0.32581701  0.77740799  1  0.084309  0  0.108478  0.118449  0  1.00793  0
H  H64  1  0.74850301  0.38433091  0.70531112  1  0.063794  0  0.110588  0.115949  0  0.993009  0
H  H65  1  0.73104546  0.16530057  0.61582719  1  0.132268  0  0.110118  0.123406  0  1.015471  0
H  H66  1  0.87690666  0.10842632  0.68706278  1  0.06183  0  0.104958  0.111093  0  1.002305  0
H  H67  1  0.71970052  0.23154465  0.54993457  1  0.218395  0  0.133621  0.107175  0  1.076924  0
H  H68  1  0.53096278  0.41271323  0.65428789  1  0.123602  0  0.127946  0.127629  0  0.996185  0
H  H69  1  0.42029447  0.42979400  0.55476235  1  0.142081  0  0.127897  0.123716  0  0.988699  0
H  H70  1  0.17088510  0.05595122  0.78108580  1  0.10546  0  0.105835  0.114944  0  1.002592  0
H  H71  1  0.07907587  0.93701913  0.81616422  1  0.071329  0  0.103479  0.109174  0  1.032472  0
H  H72  1  0.57515757  0.02975000  0.84131584  1  0.09375  0  0.11376  0.124967  0  0.984611  0
H  H73  1  0.66737562  0.14824367  0.80628402  1  0.106597  0  0.105868  0.112099  0  1.01066  0
H  H74  1  0.91968751  0.82389607  0.80780262  1  0.105215  0  0.121748  0.121407  0  1.026469  0
H  H75  1  0.61309181  0.95767963  0.91582093  1  0.213046  0  0.137036  0.116051  0  1.031913  0
H  H76  1  0.78339542  0.73204508  0.87972778  1  0.171808  0  0.12144  0.129843  0  1.024519  0
H  H77  1  0.20821843  0.04533176  0.48607250  1  0.089661  0  0.103715  0.106546  0  1.032531  0
H  H78  1  0.84988890  0.45049028  0.57322447  1  0.106688  0  0.097622  0.1026  0  1.036454  0
H  H79  1  0.16499492  0.77476449  0.59433416  1  0.182619  0  0.145198  0.122096  0  0.98937  0
H  H80  1  0.38359142  0.56142094  0.61162585  1  0.136645  0  0.122209  0.127545  0  1.012927  0
H  H81  1  0.07249834  0.57330593  0.66523259  1  0.130351  0  0.130797  0.134061  0  0.987288  0
H  H82  1  0.86412831  0.77396399  0.59173202  1  0.167818  0  0.112158  0.131658  0  1.029586  0
H  H83  1  0.60629551  0.83476864  0.63025503  1  0.063931  0  0.10439  0.11579  0  1.024711  0
H  H84  1  0.68675746  0.72422978  0.76887359  1  0.101424  0  0.102204  0.11056  0  1.023202  0
H  H85  1  0.95036136  0.66591103  0.73093094  1  0.064249  0  0.100476  0.101694  0  1.019724  0
H  H86  1  0.38658127  0.67418316  0.72259093  1  0.084288  0  0.10849  0.118484  0  1.007969  0
H  H87  1  0.24850193  0.61566997  0.79468831  1  0.06384  0  0.110582  0.11595  0  0.993002  0
H  H88  1  0.23104408  0.83470033  0.88417264  1  0.132223  0  0.110105  0.123373  0  1.015468  0
H  H89  1  0.37690558  0.89157385  0.81293576  1  0.061805  0  0.104948  0.111059  0  1.002298  0
H  H90  1  0.21970274  0.76845626  0.95006527  1  0.218374  0  0.133621  0.107161  0  1.076947  0
H  H91  1  0.03096398  0.58728787  0.84571285  1  0.123636  0  0.127942  0.127634  0  0.996192  0
H  H92  1  0.92029808  0.57020674  0.94523773  1  0.14213  0  0.127911  0.123744  0  0.988708  0
H  H93  1  0.67088251  0.94405141  0.71891339  1  0.105541  0  0.105844  0.114946  0  1.002622  0
H  H94  1  0.57907334  0.06298246  0.68383536  1  0.071331  0  0.103479  0.109136  0  1.032426  0
H  H95  1  0.07515860  0.97024929  0.65868246  1  0.093779  0  0.113726  0.124954  0  0.984601  0
H  H96  1  0.16737941  0.85175443  0.69371494  1  0.106565  0  0.105866  0.11212  0  1.010652  0
H  H97  1  0.41968645  0.17610290  0.69219506  1  0.105267  0  0.121775  0.121423  0  1.026431  0
H  H98  1  0.11308447  0.04232136  0.58417860  1  0.212998  0  0.137019  0.116071  0  1.031942  0
H  H99  1  0.28339070  0.26795577  0.62027162  1  0.171803  0  0.121449  0.129855  0  1.024451  0
C  C100  1  0.02707852  0.07373682  0.98626594  1  0.015005  0  -0.015165  -0.055754  0  3.955434  0
C  C101  1  0.16367080  0.02493435  0.99302104  1  0.03494  0  -0.085529  -0.131421  0  3.97384  0
C  C102  1  0.85901101  0.04841720  0.99290724  1  -0.086482  0  -0.005132  -0.023311  0  3.912142  0
C  C103  1  0.06801422  0.15185417  0.97317666  1  1.541585  0  0.22047  0.591467  0  4.166374  0
C  C104  1  0.69669234  0.09250997  0.98589183  1  1.620698  0  0.206438  0.593361  0  4.230422  0
C  C105  1  0.44888377  0.34453582  0.02541706  1  1.58877  0  0.19944  0.593821  0  4.209672  0
C  C106  1  0.47164500  0.42404446  0.01062538  1  -0.034407  0  -0.008678  -0.025411  0  3.923189  0
C  C107  1  0.25076472  0.41044725  0.93819849  1  1.602827  0  0.197901  0.57383  0  4.239779  0
C  C108  1  0.38750173  0.45374613  0.96910211  1  -0.108733  0  -0.01768  -0.054574  0  3.954533  0
C  C109  1  0.58211501  0.47140100  0.04095479  1  0.034779  0  -0.08952  -0.130428  0  3.980935  0
C  C110  1  0.31623372  0.71840902  0.10619041  1  0.985235  0  0.157284  0.125602  0  3.872708  0
C  C111  1  0.21013559  0.60649310  0.11610110  1  0.428376  0  0.005904  -0.02182  0  3.977754  0
C  C112  1  0.35846833  0.61291778  0.14394903  1  0.274696  0  0.004046  -0.105913  0  3.918164  0
C  C113  1  0.57469189  0.71752317  0.15950177  1  0.235074  0  0.084928  0.14697  0  4.034404  0
C  C114  1  0.67042461  0.76556520  0.13132830  1  0.036095  0  -0.085799  -0.139217  0  3.975291  0
C  C115  1  0.81699432  0.79901663  0.15283478  1  -0.059961  0  -0.09732  -0.166507  0  3.985151  0
C  C116  1  0.87044400  0.78493160  0.20259798  1  0.334533  0  0.092793  0.18135  0  4.034612  0
C  C117  1  0.77379035  0.73570791  0.23027218  1  -0.010682  0  -0.102816  -0.175231  0  4.014144  0
C  C118  1  0.62656937  0.70245772  0.20884401  1  0.012573  0  -0.094316  -0.14943  0  4.024969  0
C  C119  1  0.10941567  0.78682425  0.26314850  1  0.416059  0  0.090647  0.173105  0  4.04767  0
C  C120  1  0.14838259  0.70911916  0.25796688  1  -0.002124  0  -0.090661  -0.155311  0  3.993853  0
C  C121  1  0.22718732  0.67653614  0.29826264  1  -0.02931  0  -0.090194  -0.15657  0  4.001886  0
C  C122  1  0.27176082  0.72135695  0.34374332  1  0.293953  0  0.094197  0.163841  0  4.01109  0
C  C123  1  0.23721922  0.79935876  0.34868066  1  -0.0408  0  -0.089084  -0.156689  0  3.994965  0
C  C124  1  0.15566441  0.83140687  0.30867596  1  -0.054448  0  -0.093997  -0.160792  0  4.003277  0
C  C125  1  0.34680142  0.71685886  0.43564761  1  0.94513  0  0.145857  0.102765  0  3.873551  0
C  C126  1  0.44606437  0.62142948  0.38192443  1  0.295845  0  0.003421  -0.109823  0  3.909472  0
C  C127  1  0.49801943  0.61295504  0.43132470  1  0.42304  0  0.017498  0.012572  0  3.966699  0
C  C128  1  0.07429039  0.88979887  0.20796277  1  0.362962  0  0.093168  0.17269  0  4.042584  0
C  C129  1  0.95986339  0.95029305  0.20607847  1  -0.047481  0  -0.092393  -0.156273  0  4.004042  0
C  C130  1  0.01113826  0.01683517  0.18649257  1  -0.021001  0  -0.091834  -0.151829  0  3.990165  0
C  C131  1  0.17828801  0.02395417  0.16904507  1  0.344504  0  0.09072  0.154982  0  4.015083  0
C  C132  1  0.29515958  0.96516120  0.17262065  1  0.016752  0  -0.082216  -0.137481  0  3.989001  0
C  C133  1  0.24312046  0.89848535  0.19207149  1  -0.104155  0  -0.086635  -0.146102  0  3.965565  0
C  C134  1  0.16211543  0.16312631  0.15901201  1  0.30489  0  -0.001175  -0.106286  0  3.92426  0
C  C135  1  0.32761950  0.09280905  0.10372567  1  0.92025  0  0.148069  0.104243  0  3.868641  0
C  C136  1  0.22938951  0.20773192  0.12392842  1  0.387971  0  0.002285  -0.022174  0  3.967985  0
C  C137  1  0.52707373  0.92626367  0.51373324  1  0.014903  0  -0.015133  -0.055736  0  3.955412  0
C  C138  1  0.66366586  0.97506661  0.50697884  1  0.035097  0  -0.085486  -0.131377  0  3.97392  0
C  C139  1  0.35900561  0.95158360  0.50709289  1  -0.08608  0  -0.005118  -0.023324  0  3.912245  0
C  C140  1  0.56801219  0.84814572  0.52682284  1  1.541616  0  0.220416  0.591375  0  4.166377  0
C  C141  1  0.19668961  0.90748983  0.51410796  1  1.620541  0  0.206451  0.593486  0  4.230349  0
C  C142  1  0.94888173  0.65546674  0.47458527  1  1.589586  0  0.199371  0.593652  0  4.209944  0
C  C143  1  0.97164445  0.57595580  0.48937604  1  -0.034363  0  -0.008694  -0.025466  0  3.923052  0
C  C144  1  0.75077112  0.58955306  0.56180130  1  1.603803  0  0.197907  0.573745  0  4.240124  0
C  C145  1  0.88749837  0.54625350  0.53089755  1  -0.108799  0  -0.017628  -0.054466  0  3.95467  0
C  C146  1  0.08211433  0.52859956  0.45904574  1  0.034665  0  -0.089508  -0.130334  0  3.981008  0
C  C147  1  0.81623000  0.28158734  0.39380898  1  0.985206  0  0.157277  0.125486  0  3.872757  0
C  C148  1  0.71013657  0.39350571  0.38390118  1  0.42839  0  0.005912  -0.021788  0  3.977714  0
C  C149  1  0.85846573  0.38708088  0.35605276  1  0.274724  0  0.0041  -0.105893  0  3.918064  0
C  C150  1  0.07468801  0.28247625  0.34049832  1  0.235032  0  0.084969  0.147049  0  4.034343  0
C  C151  1  0.17042326  0.23443584  0.36867182  1  0.03635  0  -0.085805  -0.1393  0  3.975267  0
C  C152  1  0.31699454  0.20098487  0.34716604  1  -0.060193  0  -0.097294  -0.166352  0  3.985094  0
C  C153  1  0.37044327  0.21506759  0.29740267  1  0.334567  0  0.09272  0.181194  0  4.034707  0
C  C154  1  0.27378580  0.26428963  0.26972768  1  -0.010796  0  -0.102825  -0.175214  0  4.014058  0
C  C155  1  0.12656326  0.29754051  0.29115560  1  0.012134  0  -0.094324  -0.149511  0  4.024952  0
C  C156  1  0.60941595  0.21317743  0.23685247  1  0.374092  0  0.090637  0.1731  0  4.047692  0
C  C157  1  0.64838124  0.29088249  0.24203405  1  0.039482  0  -0.090693  -0.155421  0  3.993835  0
C  C158  1  0.72718232  0.32346597  0.20173712  1  -0.028883  0  -0.09012  -0.156407  0  4.001748  0
C  C159  1  0.77175253  0.27864567  0.15625566  1  0.293579  0  0.094199  0.163754  0  4.011218  0
C  C160  1  0.73721383  0.20064390  0.15131873  1  -0.040759  0  -0.089029  -0.156691  0  3.994889  0
C  C161  1  0.65566521  0.16859532  0.19132423  1  -0.054388  0  -0.093964  -0.16065  0  4.00321  0
C  C162  1  0.84679126  0.28314257  0.06435164  1  0.944492  0  0.145925  0.102829  0  3.873592  0
C  C163  1  0.94605595  0.37857185  0.11807437  1  0.295572  0  0.003337  -0.110046  0  3.909704  0
C  C164  1  0.99801008  0.38704678  0.06867294  1  0.422788  0  0.017594  0.012792  0  3.96675  0
C  C165  1  0.57429322  0.11020169  0.29203738  1  0.362893  0  0.093187  0.172773  0  4.042507  0
C  C166  1  0.45986463  0.04970717  0.29392141  1  -0.047478  0  -0.092464  -0.156491  0  4.004185  0
C  C167  1  0.51113735  0.98316543  0.31350724  1  -0.021019  0  -0.09181  -0.151743  0  3.990188  0
C  C168  1  0.67828572  0.97604631  0.33095540  1  0.344543  0  0.090706  0.154849  0  4.015195  0
C  C169  1  0.79516118  0.03483803  0.32737929  1  0.016836  0  -0.082178  -0.137284  0  3.989001  0
C  C170  1  0.74312448  0.10151334  0.30792806  1  -0.10424  0  -0.086708  -0.146276  0  3.965769  0
C  C171  1  0.66211110  0.83687363  0.34098882  1  0.304745  0  -0.001146  -0.10628  0  3.924189  0
C  C172  1  0.82761574  0.90719130  0.39627469  1  0.919787  0  0.148072  0.104172  0  3.868642  0
C  C173  1  0.72938765  0.79226853  0.37607240  1  0.388277  0  0.002284  -0.022196  0  3.967962  0
C  C174  1  0.97293024  0.92626470  0.01373500  1  0.014139  0  -0.015129  -0.055714  0  3.95527  0
C  C175  1  0.83633668  0.97506716  0.00697951  1  0.035936  0  -0.085466  -0.13136  0  3.973716  0
C  C176  1  0.14099902  0.95158492  0.00709450  1  -0.086218  0  -0.005088  -0.023296  0  3.912191  0
C  C177  1  0.93199072  0.84814621  0.02682421  1  1.541613  0  0.220495  0.591508  0  4.166228  0
C  C178  1  0.30331642  0.90749098  0.01410869  1  1.620756  0  0.206421  0.593379  0  4.230503  0
C  C179  1  0.55111354  0.65546741  0.97458436  1  1.589224  0  0.199389  0.593647  0  4.209908  0
C  C180  1  0.52835358  0.57595533  0.98937431  1  -0.034346  0  -0.008686  -0.025382  0  3.92306  0
C  C181  1  0.74922750  0.58955256  0.06180197  1  1.603311  0  0.197857  0.573658  0  4.240158  0
C  C182  1  0.61249685  0.54625478  0.03089725  1  -0.108856  0  -0.017614  -0.054505  0  3.954516  0
C  C183  1  0.41788229  0.52859992  0.95904495  1  0.034774  0  -0.089465  -0.130312  0  3.981105  0
C  C184  1  0.68375850  0.28158910  0.89381035  1  0.985169  0  0.15722  0.125475  0  3.872715  0
C  C185  1  0.78985409  0.39350617  0.88390010  1  0.42837  0  0.005789  -0.022032  0  3.977846  0
C  C186  1  0.64152643  0.38707865  0.85605202  1  0.274235  0  0.00419  -0.105694  0  3.918165  0
C  C187  1  0.42530287  0.28247495  0.84049898  1  0.235124  0  0.084951  0.146916  0  4.034523  0
C  C188  1  0.32956888  0.23443293  0.86867284  1  0.036454  0  -0.085829  -0.139402  0  3.975304  0
C  C189  1  0.18299917  0.20098202  0.84716484  1  -0.060149  0  -0.097252  -0.166383  0  3.985097  0
C  C190  1  0.12954949  0.21506593  0.79740197  1  0.334195  0  0.092674  0.181161  0  4.034605  0
C  C191  1  0.22620696  0.26428790  0.76972729  1  -0.010717  0  -0.102824  -0.175281  0  4.014009  0
C  C192  1  0.37342920  0.29753986  0.79115748  1  0.012744  0  -0.094264  -0.149233  0  4.024784  0
C  C193  1  0.89058418  0.21317491  0.73684923  1  0.416335  0  0.090659  0.173231  0  4.047475  0
C  C194  1  0.85161853  0.29087837  0.74203307  1  -0.002171  0  -0.090619  -0.155317  0  3.993679  0
C  C195  1  0.77281634  0.32346478  0.70173711  1  -0.028906  0  -0.090216  -0.156601  0  4.00182  0
C  C196  1  0.72824666  0.27864563  0.65625498  1  0.293574  0  0.09425  0.163887  0  4.0111  0
C  C197  1  0.76278699  0.20064322  0.65131645  1  -0.040825  0  -0.089106  -0.156863  0  3.994986  0
C  C198  1  0.84434180  0.16859342  0.69132182  1  -0.05446  0  -0.094041  -0.160848  0  4.003421  0
C  C199  1  0.65320733  0.28314319  0.56435219  1  0.944539  0  0.145916  0.102759  0  3.873579  0
C  C200  1  0.55394057  0.37857201  0.61807535  1  0.295775  0  0.003374  -0.109874  0  3.909735  0
C  C201  1  0.50198678  0.38704815  0.56867517  1  0.423  0  0.01759  0.01267  0  3.966699  0
C  C202  1  0.92570691  0.11019921  0.79203682  1  0.36217  0  0.093238  0.172753  0  4.042425  0
C  C203  1  0.04013774  0.04970557  0.79392000  1  -0.047431  0  -0.092425  -0.156358  0  4.004014  0
C  C204  1  0.98886795  0.98316405  0.81350708  1  -0.021032  0  -0.091814  -0.1518  0  3.990273  0
C  C205  1  0.82171693  0.97604451  0.83095532  1  0.344528  0  0.090729  0.154869  0  4.01532  0
C  C206  1  0.70483900  0.03483574  0.82737850  1  0.016853  0  -0.082124  -0.137237  0  3.989128  0
C  C207  1  0.75687685  0.10151044  0.80792720  1  -0.103518  0  -0.086752  -0.146308  0  3.965882  0
C  C208  1  0.83789205  0.83687233  0.84098722  1  0.304966  0  -0.001202  -0.106454  0  3.924338  0
C  C209  1  0.67239307  0.90719021  0.89627514  1  0.919585  0  0.148061  0.104124  0  3.868748  0
C  C210  1  0.77061797  0.79226729  0.87607085  1  0.387977  0  0.002336  -0.022112  0  3.968114  0
C  C211  1  0.47292612  0.07373666  0.48626571  1  0.014951  0  -0.015142  -0.055716  0  3.95534  0
C  C212  1  0.33633399  0.02493373  0.49302049  1  0.035098  0  -0.085484  -0.13138  0  3.973804  0
C  C213  1  0.64099297  0.04841730  0.49290647  1  -0.086091  0  -0.005113  -0.023342  0  3.912248  0
C  C214  1  0.43198765  0.15185408  0.47317723  1  1.541601  0  0.220465  0.591489  0  4.166249  0
C  C215  1  0.80331278  0.09251053  0.48589175  1  1.620567  0  0.206458  0.593436  0  4.230453  0
C  C216  1  0.05111685  0.34453425  0.52541679  1  1.588731  0  0.1995  0.593848  0  4.209563  0
C  C217  1  0.02835668  0.42404462  0.51062561  1  -0.034405  0  -0.008773  -0.025533  0  3.923189  0
C  C218  1  0.24924018  0.41045069  0.43819860  1  1.603269  0  0.197866  0.573732  0  4.239801  0
C  C219  1  0.11249766  0.45374631  0.46910291  1  -0.108758  0  -0.017633  -0.054541  0  3.954606  0
C  C220  1  0.91787916  0.47139967  0.54095430  1  0.034783  0  -0.089455  -0.130302  0  3.981018  0
C  C221  1  0.18375968  0.71840786  0.60618892  1  0.985295  0  0.157245  0.125417  0  3.872802  0
C  C222  1  0.28985819  0.60649126  0.61609874  1  0.428385  0  0.005837  -0.021904  0  3.977805  0
C  C223  1  0.14152521  0.61291662  0.64394641  1  0.274832  0  0.004123  -0.105945  0  3.918195  0
C  C224  1  0.92530166  0.71752068  0.65950044  1  0.234563  0  0.084967  0.146952  0  4.034413  0
C  C225  1  0.82956768  0.76556335  0.63132668  1  0.036608  0  -0.085759  -0.139195  0  3.975213  0
C  C226  1  0.68300022  0.79901434  0.65283362  1  -0.060037  0  -0.097331  -0.166505  0  3.985104  0
C  C227  1  0.62954768  0.78493051  0.70259730  1  0.33425  0  0.092771  0.181265  0  4.034501  0
C  C228  1  0.72620514  0.73570787  0.73027150  1  -0.010767  0  -0.10281  -0.17515  0  4.013961  0
C  C229  1  0.87342387  0.70245581  0.70884197  1  0.013415  0  -0.094257  -0.149318  0  4.024797  0
C  C230  1  0.39058517  0.78682527  0.76315007  1  0.416159  0  0.090658  0.173183  0  4.047583  0
C  C231  1  0.35161606  0.70912128  0.75796623  1  -0.00217  0  -0.09062  -0.155318  0  3.993871  0
C  C232  1  0.27281880  0.67653722  0.79826275  1  -0.028868  0  -0.090159  -0.15659  0  4.00188  0
C  C233  1  0.22824605  0.72135585  0.84374527  1  0.293558  0  0.094204  0.163886  0  4.011046  0
C  C234  1  0.26278602  0.79935822  0.84868339  1  -0.040809  0  -0.089115  -0.156893  0  3.994933  0
C  C235  1  0.34433846  0.83140679  0.80867713  1  -0.054449  0  -0.094009  -0.160714  0  4.003313  0
C  C236  1  0.15320859  0.71685665  0.93564802  1  0.944738  0  0.14593  0.102805  0  3.873567  0
C  C237  1  0.05394390  0.62142849  0.88192496  1  0.295542  0  0.003403  -0.109875  0  3.909533  0
C  C238  1  0.00198977  0.61295297  0.93132559  1  0.423179  0  0.01754  0.012607  0  3.966682  0
C  C239  1  0.42571044  0.88979978  0.70796163  1  0.362491  0  0.093194  0.17277  0  4.042463  0
C  C240  1  0.54013650  0.95029486  0.70607762  1  -0.047403  0  -0.092384  -0.15633  0  4.004082  0
C  C241  1  0.48886504  0.01683660  0.68649180  1  -0.021032  0  -0.091834  -0.151745  0  3.990146  0
C  C242  1  0.32171412  0.02395457  0.66904319  1  0.344475  0  0.090654  0.154801  0  4.015278  0
C  C243  1  0.20483994  0.96516344  0.67261972  1  0.016863  0  -0.082116  -0.137241  0  3.9891  0
C  C244  1  0.25687919  0.89848757  0.69207130  1  -0.10381  0  -0.086699  -0.146284  0  3.9658  0
C  C245  1  0.33788875  0.16312675  0.65901167  1  0.304751  0  -0.00118  -0.106376  0  3.92429  0
C  C246  1  0.17238284  0.09281020  0.60372547  1  0.919788  0  0.148052  0.104106  0  3.868727  0
C  C247  1  0.27061347  0.20773301  0.62392892  1  0.388263  0  0.00227  -0.022166  0  3.967987  0
N  N248  1  0.01867567  0.81977013  0.22412144  1  -1.248871  0  -0.258756  -0.162156  0  3.694084  0
N  N249  1  0.18606276  0.67264303  0.09288472  1  -1.24266  0  -0.362386  -0.28767  0  3.631209  0
N  N250  1  0.42382025  0.68427812  0.13750117  1  -1.271411  0  -0.220658  0.019173  0  3.803758  0
N  N251  1  0.35058717  0.68797257  0.38502667  1  -1.252661  0  -0.224167  0.009987  0  3.804112  0
N  N252  1  0.43428006  0.67234814  0.46422774  1  -1.25015  0  -0.351421  -0.278953  0  3.573153  0
N  N253  1  0.22524801  0.09045743  0.14593602  1  -1.254857  0  -0.223084  0.014058  0  3.788093  0
N  N254  1  0.33133622  0.16316799  0.08980412  1  -1.216575  0  -0.353913  -0.294059  0  3.611306  0
N  N255  1  0.51867706  0.18023105  0.27587917  1  -1.248524  0  -0.258715  -0.162059  0  3.694  0
N  N256  1  0.68606129  0.32735460  0.40711559  1  -1.242743  0  -0.362403  -0.287702  0  3.631169  0
N  N257  1  0.92381789  0.31571986  0.36249862  1  -1.271347  0  -0.220781  0.019147  0  3.803708  0
N  N258  1  0.85057905  0.31202942  0.11497261  1  -1.252714  0  -0.224121  0.010176  0  3.804156  0
N  N259  1  0.93427246  0.32765206  0.03577100  1  -1.249585  0  -0.351494  -0.279087  0  3.573236  0
N  N260  1  0.72524583  0.90954300  0.35406442  1  -1.254405  0  -0.223055  0.014177  0  3.788044  0
N  N261  1  0.83133137  0.83683177  0.41019582  1  -1.216725  0  -0.353981  -0.294057  0  3.611345  0
N  N262  1  0.98131909  0.18022792  0.77587700  1  -1.249054  0  -0.258767  -0.162103  0  3.693778  0
N  N263  1  0.81392946  0.32735622  0.90711609  1  -1.242552  0  -0.36236  -0.28764  0  3.630961  0
N  N264  1  0.57617451  0.31571999  0.86249920  1  -1.271101  0  -0.220678  0.019187  0  3.803822  0
N  N265  1  0.64941776  0.31203119  0.61497323  1  -1.252581  0  -0.224239  0.010035  0  3.804285  0
N  N266  1  0.56572615  0.32765391  0.53577207  1  -1.25013  0  -0.351445  -0.278997  0  3.573124  0
N  N267  1  0.77475947  0.90954180  0.85406402  1  -1.254164  0  -0.223121  0.014163  0  3.788186  0
N  N268  1  0.66867763  0.83683124  0.91019592  1  -1.216607  0  -0.353942  -0.293934  0  3.611192  0
N  N269  1  0.48132279  0.81977220  0.72412263  1  -1.248865  0  -0.258778  -0.162206  0  3.693892  0
N  N270  1  0.31393347  0.67264293  0.59288436  1  -1.242634  0  -0.362352  -0.287599  0  3.631096  0
N  N271  1  0.07617178  0.68427588  0.63749854  1  -1.271557  0  -0.220664  0.019332  0  3.803623  0
N  N272  1  0.14942207  0.68797037  0.88502746  1  -1.252739  0  -0.224199  0.010071  0  3.804237  0
N  N273  1  0.06572866  0.67234657  0.96422824  1  -1.250153  0  -0.351496  -0.279038  0  3.573165  0
N  N274  1  0.27475402  0.09045792  0.64593533  1  -1.254406  0  -0.223037  0.014178  0  3.788128  0
N  N275  1  0.16866721  0.16317031  0.58980476  1  -1.21668  0  -0.353913  -0.293923  0  3.611142  0
O  O276  1  0.21882870  0.17731282  0.97793938  1  -1.19188  0  -0.312166  -0.556008  0  2.381637  0
O  O277  1  0.94524420  0.19047044  0.95674228  1  -1.168745  0  -0.306595  -0.522726  0  2.325182  0
O  O278  1  0.61297647  0.07954295  0.94514085  1  -1.181166  0  -0.323504  -0.549004  0  2.100013  0
O  O279  1  0.64815341  0.13598913  0.02632668  1  -1.182043  0  -0.329529  -0.576581  0  2.34391  0
O  O280  1  0.50646541  0.28878938  0.99380218  1  -1.153403  0  -0.333721  -0.568726  0  2.301847  0
O  O281  1  0.38714028  0.33502107  0.06881048  1  -1.185323  0  -0.334055  -0.575003  0  2.124819  0
O  O282  1  0.19845335  0.35256728  0.96091381  1  -1.173995  0  -0.334648  -0.562283  0  2.472775  0
O  O283  1  0.19462850  0.43181491  0.89720888  1  -1.184684  0  -0.345146  -0.573519  0  2.098082  0
O  O284  1  0.71882681  0.82268810  0.52206084  1  -1.191823  0  -0.31214  -0.555967  0  2.381637  0
O  O285  1  0.44524420  0.80952914  0.54325734  1  -1.168763  0  -0.306599  -0.522697  0  2.325211  0
O  O286  1  0.11297085  0.92045577  0.55485856  1  -1.181204  0  -0.323494  -0.549041  0  2.099947  0
O  O287  1  0.14815887  0.86401021  0.47367259  1  -1.182255  0  -0.329543  -0.576669  0  2.343929  0
O  O288  1  0.00646609  0.71121289  0.50619941  1  -1.15361  0  -0.333703  -0.568645  0  2.301961  0
O  O289  1  0.88713979  0.66497933  0.43119331  1  -1.185958  0  -0.333941  -0.574835  0  2.125037  0
O  O290  1  0.69845588  0.64743027  0.53908663  1  -1.174499  0  -0.334667  -0.562234  0  2.472982  0
O  O291  1  0.69463977  0.56818612  0.60279406  1  -1.185101  0  -0.345188  -0.573554  0  2.097984  0
O  O292  1  0.78117624  0.82268753  0.02206033  1  -1.191871  0  -0.312148  -0.556038  0  2.381631  0
O  O293  1  0.05475819  0.80952823  0.04325811  1  -1.168742  0  -0.306676  -0.522775  0  2.325199  0
O  O294  1  0.38703483  0.92045344  0.05485904  1  -1.181326  0  -0.323492  -0.548998  0  2.100019  0
O  O295  1  0.35184517  0.86401123  0.97367303  1  -1.18228  0  -0.329519  -0.576579  0  2.343902  0
O  O296  1  0.49353699  0.71121104  0.00619985  1  -1.153559  0  -0.333761  -0.568721  0  2.302011  0
O  O297  1  0.61285448  0.66497992  0.93119158  1  -1.185607  0  -0.333955  -0.574846  0  2.12496  0
O  O298  1  0.80154522  0.64743013  0.03908228  1  -1.17409  0  -0.33465  -0.562127  0  2.47269  0
O  O299  1  0.80535863  0.56819056  0.10279150  1  -1.185045  0  -0.345102  -0.57346  0  2.098298  0
O  O300  1  0.28117303  0.17731287  0.47794045  1  -1.191859  0  -0.312177  -0.556042  0  2.381638  0
O  O301  1  0.55475565  0.19047124  0.45674315  1  -1.168768  0  -0.306591  -0.522737  0  2.325186  0
O  O302  1  0.88703028  0.07954628  0.44514125  1  -1.181241  0  -0.323518  -0.549048  0  2.100016  0
O  O303  1  0.85184480  0.13598959  0.52632749  1  -1.182255  0  -0.32954  -0.576581  0  2.343898  0
O  O304  1  0.99353630  0.28878864  0.49380191  1  -1.153427  0  -0.333743  -0.568736  0  2.301847  0
O  O305  1  0.11285624  0.33501834  0.56881127  1  -1.185274  0  -0.334028  -0.574953  0  2.124832  0
O  O306  1  0.30154906  0.35256907  0.46091688  1  -1.174039  0  -0.3347  -0.562223  0  2.472628  0
O  O307  1  0.30538297  0.43181672  0.39721272  1  -1.185036  0  -0.345065  -0.573456  0  2.098204  0
