# generated using pymatgen
data_HgH6C7NClO5
_symmetry_space_group_name_H-M   'P 1'
_cell_length_a   7.70738650
_cell_length_b   9.94826773
_cell_length_c   12.44026729
_cell_angle_alpha   89.99996580
_cell_angle_beta   93.10023800
_cell_angle_gamma   89.99989531
_symmetry_Int_Tables_number   1
_chemical_formula_structural   HgH6C7NClO5
_chemical_formula_sum   'Hg4 H24 C28 N4 Cl4 O20'
_cell_volume   952.46326561
_cell_formula_units_Z   4
loop_
 _symmetry_equiv_pos_site_id
 _symmetry_equiv_pos_as_xyz
  1  'x, y, z'
loop_
 _atom_site_type_symbol
 _atom_site_label
 _atom_site_symmetry_multiplicity
 _atom_site_fract_x
 _atom_site_fract_y
 _atom_site_fract_z
 _atom_site_occupancy
 _atom_site_hle17_bader_spin_density
 _atom_site_hle17_ddec_charge
 _atom_site_hle17_ddec_spin_density
 _atom_site_hle17_ddec_sum_bond_order
 _atom_site_hle17_magmom
 _atom_site_hse06_10hf_bader_spin_density
 _atom_site_hse06_10hf_ddec_charge
 _atom_site_hse06_10hf_ddec_spin_density
 _atom_site_hse06_10hf_ddec_sum_bond_order
 _atom_site_hse06_10hf_magmom
 _atom_site_hse06_bader_spin_density
 _atom_site_hse06_ddec_charge
 _atom_site_hse06_ddec_spin_density
 _atom_site_hse06_ddec_sum_bond_order
 _atom_site_hse06_magmom
 _atom_site_pbe_bader_spin_density
 _atom_site_pbe_cm5_charge
 _atom_site_pbe_ddec_charge
 _atom_site_pbe_ddec_spin_density
 _atom_site_pbe_ddec_sum_bond_order
 _atom_site_pbe_magmom
Hg  Hg0  1  0.19960786  0.58019417  0.43802402  1  0  0.879114  0  1.942082  0  0  0.718485  0  2.41412  0  0  0.772508  0  2.374716  0  0  0.597966  0.679145  0  2.440209  0
Hg  Hg1  1  0.30038627  0.08019664  0.06197331  1  0  0.879086  0  1.942066  0  0  0.718469  0  2.41411  0  0  0.77249  0  2.374707  0  0  0.597943  0.679131  0  2.440196  0
Hg  Hg2  1  0.80038860  0.41980397  0.56197337  1  0  0.879123  0  1.942074  0  0  0.718501  0  2.414102  0  0  0.772522  0  2.374699  0  0  0.597954  0.679162  0  2.44019  0
Hg  Hg3  1  0.69961019  0.91980653  0.93802408  1  0  0.879111  0  1.942062  0  0  0.718474  0  2.414098  0  0  0.772497  0  2.374693  0  0  0.597972  0.679135  0  2.440183  0
H  H4  1  0.25770646  0.65231313  0.67058121  1  0  0.42188  0  0.871074  0  0  0.391027  0  0.938172  0  0  0.400881  0  0.92397  0  0  0.288701  0.38382  0  0.948597  0
H  H5  1  0.24229376  0.15231448  0.82941606  1  0  0.421881  0  0.871015  0  0  0.391032  0  0.938155  0  0  0.400884  0  0.923955  0  0  0.288694  0.383826  0  0.948577  0
H  H6  1  0.74229390  0.34768501  0.32941629  1  0  0.421852  0  0.871056  0  0  0.391  0  0.938203  0  0  0.400852  0  0.924003  0  0  0.28868  0.383794  0  0.948626  0
H  H7  1  0.75770530  0.84768668  0.17058140  1  0  0.421852  0  0.871104  0  0  0.390993  0  0.93822  0  0  0.400846  0  0.924019  0  0  0.288679  0.383786  0  0.948645  0
H  H8  1  0.39471717  0.54462194  0.63474306  1  0  0.417068  0  0.888154  0  0  0.385429  0  0.953535  0  0  0.396504  0  0.937586  0  0  0.27944  0.377417  0  0.965102  0
H  H9  1  0.10528331  0.04462345  0.86525427  1  0  0.417088  0  0.888129  0  0  0.38544  0  0.953522  0  0  0.396518  0  0.937567  0  0  0.279444  0.377427  0  0.96509  0
H  H10  1  0.60528189  0.45537520  0.36525440  1  0  0.417099  0  0.888119  0  0  0.385454  0  0.953506  0  0  0.396531  0  0.937552  0  0  0.279457  0.377442  0  0.965074  0
H  H11  1  0.89471575  0.95537670  0.13474399  1  0  0.417084  0  0.888134  0  0  0.38544  0  0.953523  0  0  0.396515  0  0.937572  0  0  0.279443  0.377428  0  0.965089  0
H  H12  1  0.70991741  0.15073822  0.22347948  1  0  0.400446  0  0.891335  0  0  0.367924  0  0.970034  0  0  0.381798  0  0.955546  0  0  0.297445  0.3582  0  0.980073  0
H  H13  1  0.79007708  0.65074479  0.27652138  1  0  0.400438  0  0.891378  0  0  0.367994  0  0.969941  0  0  0.381869  0  0.955449  0  0  0.297429  0.358267  0  0.97998  0
H  H14  1  0.29007778  0.84925389  0.77652188  1  0  0.400458  0  0.891309  0  0  0.36801  0  0.96988  0  0  0.381884  0  0.955388  0  0  0.297465  0.358284  0  0.979919  0
H  H15  1  0.20992071  0.34926039  0.72348007  1  0  0.400356  0  0.891484  0  0  0.367894  0  0.970069  0  0  0.381768  0  0.95558  0  0  0.297413  0.358168  0  0.980109  0
H  H16  1  0.30756577  0.16695033  0.33922213  1  0  0.110209  0  0.942925  0  0  0.118201  0  1.006077  0  0  0.121379  0  1.003751  0  0  0.104707  0.115929  0  1.007578  0
H  H17  1  0.19243728  0.66695411  0.16077944  1  0  0.110214  0  0.942847  0  0  0.118187  0  1.006029  0  0  0.121364  0  1.003703  0  0  0.104706  0.115919  0  1.007524  0
H  H18  1  0.69243984  0.83304681  0.66078196  1  0  0.110228  0  0.942896  0  0  0.118203  0  1.00607  0  0  0.12138  0  1.003744  0  0  0.104713  0.115932  0  1.007565  0
H  H19  1  0.80756961  0.33304805  0.83922309  1  0  0.110241  0  0.942874  0  0  0.118217  0  1.006055  0  0  0.121395  0  1.003728  0  0  0.104731  0.115949  0  1.00755  0
H  H20  1  0.00779130  0.07939257  0.37361862  1  0  0.11975  0  0.956577  0  0  0.125666  0  1.019903  0  0  0.129343  0  1.018332  0  0  0.109332  0.122985  0  1.022315  0
H  H21  1  0.49220672  0.57939294  0.12637802  1  0  0.119769  0  0.956489  0  0  0.125641  0  1.019862  0  0  0.129342  0  1.018265  0  0  0.109319  0.122959  0  1.022274  0
H  H22  1  0.99220776  0.92061060  0.62637965  1  0  0.119759  0  0.956502  0  0  0.125631  0  1.019876  0  0  0.129333  0  1.018279  0  0  0.10931  0.12295  0  1.022287  0
H  H23  1  0.50779495  0.42060721  0.87362113  1  0  0.119734  0  0.956563  0  0  0.125629  0  1.019919  0  0  0.129325  0  1.018327  0  0  0.109316  0.122948  0  1.022331  0
H  H24  1  0.97100088  0.83450525  0.40420546  1  0  0.097948  0  0.943257  0  0  0.104692  0  1.009  0  0  0.107287  0  1.006611  0  0  0.116057  0.102798  0  1.010843  0
H  H25  1  0.52899573  0.33450506  0.09578975  1  0  0.097836  0  0.943205  0  0  0.104627  0  1.008926  0  0  0.107221  0  1.006533  0  0  0.116009  0.102734  0  1.010769  0
H  H26  1  0.02899167  0.16549591  0.59579019  1  0  0.097888  0  0.943196  0  0  0.104643  0  1.008966  0  0  0.107237  0  1.006572  0  0  0.116012  0.102749  0  1.010808  0
H  H27  1  0.47100592  0.66549408  0.90420619  1  0  0.097874  0  0.943182  0  0  0.104618  0  1.008936  0  0  0.107212  0  1.006546  0  0  0.116008  0.102724  0  1.01078  0
C  C28  1  0.38972629  0.83178661  0.35625918  1  0  0.089649  0  3.669252  0  0  0.078464  0  3.911208  0  0  0.081992  0  3.930781  0  0  0.121334  0.075903  0  3.897618  0
C  C29  1  0.11027248  0.33179030  0.14374379  1  0  0.089521  0  3.66939  0  0  0.078336  0  3.911333  0  0  0.081863  0  3.930909  0  0  0.121333  0.075777  0  3.897746  0
C  C30  1  0.61027281  0.16821052  0.64374311  1  0  0.089555  0  3.669411  0  0  0.078345  0  3.911375  0  0  0.081873  0  3.930951  0  0  0.121288  0.075785  0  3.897783  0
C  C31  1  0.88972661  0.66821187  0.85625769  1  0  0.089645  0  3.669201  0  0  0.078462  0  3.911227  0  0  0.081991  0  3.930801  0  0  0.12133  0.075901  0  3.897637  0
C  C32  1  0.42144052  0.96886875  0.34143667  1  0  -0.086719  0  3.697026  0  0  -0.07034  0  3.934173  0  0  -0.078787  0  3.954367  0  0  0.00703  -0.064954  0  3.920624  0
C  C33  1  0.07856181  0.46887247  0.15856553  1  0  -0.086656  0  3.697102  0  0  -0.070306  0  3.934329  0  0  -0.078753  0  3.954526  0  0  0.007043  -0.06492  0  3.920783  0
C  C34  1  0.57856248  0.03112939  0.65856654  1  0  -0.086686  0  3.696948  0  0  -0.070345  0  3.934175  0  0  -0.078794  0  3.95437  0  0  0.007052  -0.064959  0  3.920624  0
C  C35  1  0.92144377  0.53113070  0.84143535  1  0  -0.086609  0  3.696986  0  0  -0.07038  0  3.934284  0  0  -0.078828  0  3.954482  0  0  0.007049  -0.064995  0  3.920741  0
C  C36  1  0.28387347  0.05973871  0.34870122  1  0  -0.014121  0  3.668981  0  0  -0.045639  0  3.925477  0  0  -0.041808  0  3.940648  0  0  -0.059931  -0.047284  0  3.914192  0
C  C37  1  0.21612722  0.55974146  0.15129792  1  0  -0.014123  0  3.669011  0  0  -0.045621  0  3.92551  0  0  -0.041801  0  3.94072  0  0  -0.059954  -0.047266  0  3.914234  0
C  C38  1  0.71612950  0.94025842  0.65129797  1  0  -0.014132  0  3.66904  0  0  -0.045633  0  3.925553  0  0  -0.041813  0  3.940759  0  0  -0.059951  -0.047278  0  3.914267  0
C  C39  1  0.78387705  0.44025970  0.84870212  1  0  -0.014201  0  3.668977  0  0  -0.045666  0  3.925504  0  0  -0.041846  0  3.94071  0  0  -0.059929  -0.047311  0  3.91422  0
C  C40  1  0.11932434  0.01295982  0.36911597  1  0  -0.063158  0  3.666924  0  0  -0.079698  0  3.925328  0  0  -0.084019  0  3.942067  0  0  -0.067974  -0.077204  0  3.914671  0
C  C41  1  0.38067256  0.51296235  0.13088307  1  0  -0.063221  0  3.667076  0  0  -0.079705  0  3.925518  0  0  -0.084037  0  3.94221  0  0  -0.067959  -0.077214  0  3.914869  0
C  C42  1  0.88067212  0.98703832  0.63088141  1  0  -0.063213  0  3.667147  0  0  -0.079686  0  3.92556  0  0  -0.084016  0  3.942252  0  0  -0.067934  -0.077194  0  3.914905  0
C  C43  1  0.61932911  0.48703981  0.86911688  1  0  -0.063153  0  3.666946  0  0  -0.079671  0  3.925364  0  0  -0.084007  0  3.942086  0  0  -0.067976  -0.077178  0  3.914712  0
C  C44  1  0.09683713  0.87617444  0.38605461  1  0  0.152134  0  3.626016  0  0  0.112951  0  3.880752  0  0  0.122619  0  3.895756  0  0  0.060317  0.106657  0  3.870307  0
C  C45  1  0.40316019  0.37617773  0.11394346  1  0  0.152224  0  3.626035  0  0  0.11299  0  3.880783  0  0  0.122661  0  3.895796  0  0  0.060339  0.106696  0  3.870341  0
C  C46  1  0.90315802  0.12382169  0.61394112  1  0  0.152164  0  3.626126  0  0  0.112924  0  3.880876  0  0  0.122595  0  3.895887  0  0  0.060312  0.106629  0  3.870433  0
C  C47  1  0.59684017  0.62382544  0.88605484  1  0  0.152228  0  3.625923  0  0  0.113041  0  3.880674  0  0  0.122711  0  3.895682  0  0  0.060375  0.106746  0  3.870231  0
C  C48  1  0.52485684  0.72433365  0.33831159  1  0  0.639407  0  3.885859  0  0  0.577777  0  4.195904  0  0  0.611691  0  4.188773  0  0  0.220078  0.554531  0  4.200237  0
C  C49  1  0.97514138  0.22433780  0.16168935  1  0  0.639417  0  3.885919  0  0  0.577908  0  4.195758  0  0  0.611817  0  4.188626  0  0  0.220126  0.554662  0  4.200098  0
C  C50  1  0.47513834  0.27566449  0.66168817  1  0  0.639431  0  3.885824  0  0  0.577885  0  4.195752  0  0  0.611795  0  4.188616  0  0  0.22011  0.55464  0  4.200086  0
C  C51  1  0.02485770  0.77566637  0.83831052  1  0  0.639381  0  3.885815  0  0  0.577789  0  4.195819  0  0  0.611702  0  4.188687  0  0  0.22011  0.554541  0  4.200152  0
C  C52  1  0.59729999  0.02822045  0.32437298  1  0  0.681613  0  3.819309  0  0  0.629108  0  4.122717  0  0  0.663812  0  4.11115  0  0  0.232399  0.605188  0  4.130293  0
C  C53  1  0.90269740  0.52822291  0.17562722  1  0  0.681678  0  3.81978  0  0  0.629114  0  4.123326  0  0  0.663808  0  4.111769  0  0  0.232375  0.6052  0  4.130898  0
C  C54  1  0.40270045  0.97177769  0.67563497  1  0  0.681746  0  3.819442  0  0  0.629212  0  4.122929  0  0  0.663913  0  4.111359  0  0  0.232481  0.605295  0  4.130497  0
C  C55  1  0.09730298  0.47178126  0.82437269  1  0  0.681608  0  3.819481  0  0  0.629243  0  4.12274  0  0  0.663939  0  4.111182  0  0  0.232399  0.605323  0  4.13032  0
N  N56  1  0.22990960  0.78981660  0.38097930  1  0  -0.276518  0  3.333225  0  0  -0.187956  0  3.588416  0  0  -0.210881  0  3.611855  0  0  -0.293624  -0.170587  0  3.57022  0
N  N57  1  0.27008796  0.28982007  0.11902204  1  0  -0.276438  0  3.333171  0  0  -0.187907  0  3.588425  0  0  -0.210836  0  3.611868  0  0  -0.293588  -0.170538  0  3.570229  0
N  N58  1  0.77008556  0.21017853  0.61901723  1  0  -0.276454  0  3.333342  0  0  -0.187856  0  3.588529  0  0  -0.210783  0  3.61197  0  0  -0.293569  -0.170488  0  3.570334  0
N  N59  1  0.72991112  0.71018410  0.88097703  1  0  -0.276522  0  3.333203  0  0  -0.187952  0  3.5884  0  0  -0.210878  0  3.61184  0  0  -0.293654  -0.170582  0  3.570201  0
Cl  Cl60  1  0.12613750  0.34919923  0.45095781  1  0  -0.435027  0  1.089184  0  0  -0.369316  0  1.382619  0  0  -0.390177  0  1.363447  0  0  -0.216659  -0.354402  0  1.395826  0
Cl  Cl61  1  0.37386120  0.84920284  0.04904193  1  0  -0.43505  0  1.089185  0  0  -0.369324  0  1.382589  0  0  -0.390185  0  1.363424  0  0  -0.216659  -0.354411  0  1.395796  0
Cl  Cl62  1  0.87386028  0.65079690  0.54904122  1  0  -0.435038  0  1.089209  0  0  -0.369319  0  1.382629  0  0  -0.390179  0  1.36346  0  0  -0.216648  -0.354406  0  1.395835  0
Cl  Cl63  1  0.62613787  0.15080134  0.95095794  1  0  -0.435018  0  1.089186  0  0  -0.369301  0  1.382613  0  0  -0.39016  0  1.363442  0  0  -0.216653  -0.354389  0  1.39582  0
O  O64  1  0.34420345  0.63441852  0.61718097  1  0  -0.797988  0  1.829961  0  0  -0.741947  0  2.010009  0  0  -0.764972  0  1.979724  0  0  -0.587116  -0.726312  0  2.031819  0
O  O65  1  0.15579682  0.13441995  0.88281631  1  0  -0.797999  0  1.829897  0  0  -0.741949  0  2.009986  0  0  -0.764975  0  1.979702  0  0  -0.587095  -0.726313  0  2.031795  0
O  O66  1  0.65579691  0.36557962  0.38281653  1  0  -0.797994  0  1.829903  0  0  -0.741938  0  2.009987  0  0  -0.764965  0  1.979705  0  0  -0.587101  -0.726303  0  2.031796  0
O  O67  1  0.84420355  0.86558020  0.11718199  1  0  -0.797976  0  1.829987  0  0  -0.741925  0  2.010039  0  0  -0.764951  0  1.979758  0  0  -0.587085  -0.72629  0  2.031848  0
O  O68  1  0.49512351  0.60604774  0.36998497  1  0  -0.606856  0  2.078393  0  0  -0.536017  0  2.320822  0  0  -0.566308  0  2.312814  0  0  -0.296959  -0.515334  0  2.326139  0
O  O69  1  0.00487185  0.10605359  0.13001077  1  0  -0.606856  0  2.078383  0  0  -0.536057  0  2.320721  0  0  -0.566337  0  2.312706  0  0  -0.297016  -0.515374  0  2.326041  0
O  O70  1  0.50487164  0.39394839  0.63001077  1  0  -0.606885  0  2.078324  0  0  -0.536091  0  2.320718  0  0  -0.56637  0  2.312701  0  0  -0.297023  -0.515409  0  2.326036  0
O  O71  1  0.99512722  0.89395058  0.86998830  1  0  -0.606862  0  2.078339  0  0  -0.536025  0  2.320732  0  0  -0.566316  0  2.312723  0  0  -0.296989  -0.515343  0  2.326048  0
O  O72  1  0.65734758  0.75994178  0.28896083  1  0  -0.604967  0  2.056637  0  0  -0.54481  0  2.287142  0  0  -0.571361  0  2.278436  0  0  -0.293733  -0.526278  0  2.292742  0
O  O73  1  0.84265446  0.25994207  0.21104181  1  0  -0.604988  0  2.056634  0  0  -0.544847  0  2.287104  0  0  -0.571396  0  2.278397  0  0  -0.293756  -0.526316  0  2.292709  0
O  O74  1  0.34265282  0.24005837  0.71104230  1  0  -0.604953  0  2.056713  0  0  -0.544821  0  2.287172  0  0  -0.57137  0  2.278466  0  0  -0.293731  -0.526292  0  2.292775  0
O  O75  1  0.15734722  0.74005708  0.78895895  1  0  -0.604963  0  2.056659  0  0  -0.544813  0  2.287144  0  0  -0.571363  0  2.278436  0  0  -0.293742  -0.526282  0  2.292745  0
O  O76  1  0.71459719  0.02909989  0.39493731  1  0  -0.532122  0  1.927506  0  0  -0.4919  0  2.141786  0  0  -0.514389  0  2.137275  0  0  -0.281515  -0.475814  0  2.144364  0
O  O77  1  0.78541192  0.52910559  0.10506808  1  0  -0.532151  0  1.927893  0  0  -0.491867  0  2.142172  0  0  -0.51436  0  2.137679  0  0  -0.28152  -0.475792  0  2.144762  0
O  O78  1  0.28541363  0.97089524  0.60506936  1  0  -0.532227  0  1.927533  0  0  -0.491983  0  2.141804  0  0  -0.514491  0  2.137329  0  0  -0.281621  -0.475901  0  2.144381  0
O  O79  1  0.21459888  0.47090260  0.89493617  1  0  -0.532119  0  1.927554  0  0  -0.491947  0  2.14178  0  0  -0.514438  0  2.13728  0  0  -0.281506  -0.475855  0  2.144349  0
O  O80  1  0.60089021  0.08873453  0.22921029  1  0  -0.591661  0  2.155514  0  0  -0.542084  0  2.400677  0  0  -0.567088  0  2.384817  0  0  -0.337262  -0.524385  0  2.411151  0
O  O81  1  0.89910574  0.58873593  0.27079064  1  0  -0.591739  0  2.155713  0  0  -0.542161  0  2.400796  0  0  -0.56716  0  2.384931  0  0  -0.337242  -0.524457  0  2.411269  0
O  O82  1  0.39910761  0.91126160  0.77079517  1  0  -0.591735  0  2.155723  0  0  -0.542132  0  2.400756  0  0  -0.567132  0  2.384892  0  0  -0.337272  -0.524433  0  2.411227  0
O  O83  1  0.10089335  0.41126523  0.72921084  1  0  -0.59169  0  2.155715  0  0  -0.54214  0  2.400718  0  0  -0.567137  0  2.384856  0  0  -0.337278  -0.52444  0  2.411196  0
