# generated using pymatgen
data_CuH16C16(NO)4
_symmetry_space_group_name_H-M   'P 1'
_cell_length_a   10.22304584
_cell_length_b   13.83067329
_cell_length_c   22.82232013
_cell_angle_alpha   97.99543577
_cell_angle_beta   89.98973573
_cell_angle_gamma   111.66607823
_symmetry_Int_Tables_number   1
_chemical_formula_structural   CuH16C16(NO)4
_chemical_formula_sum   'Cu6 H96 C96 N24 O24'
_cell_volume   2965.16280644
_cell_formula_units_Z   6
loop_
 _symmetry_equiv_pos_site_id
 _symmetry_equiv_pos_as_xyz
  1  'x, y, z'
loop_
 _atom_site_type_symbol
 _atom_site_label
 _atom_site_symmetry_multiplicity
 _atom_site_fract_x
 _atom_site_fract_y
 _atom_site_fract_z
 _atom_site_occupancy
 _atom_site_pbe_bader_charge
 _atom_site_pbe_bader_spin_density
 _atom_site_pbe_cm5_charge
 _atom_site_pbe_ddec_charge
 _atom_site_pbe_ddec_spin_density
 _atom_site_pbe_ddec_sum_bond_order
 _atom_site_pbe_magmom
Cu  Cu0  1  0.89074503  0.59100118  0.45794017  1  1.098596  0.584797  0.746987  0.82729  0.759724  2.241618  0.583
Cu  Cu1  1  0.29944583  0.40897132  0.04209010  1  1.098744  0.582745  0.746714  0.827488  0.757672  2.241086  0.581
Cu  Cu2  1  0.10925618  0.40899890  0.54206058  1  1.098463  0.58491  0.747089  0.827448  0.759868  2.241541  0.583
Cu  Cu3  1  0.70055420  0.59103030  0.95790858  1  1.098681  -0.58274  0.746619  0.827472  -0.784832  2.240649  -0.581
Cu  Cu4  1  0.60869356  0.99995927  0.25001319  1  1.049197  -0.555788  0.752113  0.774414  -0.754751  2.233178  -0.556
Cu  Cu5  1  0.39130569  0.00004079  0.74998668  1  1.049197  0.555911  0.752112  0.774435  0.728621  2.233219  0.556
H  H6  1  0.23345452  0.72398091  0.36797559  1  0.106295  0.000126  0.104553  0.113149  0.000145  1.016382  0.0
H  H7  1  0.44881616  0.59628723  0.47968204  1  0.137436  0.000642  0.111391  0.13027  0.000507  0.994045  0.0
H  H8  1  0.67539797  0.78591323  0.35104868  1  0.140921  -0.00045  0.103925  0.116353  -0.000431  1.015676  0.0
H  H9  1  0.57574438  0.20318381  0.31869218  1  0.148804  -0.001023  0.117267  0.11807  -0.000516  1.039625  -0.001
H  H10  1  0.69945770  0.97419462  0.37945918  1  0.153044  -0.000338  0.139727  0.109685  -9.2e-05  1.010662  0.0
H  H11  1  0.63175354  0.25399135  0.44224088  1  0.157099  -0.000953  0.123151  0.130032  -0.000495  1.034946  -0.001
H  H12  1  0.74755486  0.03895767  0.48703947  1  0.042358  -1.2e-05  0.118933  0.100377  1e-06  0.951381  0.0
H  H13  1  0.76296665  0.16923580  0.51453046  1  0.069673  -0.000344  0.117484  0.109081  -0.000211  0.973557  0.0
H  H14  1  0.57368051  0.04136134  0.56256517  1  0.044518  -6.7e-05  0.099634  0.105269  -4.2e-05  0.974204  0.0
H  H15  1  0.50374677  0.11184680  0.52159261  1  0.032254  -2e-05  0.091223  0.087995  -2.6e-05  1.002846  0.0
H  H16  1  0.99448335  0.61439906  0.32904043  1  0.150455  0.000417  0.143253  0.115639  0.000137  0.992144  0.0
H  H17  1  0.62621646  0.39580758  0.38597529  1  0.124999  0.000842  0.12879  0.13084  0.000371  0.981209  0.001
H  H18  1  0.61844628  0.36038081  0.26186532  1  0.143863  0.000856  0.121274  0.131029  0.000417  1.029906  0.0
H  H19  1  0.96810842  0.56511514  0.22094003  1  0.093435  5.6e-05  0.113219  0.090179  2.5e-05  0.978231  0.0
H  H20  1  0.84972827  0.43722987  0.19103845  1  0.067395  8.4e-05  0.106937  0.089419  4.5e-05  1.021948  0.0
H  H21  1  0.65529911  0.50144087  0.18268245  1  0.054945  1e-05  0.090103  0.084466  1.8e-05  1.009132  0.0
H  H22  1  0.80111911  0.56923001  0.14395621  1  0.056549  0.000153  0.101199  0.105814  8.6e-05  0.975032  0.0
H  H23  1  0.73162644  0.65326025  0.26790948  1  0.044909  -0.000164  0.097925  0.102693  -9.4e-05  0.980102  0.0
H  H24  1  0.87861277  0.72039427  0.22899930  1  0.037643  -2.3e-05  0.095826  0.092903  -1.5e-05  0.970028  0.0
H  H25  1  0.68491157  0.78582766  0.21725889  1  0.121582  -7.5e-05  0.11031  0.10483  -4.4e-05  1.003843  0.0
H  H26  1  0.56603291  0.65789325  0.18991544  1  0.082226  -5.2e-05  0.109646  0.08925  -2.9e-05  1.005546  0.0
H  H27  1  0.55602566  0.58513657  0.08351596  1  0.170786  -0.00076  0.134238  0.103271  -0.000345  1.057426  0.0
H  H28  1  0.90617345  0.86365387  0.14550326  1  0.110517  -0.00108  0.128183  0.130411  -0.000556  0.988881  -0.001
H  H29  1  0.91682685  0.80774286  0.02329478  1  0.137892  -0.000938  0.120104  0.124152  -0.000435  1.010482  -0.001
H  H30  1  0.50919149  0.27594043  0.13210426  1  0.100538  0.000135  0.104546  0.112751  0.000146  1.015612  0.0
H  H31  1  0.85213599  0.40355562  0.02033773  1  0.1304  0.00063  0.111612  0.130796  0.000475  0.994242  0.0
H  H32  1  0.88928049  0.21405023  0.14899457  1  0.130366  -0.000452  0.10406  0.116646  -0.000429  1.01522  0.0
H  H33  1  0.37247487  0.79679128  0.18134987  1  0.144585  -0.001025  0.11707  0.117977  -0.000516  1.039821  -0.001
H  H34  1  0.72521533  0.02555902  0.12057078  1  0.161348  -0.000333  0.139311  0.109213  -9.2e-05  1.010731  0.0
H  H35  1  0.37763286  0.74607662  0.05779123  1  0.159812  -0.000911  0.122851  0.129634  -0.000439  1.034756  -0.001
H  H36  1  0.70844962  0.96094137  0.01298902  1  0.07411  -1.8e-05  0.119121  0.100733  -7e-06  0.950422  0.0
H  H37  1  0.59373806  0.83068293  0.98548081  1  0.108224  -0.00022  0.117603  0.109115  -0.000107  0.973121  0.0
H  H38  1  0.53227182  0.95852354  0.93743913  1  0.041814  -6.2e-05  0.099822  0.105583  -3.9e-05  0.974135  0.0
H  H39  1  0.39187725  0.88818962  0.97845558  1  0.036901  -4e-06  0.091447  0.088337  -0.0  1.003179  0.0
H  H40  1  0.37973185  0.38546561  0.17098775  1  0.134899  0.000426  0.142893  0.115286  0.00014  0.991627  0.0
H  H41  1  0.23046316  0.60434488  0.11401895  1  0.121504  0.000856  0.128764  0.130824  0.000377  0.981145  0.001
H  H42  1  0.25812676  0.63985412  0.23815049  1  0.143771  0.00086  0.121303  0.1309  0.000419  1.030206  0.0
H  H43  1  0.40258391  0.43484067  0.27909734  1  0.073842  5.5e-05  0.112791  0.089237  2.4e-05  0.978435  0.0
H  H44  1  0.41216561  0.56278632  0.30896962  1  0.066388  7.6e-05  0.10667  0.088626  4.1e-05  1.022668  0.0
H  H45  1  0.15345116  0.49869904  0.31727287  1  0.022871  2e-06  0.090347  0.084768  1.1e-05  1.00962  0.0
H  H46  1  0.23148846  0.43096344  0.35606660  1  0.058109  0.000133  0.100976  0.106035  5.1e-05  0.975602  0.0
H  H47  1  0.07834361  0.34677005  0.23209354  1  0.038415  0.000138  0.097884  0.102533  6.4e-05  0.98115  0.0
H  H48  1  0.15828531  0.27975654  0.27106374  1  0.033701  6e-06  0.095732  0.093081  3e-06  0.969572  0.0
H  H49  1  0.89911819  0.21424720  0.28272939  1  0.119353  0.000189  0.110697  0.105273  0.000112  1.003463  0.0
H  H50  1  0.90802027  0.34217856  0.31010424  1  0.069452  1.5e-05  0.109367  0.088681  -8e-06  1.005301  0.0
H  H51  1  0.97050719  0.41484170  0.41648708  1  0.211546  0.000446  0.133997  0.102749  0.000107  1.057092  0.0
H  H52  1  0.04278132  0.13646003  0.35446619  1  0.113574  0.001121  0.128127  0.130684  0.00057  0.988199  0.001
H  H53  1  0.10899900  0.19229402  0.47668729  1  0.124735  0.000943  0.119753  0.123157  0.000417  1.011356  0.001
H  H54  1  0.76654749  0.27602075  0.63202572  1  0.10634  0.000141  0.104614  0.113211  0.0001  1.016441  0.0
H  H55  1  0.55118135  0.40371129  0.52031990  1  0.137558  0.000624  0.111339  0.130219  0.000498  0.994064  0.0
H  H56  1  0.32460110  0.21408450  0.64895276  1  0.141066  0.00046  0.103953  0.116383  0.00038  1.015651  0.0
H  H57  1  0.42425389  0.79681624  0.68130681  1  0.148841  0.001029  0.117245  0.118064  0.000501  1.039649  0.001
H  H58  1  0.30054096  0.02580622  0.62053988  1  0.152937  0.000317  0.139717  0.109719  6.6e-05  1.010605  0.0
H  H59  1  0.36824668  0.74600870  0.55775767  1  0.157083  0.000916  0.123154  0.130042  0.000463  1.034954  0.001
H  H60  1  0.25244283  0.96104317  0.51296003  1  0.042321  1.9e-05  0.118931  0.100347  8e-06  0.95138  0.0
H  H61  1  0.23703436  0.83076582  0.48546822  1  0.069654  0.00022  0.117467  0.109056  9.7e-05  0.97356  0.0
H  H62  1  0.42632070  0.95864265  0.43743458  1  0.044495  6e-05  0.099599  0.10523  3.8e-05  0.974223  0.0
H  H63  1  0.49625484  0.88815799  0.47840764  1  0.032428  3e-06  0.091222  0.088013  -0.0  1.002878  0.0
H  H64  1  0.00551629  0.38560178  0.67095862  1  0.150469  0.000399  0.143254  0.115617  0.000121  0.992181  0.0
H  H65  1  0.37378358  0.60419406  0.61402514  1  0.124978  0.000846  0.128826  0.130896  0.000374  0.981159  0.001
H  H66  1  0.38155179  0.63961688  0.73813348  1  0.143884  0.000914  0.121259  0.131007  0.000478  1.029931  0.001
H  H67  1  0.03188907  0.43488336  0.77906015  1  0.093422  5.2e-05  0.113238  0.090195  1.9e-05  0.978177  0.0
H  H68  1  0.15027176  0.56276784  0.80896167  1  0.067387  9.4e-05  0.106924  0.089422  5.1e-05  1.021879  0.0
H  H69  1  0.34470190  0.49855684  0.81731767  1  0.054958  4.1e-05  0.090098  0.084461  1.8e-05  1.009075  0.0
H  H70  1  0.19888092  0.43076770  0.85604391  1  0.056557  0.000136  0.101191  0.105818  6.1e-05  0.97501  0.0
H  H71  1  0.26837535  0.34673901  0.73208945  1  0.044891  0.000147  0.097968  0.102754  6.6e-05  0.979986  0.0
H  H72  1  0.12138764  0.27960420  0.77099913  1  0.037624  2.5e-05  0.095818  0.092933  1.5e-05  0.970002  0.0
H  H73  1  0.31509003  0.21417319  0.78274104  1  0.121707  7.3e-05  0.110296  0.104817  3.5e-05  1.003873  0.0
H  H74  1  0.43396830  0.34210681  0.81008443  1  0.082241  5.2e-05  0.10965  0.08926  2.7e-05  1.005507  0.0
H  H75  1  0.44397281  0.41486193  0.91648466  1  0.17078  0.000759  0.13422  0.10324  0.000328  1.057489  0.0
H  H76  1  0.09382776  0.13634621  0.85449749  1  0.110509  0.001081  0.128183  0.130392  0.000538  0.988909  0.001
H  H77  1  0.08317161  0.19225561  0.97670409  1  0.138239  0.000937  0.120097  0.124196  0.000419  1.0105  0.001
H  H78  1  0.49080951  0.72405725  0.86789410  1  0.100739  -0.000128  0.104529  0.112704  -0.000146  1.015645  0.0
H  H79  1  0.14786345  0.59644287  0.97966157  1  0.130425  -0.000629  0.111607  0.130784  -0.000492  0.994258  0.0
H  H80  1  0.11071740  0.78594907  0.85100655  1  0.130332  0.000453  0.104044  0.11665  0.000416  1.015266  0.0
H  H81  1  0.62752418  0.20320643  0.81865068  1  0.144623  0.001028  0.117082  0.117991  0.000501  1.039834  0.001
H  H82  1  0.27478413  0.97444342  0.87943016  1  0.16137  0.000333  0.13933  0.109257  8.4e-05  1.010702  0.0
H  H83  1  0.62236856  0.25392582  0.94220971  1  0.159773  0.000911  0.122845  0.129641  0.000424  1.03468  0.001
H  H84  1  0.29155062  0.03905870  0.98701129  1  0.074111  1.8e-05  0.119124  0.100734  7e-06  0.950427  0.0
H  H85  1  0.40626003  0.16931872  0.01451962  1  0.108189  0.00022  0.117604  0.109092  0.0001  0.973152  0.0
H  H86  1  0.46772862  0.04147889  0.06256181  1  0.041875  6.2e-05  0.099812  0.105575  3.7e-05  0.97413  0.0
H  H87  1  0.60812181  0.11181202  0.02154441  1  0.036905  4e-06  0.091435  0.088316  0.0  1.003187  0.0
H  H88  1  0.62026701  0.61453366  0.82901162  1  0.13491  -0.000419  0.142916  0.115339  -0.000143  0.991564  0.0
H  H89  1  0.76953588  0.39565281  0.88597941  1  0.1214  -0.000857  0.128773  0.130845  -0.000393  0.981083  -0.001
H  H90  1  0.74187364  0.36014433  0.76184618  1  0.14362  -0.000852  0.121292  0.130863  -0.00043  1.030142  0.0
H  H91  1  0.59741495  0.56515859  0.72090158  1  0.073817  -4.5e-05  0.112793  0.089239  -1.6e-05  0.978427  0.0
H  H92  1  0.58783323  0.43721293  0.69102799  1  0.066384  -9.8e-05  0.106668  0.088666  -8.5e-05  1.022625  0.0
H  H93  1  0.84654829  0.50130337  0.68272588  1  0.022911  -5.5e-05  0.09034  0.084757  -3.3e-05  1.009592  0.0
H  H94  1  0.76851098  0.56903896  0.64393214  1  0.058057  -0.000156  0.101  0.106112  -9.7e-05  0.975582  0.0
H  H95  1  0.92165289  0.65322843  0.76790533  1  0.038353  0.000163  0.097859  0.102499  9e-05  0.981186  0.0
H  H96  1  0.84171434  0.72024432  0.72893663  1  0.033702  1.8e-05  0.095724  0.093084  1.3e-05  0.969517  0.0
H  H97  1  0.10088108  0.78575290  0.71727267  1  0.119333  7.4e-05  0.110683  0.105263  3.6e-05  1.003454  0.0
H  H98  1  0.09197702  0.65782151  0.68989607  1  0.069485  3e-06  0.109413  0.088704  -8e-06  1.005366  0.0
H  H99  1  0.02949639  0.58516311  0.58351492  1  0.211615  0.000441  0.134008  0.10272  0.000102  1.057102  0.0
H  H100  1  0.95721973  0.86354559  0.64553719  1  0.113471  0.001076  0.128072  0.130674  0.000537  0.988196  0.001
H  H101  1  0.89100301  0.80771156  0.52331346  1  0.124625  0.000943  0.119785  0.123181  0.000418  1.011272  0.001
C  C102  1  0.32904952  0.71372030  0.38156832  1  -0.051203  -0.002325  -0.080653  -0.114546  -0.001531  3.94905  -0.002
C  C103  1  0.32775984  0.65677031  0.42790029  1  -0.050577  0.009057  -0.022423  -0.044288  0.006254  3.979728  0.007
C  C104  1  0.45109071  0.64357992  0.44494687  1  -0.080459  0.001341  -0.074539  -0.105707  0.001034  3.90431  0.001
C  C105  1  0.57603191  0.69060264  0.41707024  1  -0.019651  0.011434  -0.020622  -0.026954  0.007996  3.983696  0.009
C  C106  1  0.57675932  0.74934246  0.37177105  1  -0.095773  0.000183  -0.084579  -0.124613  -4.6e-05  3.959006  0.001
C  C107  1  0.45303629  0.75976264  0.35297351  1  -0.050288  -0.008953  -0.027677  -0.053148  -0.006571  4.013337  -0.007
C  C108  1  0.19419717  0.60943048  0.45944532  1  1.571198  -0.000774  0.201339  0.57085  0.000822  4.229309  -0.002
C  C109  1  0.71182343  0.67945270  0.43346374  1  1.575806  -0.001413  0.181778  0.542979  0.000199  4.256135  -0.004
C  C110  1  0.45180144  0.82146423  0.30355420  1  1.552262  -0.000819  0.192302  0.552498  -0.002124  4.241422  0.001
C  C111  1  0.61006589  0.16457933  0.35027712  1  0.326621  -0.001341  -0.003068  -0.033183  -0.001563  3.995301  -0.001
C  C112  1  0.67410542  0.04351854  0.37899997  1  0.976652  0.001653  0.139742  0.083207  0.000489  3.929921  0.001
C  C113  1  0.63443742  0.18847815  0.41073033  1  0.361896  -0.002983  0.000205  -0.104108  -0.002155  3.895092  -0.002
C  C114  1  0.69327662  0.09458167  0.48888187  1  0.33629  -0.00106  -0.044015  -0.058917  -0.000845  3.863374  -0.001
C  C115  1  0.55130729  0.05167758  0.51715853  1  0.00369  2.7e-05  -0.163671  -0.175237  3e-06  3.942452  0.0
C  C116  1  0.89392992  0.54974386  0.32816889  1  0.988267  -0.001009  0.144108  0.087425  -0.000112  3.911789  0.0
C  C117  1  0.70088865  0.43551003  0.35526692  1  0.471059  0.000789  0.005797  -0.023099  0.001162  3.981741  0.001
C  C118  1  0.69476308  0.41912329  0.29423598  1  0.215033  0.003411  -0.005043  -0.125849  0.002231  3.915221  0.002
C  C119  1  0.85696867  0.51164063  0.21769106  1  0.267866  0.000914  -0.051467  -0.062538  0.000699  3.88414  0.001
C  C120  1  0.76461982  0.55892605  0.18887064  1  -0.053476  7e-05  -0.164683  -0.171298  7e-05  3.947421  0.0
C  C121  1  0.76892318  0.66326914  0.22304019  1  -0.027738  -0.000102  -0.161828  -0.169254  -0.000103  3.936523  0.0
C  C122  1  0.67765390  0.71000118  0.19250378  1  0.2644  -0.001226  -0.05325  -0.064843  -0.001002  3.860879  -0.001
C  C123  1  0.65318450  0.65255452  0.08317812  1  0.994217  0.000459  0.144504  0.106274  -0.000549  3.884745  0.0
C  C124  1  0.83688826  0.79831440  0.11433467  1  0.292151  -0.002774  -0.006721  -0.12691  -0.001928  3.957207  -0.002
C  C125  1  0.84173046  0.77018264  0.05447917  1  0.403714  -0.000631  -0.004705  -0.035065  -0.000989  4.015693  -0.001
C  C126  1  0.61503221  0.28618667  0.11849694  1  -0.00241  -0.00182  -0.080752  -0.114718  -0.001218  3.947608  -0.002
C  C127  1  0.67062752  0.34309925  0.07213917  1  -0.091834  0.008938  -0.022296  -0.043212  0.006171  3.978732  0.007
C  C128  1  0.80713541  0.35629815  0.05508753  1  -0.009882  0.001602  -0.074613  -0.107508  0.001219  3.904014  0.001
C  C129  1  0.88512827  0.30933105  0.08297177  1  -0.049312  0.011339  -0.02165  -0.027112  0.007956  3.982261  0.009
C  C130  1  0.82715174  0.25057355  0.12825434  1  -0.100072  0.000598  -0.085049  -0.125523  0.00022  3.958327  0.001
C  C131  1  0.69300241  0.24011797  0.14706960  1  -0.052876  -0.009001  -0.027201  -0.052229  -0.006621  4.012477  -0.007
C  C132  1  0.58447588  0.39043528  0.04053879  1  1.573937  0.000912  0.201066  0.572257  0.002069  4.228206  0.0
C  C133  1  0.03213404  0.32056987  0.06662065  1  1.563393  -0.001337  0.182476  0.543885  0.000189  4.255608  -0.004
C  C134  1  0.63027380  0.17844742  0.19650013  1  1.544584  -0.000825  0.192772  0.552649  -0.002122  4.242169  0.001
C  C135  1  0.44540052  0.83539823  0.14977129  1  0.333847  -0.001313  -0.003545  -0.035004  -0.001556  3.996074  -0.001
C  C136  1  0.63052789  0.95629157  0.12102974  1  0.969724  0.001666  0.139927  0.082691  0.000496  3.929967  0.001
C  C137  1  0.44584348  0.81152087  0.08930916  1  0.33718  -0.002935  0.000914  -0.103309  -0.002113  3.895083  -0.002
C  C138  1  0.59859969  0.90531939  0.01113898  1  0.275132  -0.000986  -0.04474  -0.059799  -0.000785  3.860905  -0.001
C  C139  1  0.49959095  0.94828552  0.98285733  1  -0.001172  4.7e-05  -0.163874  -0.17582  2.3e-05  3.943211  0.0
C  C140  1  0.34391365  0.45019651  0.17184855  1  1.012069  -0.001047  0.14484  0.089577  -0.000141  3.911364  0.0
C  C141  1  0.26539357  0.56462723  0.14473700  1  0.472318  0.000766  0.005599  -0.022725  0.001131  3.980642  0.001
C  C142  1  0.27564876  0.58105259  0.20577130  1  0.210728  0.003422  -0.005536  -0.125831  0.002244  3.915632  0.002
C  C143  1  0.34498755  0.48840189  0.28232287  1  0.298535  0.000896  -0.050066  -0.059703  0.000689  3.88343  0.001
C  C144  1  0.20536214  0.44121760  0.31113101  1  -0.03571  9e-05  -0.165108  -0.172238  6e-05  3.949616  0.0
C  C145  1  0.10558545  0.33683180  0.27697988  1  -0.022015  7.9e-05  -0.161762  -0.170003  4.3e-05  3.939315  0.0
C  C146  1  0.96760397  0.29007322  0.30749118  1  0.288848  0.001099  -0.053057  -0.063513  0.000819  3.862531  0.001
C  C147  1  0.00032332  0.34743653  0.41682987  1  0.951969  -0.000707  0.14446  0.107709  0.000273  3.884775  0.0
C  C148  1  0.03863626  0.20175823  0.38563972  1  0.318226  0.002803  -0.006568  -0.127055  0.001933  3.955088  0.002
C  C149  1  0.07140849  0.22983402  0.44550717  1  0.384225  0.000726  -0.00431  -0.033272  0.000914  4.014803  0.001
C  C150  1  0.67095091  0.28627821  0.61843318  1  -0.050923  0.000298  -0.080621  -0.114489  0.000199  3.949216  0.0
C  C151  1  0.67224255  0.34322819  0.57210077  1  -0.050974  0.010716  -0.022433  -0.04428  0.007376  3.979601  0.008
C  C152  1  0.54890854  0.35641622  0.55505356  1  -0.080871  0.000919  -0.074567  -0.105767  0.000722  3.904235  0.001
C  C153  1  0.42396853  0.30939588  0.58293170  1  -0.019394  0.011431  -0.02069  -0.027033  0.007883  3.983768  0.009
C  C154  1  0.42324228  0.25065448  0.62823076  1  -0.095835  0.000721  -0.084516  -0.124387  0.000581  3.958835  0.001
C  C155  1  0.54696845  0.24023666  0.64702849  1  -0.050585  0.011098  -0.027767  -0.053464  0.007717  4.013743  0.009
C  C156  1  0.80580228  0.39056804  0.54055662  1  1.57154  -0.000343  0.201511  0.571021  0.001106  4.229264  -0.001
C  C157  1  0.28817329  0.32054818  0.56653839  1  1.576037  -0.001361  0.181783  0.542869  0.000211  4.256445  -0.003
C  C158  1  0.54820954  0.17853973  0.69644379  1  1.552395  0.001216  0.192422  0.552581  0.002198  4.241301  -0.001
C  C159  1  0.38993198  0.83541993  0.64972137  1  0.326751  0.001321  -0.003119  -0.033295  0.00144  3.99533  0.001
C  C160  1  0.32589206  0.95647994  0.62099846  1  0.976648  -0.001664  0.13976  0.083258  -0.000619  3.929779  -0.001
C  C161  1  0.36555986  0.81152188  0.58926691  1  0.361877  0.002926  0.000299  -0.103991  0.002039  3.894983  0.002
C  C162  1  0.30672341  0.90541996  0.51111725  1  0.3363  0.000978  -0.043996  -0.058838  0.000755  3.863368  0.001
C  C163  1  0.44869314  0.94832484  0.48284153  1  -0.016271  -5.7e-05  -0.163715  -0.175345  -3e-05  3.942548  0.0
C  C164  1  0.10607012  0.45025779  0.67183199  1  0.98848  -0.001016  0.144095  0.087451  -0.000116  3.911545  0.0
C  C165  1  0.29911237  0.56449162  0.64473352  1  0.471076  0.000793  0.005695  -0.023319  0.001165  3.981727  0.001
C  C166  1  0.30523794  0.58087835  0.70576446  1  0.214951  0.003508  -0.005021  -0.125752  0.002309  3.915268  0.002
C  C167  1  0.14303215  0.48835864  0.78230831  1  0.267799  0.000905  -0.051477  -0.062629  0.000699  3.884167  0.001
C  C168  1  0.23537922  0.44107165  0.81112860  1  -0.053337  0.000157  -0.164653  -0.171229  0.000106  3.947354  0.0
C  C169  1  0.23107881  0.33672857  0.77695993  1  -0.027698  9.5e-05  -0.161895  -0.169428  7.5e-05  3.936577  0.0
C  C170  1  0.32234477  0.28999576  0.80749759  1  0.264392  0.001214  -0.053268  -0.064887  0.000959  3.861166  0.001
C  C171  1  0.34681945  0.34744319  0.91682200  1  0.993707  -0.000451  0.144468  0.106305  0.000428  3.884212  0.0
C  C172  1  0.16311196  0.20168565  0.88566389  1  0.292278  0.002776  -0.006649  -0.126796  0.001858  3.957202  0.002
C  C173  1  0.15826743  0.22981665  0.94552195  1  0.403311  0.000637  -0.004724  -0.03516  0.000894  4.015544  0.001
C  C174  1  0.38496703  0.71381337  0.88150074  1  -0.002637  0.001839  -0.080703  -0.114648  0.001185  3.947664  0.002
C  C175  1  0.32937583  0.65689924  0.92786014  1  -0.091792  -0.008928  -0.022311  -0.043178  -0.006386  3.978733  -0.007
C  C176  1  0.19286697  0.64370034  0.94491221  1  -0.010343  -0.001597  -0.074583  -0.10747  -0.001273  3.90382  -0.001
C  C177  1  0.11486374  0.69066822  0.91702760  1  -0.049448  -0.011312  -0.0217  -0.027211  -0.008209  3.982164  -0.009
C  C178  1  0.17284887  0.74942729  0.87174472  1  -0.099979  -0.000601  -0.085073  -0.125584  -0.00027  3.958361  -0.001
C  C179  1  0.30699547  0.75988130  0.85292977  1  -0.05284  0.009016  -0.027175  -0.052169  0.006406  4.012572  0.007
C  C180  1  0.41553451  0.60956945  0.95945795  1  1.574054  -0.000909  0.200947  0.572107  -0.002227  4.228538  0.0
C  C181  1  0.96785895  0.67942548  0.93337928  1  1.563553  0.00134  0.182468  0.543936  -0.000396  4.255901  0.004
C  C182  1  0.36972544  0.82154870  0.80349899  1  1.54429  0.000833  0.192709  0.552609  0.001945  4.242138  -0.001
C  C183  1  0.55460011  0.16460263  0.85022908  1  0.33378  0.001318  -0.003519  -0.034935  0.001451  3.995861  0.001
C  C184  1  0.36947216  0.04371010  0.87897245  1  0.969739  -0.001665  0.139832  0.082497  -0.000615  3.930062  -0.001
C  C185  1  0.55415383  0.18847923  0.91069291  1  0.337196  0.002939  0.00089  -0.103436  0.002041  3.895026  0.002
C  C186  1  0.40139996  0.09468147  0.98886139  1  0.275092  0.000986  -0.044748  -0.059807  0.000757  3.860983  0.001
C  C187  1  0.50040849  0.05171690  0.01714185  1  -0.025557  -4.7e-05  -0.163786  -0.17571  -2.6e-05  3.943172  0.0
C  C188  1  0.65608814  0.54980276  0.82815038  1  1.012536  0.001056  0.144815  0.08948  3e-05  3.911669  0.0
C  C189  1  0.73460469  0.43537281  0.85526112  1  0.47277  -0.000762  0.005542  -0.022865  -0.001231  3.981171  -0.001
C  C190  1  0.72435304  0.41894670  0.79422938  1  0.21052  -0.003418  -0.005502  -0.125677  -0.002323  3.915543  -0.002
C  C191  1  0.65501247  0.51159971  0.71767493  1  0.298539  -0.000919  -0.050073  -0.05972  -0.000734  3.883352  -0.001
C  C192  1  0.79463827  0.55878479  0.68886642  1  -0.035747  -0.000145  -0.165107  -0.172316  -0.000129  3.949501  0.0
C  C193  1  0.89441322  0.66316906  0.72302049  1  -0.021939  0.0001  -0.161736  -0.169939  9.8e-05  3.939188  0.0
C  C194  1  0.03239765  0.70992765  0.69251050  1  0.288757  0.00121  -0.053092  -0.063529  0.000953  3.862558  0.001
C  C195  1  0.99967692  0.65256747  0.58317076  1  0.952005  -0.000729  0.144377  0.107675  0.000254  3.884954  0.0
C  C196  1  0.96136399  0.79824579  0.61436222  1  0.318297  0.002753  -0.006546  -0.127136  0.001878  3.9551  0.002
C  C197  1  0.92859372  0.77017001  0.55449521  1  0.384503  0.000698  -0.004273  -0.033177  0.000899  4.014876  0.001
N  N198  1  0.63494196  0.07399150  0.33121292  1  -1.204381  -0.073711  -0.386686  -0.298419  -0.051754  3.686036  -0.064
N  N199  1  0.67541541  0.11136211  0.42801333  1  -1.254306  -0.002503  -0.242637  0.045178  -0.001631  3.773841  -0.002
N  N200  1  0.82574935  0.51632040  0.37557296  1  -1.205241  0.072499  -0.371786  -0.269447  0.049229  3.627728  0.062
N  N201  1  0.81837344  0.49232771  0.27789954  1  -1.220851  0.002423  -0.246845  0.035652  0.001501  3.78743  0.002
N  N202  1  0.71679576  0.72322803  0.13174154  1  -1.23546  -0.002673  -0.247122  0.041177  -0.001682  3.773177  -0.002
N  N203  1  0.72659174  0.67902585  0.03581067  1  -1.213016  -0.074935  -0.379326  -0.292294  -0.052617  3.644847  -0.065
N  N204  1  0.56089787  0.92588112  0.16882796  1  -1.20702  -0.073661  -0.385499  -0.296012  -0.051714  3.68497  -0.064
N  N205  1  0.56394282  0.88854193  0.07201121  1  -1.237822  -0.002482  -0.24316  0.045626  -0.001616  3.7737  -0.002
N  N206  1  0.30926893  0.48366936  0.12443551  1  -1.203117  0.072244  -0.37144  -0.271073  0.048958  3.629664  0.062
N  N207  1  0.32585491  0.50771783  0.22211040  1  -1.222711  0.002404  -0.247238  0.034432  0.001491  3.789238  0.002
N  N208  1  0.99348156  0.27681444  0.36824823  1  -1.233173  0.002662  -0.247047  0.040013  0.001615  3.77585  0.002
N  N209  1  0.04724051  0.32095193  0.46419793  1  -1.211396  0.075216  -0.379852  -0.294243  0.050913  3.645823  0.065
N  N210  1  0.36505574  0.92600937  0.66878833  1  -1.204387  0.073695  -0.386702  -0.298477  0.049943  3.686004  0.064
N  N211  1  0.32458344  0.88863714  0.57198472  1  -1.254272  0.00248  -0.242627  0.04514  0.001545  3.774047  0.002
N  N212  1  0.17424773  0.48368120  0.62442440  1  -1.205242  0.072507  -0.371815  -0.269466  0.049235  3.627463  0.062
N  N213  1  0.18162798  0.50767473  0.72210184  1  -1.221053  0.002449  -0.246785  0.035737  0.001511  3.787393  0.002
N  N214  1  0.28320209  0.27676727  0.86825488  1  -1.235731  0.002693  -0.247185  0.041193  0.00162  3.77339  0.002
N  N215  1  0.27340854  0.32097433  0.96419753  1  -1.2125  0.074922  -0.379308  -0.292326  0.050771  3.644504  0.065
N  N216  1  0.43910059  0.07411737  0.83117178  1  -1.20694  0.073679  -0.385466  -0.295931  0.049928  3.684909  0.064
N  N217  1  0.43605762  0.11146052  0.92799060  1  -1.237836  0.002483  -0.243123  0.045773  0.001541  3.773758  0.002
N  N218  1  0.69073064  0.51632351  0.87555545  1  -1.203847  -0.072257  -0.371405  -0.271027  -0.050722  3.630273  -0.062
N  N219  1  0.67414689  0.49228538  0.77789016  1  -1.222384  -0.002392  -0.247242  0.034357  -0.001551  3.789279  -0.002
N  N220  1  0.00651750  0.72318721  0.63175265  1  -1.23317  0.002642  -0.247042  0.040026  0.001592  3.775783  0.002
N  N221  1  0.95276347  0.67905369  0.53580589  1  -1.211614  0.075164  -0.379829  -0.294226  0.050878  3.64604  0.065
O  O222  1  0.08274857  0.60779017  0.43225085  1  -1.14432  0.091936  -0.335508  -0.587685  0.060169  2.444831  0.084
O  O223  1  0.20077777  0.57698737  0.50765264  1  -1.179798  0.000161  -0.321264  -0.582945  -0.000183  2.278911  0.001
O  O224  1  0.70013675  0.60345666  0.46303133  1  -1.092546  0.132122  -0.327491  -0.530172  0.085328  2.242818  0.118
O  O225  1  0.82562251  0.74089491  0.41700432  1  -1.174303  0.0016  -0.351331  -0.584759  0.00067  2.090087  0.002
O  O226  1  0.57594924  0.86972149  0.28446421  1  -1.116193  -0.121019  -0.33978  -0.568098  -0.081217  2.372137  -0.109
O  O227  1  0.33856455  0.82368295  0.28460719  1  -1.174809  -0.002858  -0.341771  -0.560578  -0.001566  2.07626  -0.003
O  O228  1  0.47460743  0.39205124  0.06770700  1  -1.143963  0.092248  -0.335192  -0.588946  0.060267  2.444893  0.085
O  O229  1  0.62358461  0.42288246  0.99234611  1  -1.183106  0.001816  -0.321357  -0.583618  0.000756  2.277593  0.0
O  O230  1  0.09639653  0.39662561  0.03709383  1  -1.096011  0.132051  -0.327711  -0.530178  0.085482  2.242622  0.118
O  O231  1  0.08458751  0.25913105  0.08304992  1  -1.171971  0.001446  -0.351294  -0.585074  0.000575  2.089185  0.002
O  O232  1  0.70624698  0.13017955  0.21554652  1  -1.116281  -0.120942  -0.340374  -0.568583  -0.081167  2.371316  -0.109
O  O233  1  0.51488296  0.17627147  0.21552163  1  -1.173833  -0.002845  -0.34179  -0.560732  -0.001557  2.076724  -0.003
O  O234  1  0.91724599  0.39220441  0.56775077  1  -1.144268  0.09195  -0.33557  -0.587777  0.060174  2.444816  0.084
O  O235  1  0.79922560  0.42301116  0.49235017  1  -1.17997  0.000996  -0.321428  -0.583082  0.000356  2.278915  0.002
O  O236  1  0.29986252  0.39653952  0.53697217  1  -1.092828  0.132193  -0.327405  -0.53004  0.085378  2.243016  0.118
O  O237  1  0.17437305  0.25910363  0.58299893  1  -1.174218  0.001611  -0.351435  -0.584822  0.000615  2.090146  0.002
O  O238  1  0.42405061  0.13028173  0.71553679  1  -1.116151  0.121163  -0.33983  -0.568168  0.078455  2.371805  0.109
O  O239  1  0.66143960  0.17631321  0.71539412  1  -1.174988  0.003902  -0.34184  -0.560559  0.002102  2.076272  0.003
O  O240  1  0.52539025  0.60795351  0.93229062  1  -1.144039  -0.092218  -0.335091  -0.588835  -0.062462  2.445142  -0.085
O  O241  1  0.37642305  0.57712073  0.00765225  1  -1.182928  -0.001818  -0.321324  -0.583593  -0.000845  2.277584  0.0
O  O242  1  0.90360231  0.60336973  0.96290567  1  -1.095921  -0.132041  -0.327662  -0.530124  -0.088562  2.242586  -0.118
O  O243  1  0.91540880  0.74086507  0.91694919  1  -1.171808  -0.001438  -0.35128  -0.585091  -0.000688  2.089271  -0.002
O  O244  1  0.29374678  0.86981736  0.78445222  1  -1.115944  0.121039  -0.340343  -0.568577  0.078374  2.371168  0.109
O  O245  1  0.48511844  0.82373094  0.78447755  1  -1.173862  0.003004  -0.341771  -0.560717  0.00153  2.076757  0.003
