# generated using pymatgen
data_AgH5C5O4
_symmetry_space_group_name_H-M   'P 1'
_cell_length_a   5.50076399
_cell_length_b   10.13739240
_cell_length_c   11.97143069
_cell_angle_alpha   102.42806150
_cell_angle_beta   103.29633786
_cell_angle_gamma   90.00874099
_symmetry_Int_Tables_number   1
_chemical_formula_structural   AgH5C5O4
_chemical_formula_sum   'Ag4 H20 C20 O16'
_cell_volume   633.58249946
_cell_formula_units_Z   4
loop_
 _symmetry_equiv_pos_site_id
 _symmetry_equiv_pos_as_xyz
  1  'x, y, z'
loop_
 _atom_site_type_symbol
 _atom_site_label
 _atom_site_symmetry_multiplicity
 _atom_site_fract_x
 _atom_site_fract_y
 _atom_site_fract_z
 _atom_site_occupancy
 _atom_site_pbe_bader_spin_density
 _atom_site_pbe_cm5_charge
 _atom_site_pbe_ddec_charge
 _atom_site_pbe_ddec_spin_density
 _atom_site_pbe_ddec_sum_bond_order
 _atom_site_pbe_magmom
Ag  Ag0  1  0.72687761  0.95281455  0.04531162  1  0  0.413039  0.451863  0  1.893657  0
Ag  Ag1  1  0.68138937  0.54722935  0.95465277  1  0  0.412865  0.451237  0  1.894293  0
Ag  Ag2  1  0.27312170  0.04720112  0.95469666  1  0  0.413052  0.451928  0  1.893698  0
Ag  Ag3  1  0.31860253  0.45276709  0.04535213  1  0  0.412839  0.451187  0  1.894344  0
H  H4  1  0.50973581  0.84264086  0.49230236  1  0  0.107124  0.140303  0  1.005974  0
H  H5  1  0.01790285  0.65757731  0.50794573  1  0  0.106844  0.139869  0  1.006636  0
H  H6  1  0.49027146  0.15734140  0.50769490  1  0  0.107151  0.14043  0  1.006048  0
H  H7  1  0.98210423  0.34242216  0.49205794  1  0  0.106852  0.139828  0  1.006599  0
H  H8  1  0.64823714  0.90129360  0.38958433  1  0  0.111538  0.147202  0  0.997503  0
H  H9  1  0.25902660  0.59920812  0.61084412  1  0  0.111506  0.147067  0  0.996951  0
H  H10  1  0.35176978  0.09870387  0.61042147  1  0  0.111599  0.147297  0  0.997615  0
H  H11  1  0.74096397  0.40079536  0.38915272  1  0  0.111482  0.146982  0  0.996998  0
H  H12  1  0.09319544  0.86117505  0.38035357  1  0  0.09881  0.105235  0  0.981366  0
H  H13  1  0.71275453  0.63858567  0.61947113  1  0  0.099747  0.106415  0  0.982289  0
H  H14  1  0.90680351  0.13881734  0.61964883  1  0  0.098835  0.10526  0  0.981333  0
H  H15  1  0.28723435  0.36141983  0.38052506  1  0  0.099758  0.106382  0  0.982371  0
H  H16  1  0.23871035  0.98743236  0.33115930  1  0  0.102339  0.116254  0  0.992645  0
H  H17  1  0.90772195  0.51251887  0.66877270  1  0  0.102459  0.1166  0  0.991692  0
H  H18  1  0.76129623  0.01256107  0.66884825  1  0  0.102364  0.11629  0  0.992586  0
H  H19  1  0.09227731  0.48747755  0.33122544  1  0  0.10248  0.116675  0  0.991649  0
H  H20  1  0.99529592  0.75590432  0.17403702  1  0  0.114049  0.088525  0  0.991407  0
H  H21  1  0.82048551  0.74376230  0.82586083  1  0  0.114223  0.088256  0  0.991361  0
H  H22  1  0.00470367  0.24409613  0.82595770  1  0  0.114037  0.088489  0  0.991406  0
H  H23  1  0.17950489  0.25623917  0.17413730  1  0  0.114231  0.088303  0  0.991365  0
C  C24  1  0.51056230  0.69594629  0.33376461  1  0  0.239387  0.584425  0  4.03723  0
C  C25  1  0.17638979  0.80437726  0.66653769  1  0  0.238534  0.583742  0  4.039167  0
C  C26  1  0.48945041  0.30405515  0.66622830  1  0  0.239424  0.584621  0  4.036883  0
C  C27  1  0.82360490  0.19562929  0.33346681  1  0  0.238404  0.583658  0  4.038893  0
C  C28  1  0.49328848  0.83907514  0.39865508  1  0  -0.167962  -0.326475  0  3.917771  0
C  C29  1  0.09476629  0.66120239  0.60160925  1  0  -0.167343  -0.325291  0  3.917169  0
C  C30  1  0.50670842  0.16091621  0.60134108  1  0  -0.168118  -0.326893  0  3.917788  0
C  C31  1  0.90522171  0.33879302  0.39839005  1  0  -0.167262  -0.324996  0  3.917082  0
C  C32  1  0.23978590  0.88099622  0.33659871  1  0  -0.157667  -0.1706  0  3.871329  0
C  C33  1  0.90312495  0.61897427  0.66337901  1  0  -0.158559  -0.172913  0  3.870988  0
C  C34  1  0.76022622  0.11899719  0.66340522  1  0  -0.157685  -0.170562  0  3.871122  0
C  C35  1  0.09686886  0.38102416  0.33661642  1  0  -0.158608  -0.173033  0  3.871075  0
C  C36  1  0.19309243  0.78557342  0.21380217  1  0  0.00691  0.045437  0  3.782315  0
C  C37  1  0.97870868  0.71437229  0.78622189  1  0  0.007034  0.04657  0  3.781518  0
C  C38  1  0.80690501  0.21442497  0.78618527  1  0  0.00695  0.045488  0  3.78249  0
C  C39  1  0.02128936  0.28563021  0.21378223  1  0  0.00704  0.046566  0  3.781739  0
C  C40  1  0.31033408  0.84897687  0.13211513  1  0  0.209969  0.564833  0  4.149431  0
C  C41  1  0.17786283  0.65109625  0.86795878  1  0  0.210436  0.564733  0  4.145543  0
C  C42  1  0.68966128  0.15103774  0.86788420  1  0  0.210149  0.565326  0  4.1491  0
C  C43  1  0.82215138  0.34890017  0.13204090  1  0  0.210435  0.564653  0  4.145887  0
O  O44  1  0.53918779  0.83218467  0.13604972  1  0  -0.31173  -0.505537  0  2.402999  0
O  O45  1  0.40282603  0.66806259  0.86408719  1  0  -0.312251  -0.505439  0  2.397876  0
O  O46  1  0.46081733  0.16783303  0.86396035  1  0  -0.311775  -0.505746  0  2.403071  0
O  O47  1  0.59716273  0.33192168  0.13590685  1  0  -0.31231  -0.505492  0  2.397531  0
O  O48  1  0.16721574  0.91986883  0.07115447  1  0  -0.330326  -0.518778  0  2.489786  0
O  O49  1  0.09584221  0.58011538  0.92890997  1  0  -0.330309  -0.518648  0  2.488637  0
O  O50  1  0.83281186  0.08015085  0.92884910  1  0  -0.330403  -0.519133  0  2.489731  0
O  O51  1  0.90414704  0.41989221  0.07109916  1  0  -0.330253  -0.518531  0  2.489099  0
O  O52  1  0.66099329  0.61277902  0.35920277  1  0  -0.271903  -0.466499  0  2.174654  0
O  O53  1  0.30127859  0.88771628  0.64127431  1  0  -0.271892  -0.466624  0  2.176745  0
O  O54  1  0.33902868  0.38722240  0.64078524  1  0  -0.271909  -0.466582  0  2.174394  0
O  O55  1  0.69869440  0.11227715  0.35873312  1  0  -0.271808  -0.466677  0  2.176263  0
O  O56  1  0.31972005  0.66408894  0.23439945  1  0  -0.16355  -0.255891  0  2.504786  0
O  O57  1  0.08438707  0.83603353  0.76579275  1  0  -0.163371  -0.255841  0  2.505397  0
O  O58  1  0.68028310  0.33591047  0.76558960  1  0  -0.163563  -0.255953  0  2.504901  0
O  O59  1  0.91561348  0.16395584  0.23421094  1  0  -0.163339  -0.255793  0  2.505218  0
