# generated using pymatgen
data_CuH14C10IN4
_symmetry_space_group_name_H-M   'P 1'
_cell_length_a   8.14541303
_cell_length_b   8.55277036
_cell_length_c   19.42270000
_cell_angle_alpha   90.00000000
_cell_angle_beta   90.00000000
_cell_angle_gamma   114.05234710
_symmetry_Int_Tables_number   1
_chemical_formula_structural   CuH14C10IN4
_chemical_formula_sum   'Cu4 H56 C40 I4 N16'
_cell_volume   1235.61397102
_cell_formula_units_Z   4
loop_
 _symmetry_equiv_pos_site_id
 _symmetry_equiv_pos_as_xyz
  1  'x, y, z'
loop_
 _atom_site_type_symbol
 _atom_site_label
 _atom_site_symmetry_multiplicity
 _atom_site_fract_x
 _atom_site_fract_y
 _atom_site_fract_z
 _atom_site_occupancy
 _atom_site_hle17_bader_spin_density
 _atom_site_hle17_ddec_charge
 _atom_site_hle17_ddec_spin_density
 _atom_site_hle17_ddec_sum_bond_order
 _atom_site_hle17_magmom
 _atom_site_hse06_10hf_bader_spin_density
 _atom_site_hse06_10hf_ddec_charge
 _atom_site_hse06_10hf_ddec_spin_density
 _atom_site_hse06_10hf_ddec_sum_bond_order
 _atom_site_hse06_10hf_magmom
 _atom_site_hse06_bader_spin_density
 _atom_site_hse06_ddec_charge
 _atom_site_hse06_ddec_spin_density
 _atom_site_hse06_ddec_sum_bond_order
 _atom_site_hse06_magmom
 _atom_site_pbe_bader_charge
 _atom_site_pbe_bader_spin_density
 _atom_site_pbe_cm5_charge
 _atom_site_pbe_ddec_charge
 _atom_site_pbe_ddec_spin_density
 _atom_site_pbe_ddec_sum_bond_order
 _atom_site_pbe_magmom
Cu  Cu0  1  0.45721017  0.92069782  0.93751796  1  0  0.284898  0  2.092594  0  0  0.181195  0  2.582138  0  0  0.192466  0  2.529052  0  0.511245  0  0.351204  0.175861  0  2.616044  0
Cu  Cu1  1  0.04278782  0.57930417  0.43751641  1  0  0.284905  0  2.092588  0  0  0.181165  0  2.582118  0  0  0.192882  0  2.529108  0  0.511041  0  0.351196  0.175859  0  2.616039  0
Cu  Cu2  1  0.54278956  0.07930180  0.06248359  1  0  0.284954  0  2.092634  0  0  0.181292  0  2.582191  0  0  0.192895  0  2.52962  0  0.511378  0  0.351234  0.175963  0  2.616094  0
Cu  Cu3  1  0.95720945  0.42069545  0.56248050  1  0  0.284924  0  2.092651  0  0  0.181188  0  2.582191  0  0  0.19272  0  2.529183  0  0.511201  0  0.351225  0.17588  0  2.616118  0
H  H4  1  0.58746028  0.99464250  0.81265530  1  0  0.074203  0  0.947318  0  0  0.084306  0  1.024456  0  0  0.087551  0  1.019081  0  0.083076  0  0.102936  0.081757  0  1.027607  0
H  H5  1  0.91253679  0.50535821  0.31265581  1  0  0.074208  0  0.947298  0  0  0.084294  0  1.02445  0  0  0.087853  0  1.0192  0  0.083053  0  0.102943  0.081745  0  1.027603  0
H  H6  1  0.41253932  0.00535968  0.18734470  1  0  0.074189  0  0.947297  0  0  0.084266  0  1.024459  0  0  0.087516  0  1.02022  0  0.08313  0  0.102936  0.081722  0  1.027607  0
H  H7  1  0.08746239  0.49464013  0.68734419  1  0  0.074258  0  0.947324  0  0  0.084347  0  1.02446  0  0  0.087751  0  1.019176  0  0.083037  0  0.102952  0.081797  0  1.027615  0
H  H8  1  0.63719060  0.20775367  0.78782095  1  0  0.068635  0  0.929159  0  0  0.082966  0  0.998058  0  0  0.083334  0  0.997211  0  0.062282  0  0.102698  0.082531  0  0.997913  0
H  H9  1  0.86280963  0.29224358  0.28782147  1  0  0.068668  0  0.929161  0  0  0.082951  0  0.998089  0  0  0.083641  0  0.997419  0  0.06225  0  0.102706  0.082519  0  0.99794  0
H  H10  1  0.36280954  0.79224979  0.21217853  1  0  0.068632  0  0.929202  0  0  0.082945  0  0.998101  0  0  0.083351  0  0.998442  0  0.062326  0  0.10269  0.082516  0  0.99795  0
H  H11  1  0.13719281  0.70775091  0.71217699  1  0  0.068674  0  0.929163  0  0  0.082984  0  0.998062  0  0  0.083511  0  0.99735  0  0.062583  0  0.102705  0.08255  0  0.997915  0
H  H12  1  0.25636354  0.13369631  0.71858959  1  0  0.109485  0  0.962035  0  0  0.120124  0  1.026142  0  0  0.122447  0  1.023678  0  0.159027  0  0.121068  0.118182  0  1.027645  0
H  H13  1  0.24363900  0.36631118  0.21858547  1  0  0.109508  0  0.962021  0  0  0.120149  0  1.026121  0  0  0.122894  0  1.023606  0  0.159003  0  0.121069  0.118192  0  1.027639  0
H  H14  1  0.74363757  0.86631227  0.28141402  1  0  0.109455  0  0.962105  0  0  0.120087  0  1.026227  0  0  0.122681  0  1.024241  0  0.159003  0  0.121043  0.118151  0  1.027718  0
H  H15  1  0.75636387  0.63368716  0.78141093  1  0  0.109507  0  0.962051  0  0  0.120143  0  1.026163  0  0  0.122687  0  1.023696  0  0.159037  0  0.121107  0.118198  0  1.027667  0
H  H16  1  0.08991336  0.96453941  0.92808466  1  0  0.090663  0  0.994787  0  0  0.098949  0  1.062552  0  0  0.101181  0  1.060554  0  0.125765  0  0.103332  0.097108  0  1.064265  0
H  H17  1  0.41009419  0.53546770  0.42808518  1  0  0.090662  0  0.994696  0  0  0.098961  0  1.062459  0  0  0.101341  0  1.060315  0  0.125759  0  0.103334  0.097117  0  1.064176  0
H  H18  1  0.91008922  0.03545253  0.07191431  1  0  0.090642  0  0.99469  0  0  0.098931  0  1.062464  0  0  0.101305  0  1.060262  0  0.125809  0  0.103316  0.097089  0  1.064178  0
H  H19  1  0.58990895  0.46453704  0.57191534  1  0  0.090675  0  0.994767  0  0  0.098939  0  1.062572  0  0  0.101267  0  1.06049  0  0.125769  0  0.103343  0.097098  0  1.064282  0
H  H20  1  0.31479511  0.36384004  0.55004351  1  0  0.083056  0  1.00769  0  0  0.093327  0  1.073398  0  0  0.095342  0  1.071753  0  0.11761  0  0.097078  0.091753  0  1.07472  0
H  H21  1  0.18520166  0.13614825  0.05004505  1  0  0.082991  0  1.007635  0  0  0.093261  0  1.073354  0  0  0.095276  0  1.071693  0  0.117486  0  0.097075  0.091686  0  1.074678  0
H  H22  1  0.68520299  0.63616726  0.44995289  1  0  0.083078  0  1.007613  0  0  0.093334  0  1.073334  0  0  0.095352  0  1.071688  0  0.117641  0  0.097095  0.091763  0  1.074642  0
H  H23  1  0.81479737  0.86384113  0.94995341  1  0  0.083043  0  1.007687  0  0  0.093321  0  1.07339  0  0  0.095333  0  1.071744  0  0.117589  0  0.097094  0.091741  0  1.074709  0
H  H24  1  0.32416434  0.04392098  0.56124741  1  0  0.119204  0  0.994188  0  0  0.126292  0  1.059522  0  0  0.129825  0  1.058661  0  0.113767  0  0.09156  0.123753  0  1.060262  0
H  H25  1  0.17583065  0.45606603  0.06124277  1  0  0.119164  0  0.994292  0  0  0.126298  0  1.059562  0  0  0.129835  0  1.058689  0  0.11336  0  0.091564  0.123759  0  1.060308  0
H  H26  1  0.67583350  0.95609144  0.43875105  1  0  0.11913  0  0.994275  0  0  0.126292  0  1.059522  0  0  0.12983  0  1.058643  0  0.113717  0  0.091566  0.123754  0  1.060259  0
H  H27  1  0.82417383  0.54392463  0.93875362  1  0  0.119158  0  0.994301  0  0  0.126283  0  1.059596  0  0  0.129818  0  1.058731  0  0.113751  0  0.091553  0.123743  0  1.060339  0
H  H28  1  0.97460819  0.83133989  0.59284394  1  0  0.111391  0  0.96128  0  0  0.118458  0  1.031498  0  0  0.120942  0  1.029483  0  0.1193  0  0.117819  0.11664  0  1.032893  0
H  H29  1  0.52537987  0.66865698  0.09283879  1  0  0.11136  0  0.961251  0  0  0.118408  0  1.031499  0  0  0.120885  0  1.029503  0  0.119275  0  0.117788  0.116598  0  1.032872  0
H  H30  1  0.02539535  0.16865717  0.40715966  1  0  0.111506  0  0.961315  0  0  0.11855  0  1.031542  0  0  0.121052  0  1.02949  0  0.119323  0  0.117868  0.116737  0  1.032923  0
H  H31  1  0.47461617  0.33134264  0.90716018  1  0  0.111366  0  0.961234  0  0  0.118422  0  1.031468  0  0  0.120887  0  1.029497  0  0.11926  0  0.117786  0.116605  0  1.032857  0
H  H32  1  0.69598930  0.08215193  0.57436659  1  0  0.076356  0  0.954206  0  0  0.086635  0  1.031158  0  0  0.089228  0  1.02798  0  0.101963  0  0.096596  0.08461  0  1.033574  0
H  H33  1  0.80400863  0.41785428  0.07436659  1  0  0.076379  0  0.954206  0  0  0.086695  0  1.031117  0  0  0.089294  0  1.027919  0  0.102027  0  0.096635  0.084673  0  1.03353  0
H  H34  1  0.30400797  0.91784768  0.42563444  1  0  0.076374  0  0.954221  0  0  0.086654  0  1.031171  0  0  0.089254  0  1.027974  0  0.101978  0  0.09661  0.08463  0  1.033585  0
H  H35  1  0.19599780  0.58215815  0.92563135  1  0  0.076413  0  0.954204  0  0  0.086683  0  1.031152  0  0  0.089276  0  1.027971  0  0.101993  0  0.096638  0.084659  0  1.033567  0
H  H36  1  0.68162650  0.87508033  0.59590222  1  0  0.079523  0  0.941176  0  0  0.095067  0  1.006758  0  0  0.095117  0  1.008293  0  0.06408  0  0.102415  0.094949  0  1.005803  0
H  H37  1  0.81836443  0.62492038  0.09590428  1  0  0.07954  0  0.941131  0  0  0.095087  0  1.00674  0  0  0.095143  0  1.008251  0  0.064038  0  0.102428  0.094969  0  1.005788  0
H  H38  1  0.31838169  0.12492185  0.40409984  1  0  0.079565  0  0.94108  0  0  0.095122  0  1.006671  0  0  0.09518  0  1.008188  0  0.064045  0  0.102436  0.095003  0  1.005717  0
H  H39  1  0.18162890  0.37508436  0.90409830  1  0  0.079582  0  0.941176  0  0  0.095139  0  1.006737  0  0  0.095182  0  1.008282  0  0.064139  0  0.102438  0.095021  0  1.005785  0
H  H40  1  0.82989847  0.18244434  0.69381600  1  0  0.071154  0  0.935541  0  0  0.087189  0  1.000349  0  0  0.088386  0  1.000189  0  0.004819  0  0.091606  0.086254  0  1.000594  0
H  H41  1  0.67010054  0.31755291  0.19381497  1  0  0.071139  0  0.935591  0  0  0.087174  0  1.000383  0  0  0.088382  0  1.000188  0  0.004782  0  0.091607  0.086241  0  1.000625  0
H  H42  1  0.17010439  0.81755400  0.30618658  1  0  0.071191  0  0.935575  0  0  0.087206  0  1.000374  0  0  0.088435  0  1.00007  0  0.004824  0  0.091603  0.086269  0  1.000623  0
H  H43  1  0.32990177  0.68244414  0.80618194  1  0  0.071182  0  0.935534  0  0  0.087204  0  1.000326  0  0  0.088386  0  1.000177  0  0.004784  0  0.091614  0.086268  0  1.00057  0
H  H44  1  0.77861758  0.96562389  0.71509831  1  0  0.059931  0  0.943677  0  0  0.079254  0  1.004446  0  0  0.079425  0  1.005938  0  0.01545  0  0.087163  0.079071  0  1.003541  0
H  H45  1  0.72137061  0.53437041  0.21510089  1  0  0.059839  0  0.94378  0  0  0.079159  0  1.004541  0  0  0.079363  0  1.00592  0  0.015489  0  0.087123  0.078977  0  1.003636  0
H  H46  1  0.22137546  0.03437444  0.28490220  1  0  0.059857  0  0.943801  0  0  0.079208  0  1.004512  0  0  0.079418  0  1.005852  0  0.015438  0  0.087135  0.079026  0  1.003606  0
H  H47  1  0.27862651  0.46562024  0.78489911  1  0  0.059927  0  0.943646  0  0  0.079202  0  1.00444  0  0  0.079384  0  1.005903  0  0.015441  0  0.087146  0.079018  0  1.003534  0
H  H48  1  0.50406726  0.10812706  0.67058082  1  0  0.074874  0  0.939205  0  0  0.094579  0  0.997831  0  0  0.094694  0  0.999723  0  0.03878  0  0.093201  0.094368  0  0.996689  0
H  H49  1  0.99592603  0.39187402  0.17058236  1  0  0.074915  0  0.939251  0  0  0.094609  0  0.997898  0  0  0.094795  0  0.999683  0  0.039185  0  0.093232  0.094399  0  0.996753  0
H  H50  1  0.49593466  0.89187767  0.32941764  1  0  0.074897  0  0.939251  0  0  0.094612  0  0.997862  0  0  0.094772  0  0.999682  0  0.038769  0  0.093217  0.094401  0  0.996719  0
H  H51  1  0.00407493  0.60812559  0.82941713  1  0  0.074917  0  0.939256  0  0  0.094585  0  0.997933  0  0  0.094741  0  0.999788  0  0.039207  0  0.093199  0.094375  0  0.996792  0
H  H52  1  0.44955590  0.89325921  0.69434991  1  0  0.068972  0  0.9458  0  0  0.085374  0  1.011198  0  0  0.086533  0  1.011247  0  -0.004452  0  0.086452  0.084449  0  1.011248  0
H  H53  1  0.05043690  0.60673638  0.19434837  1  0  0.069032  0  0.945785  0  0  0.085425  0  1.0112  0  0  0.086629  0  1.011197  0  -0.004371  0  0.086481  0.084492  0  1.011258  0
H  H54  1  0.55044247  0.10674297  0.30565009  1  0  0.068981  0  0.945797  0  0  0.085386  0  1.011193  0  0  0.08654  0  1.011322  0  -0.004411  0  0.086455  0.084463  0  1.01124  0
H  H55  1  0.94956406  0.39326324  0.80564957  1  0  0.069005  0  0.945849  0  0  0.085403  0  1.011253  0  0  0.086582  0  1.011301  0  -0.004334  0  0.086456  0.08448  0  1.011303  0
H  H56  1  0.97823332  0.07690621  0.81107364  1  0  0.120594  0  0.973417  0  0  0.130385  0  1.033154  0  0  0.133623  0  1.032763  0  0.100463  0  0.102249  0.127948  0  1.033755  0
H  H57  1  0.52177404  0.42310769  0.31107004  1  0  0.120626  0  0.973424  0  0  0.130421  0  1.033146  0  0  0.133796  0  1.032611  0  0.100416  0  0.102294  0.127984  0  1.033746  0
H  H58  1  0.02176505  0.92309597  0.18892996  1  0  0.1206  0  0.973388  0  0  0.130399  0  1.033107  0  0  0.133773  0  1.032534  0  0.100456  0  0.102269  0.12796  0  1.033709  0
H  H59  1  0.47822979  0.57689577  0.68892893  1  0  0.120573  0  0.973448  0  0  0.130372  0  1.033166  0  0  0.133699  0  1.032699  0  0.10043  0  0.102265  0.127935  0  1.033766  0
C  C60  1  0.54365931  0.07362586  0.77887884  1  0  -0.016549  0  3.663309  0  0  -0.094694  0  3.928347  0  0  -0.081174  0  3.940732  0  0.294109  0  -0.05656  -0.096871  0  3.921286  0
C  C61  1  0.95634080  0.42637394  0.27887987  1  0  -0.016517  0  3.66333  0  0  -0.094536  0  3.928235  0  0  -0.083465  0  3.942229  0  0.29427  0  -0.056501  -0.09671  0  3.921164  0
C  C62  1  0.45634452  0.92637759  0.22112219  1  0  -0.016551  0  3.663361  0  0  -0.094629  0  3.928304  0  0  -0.090889  0  3.938565  0  0.293392  0  -0.056546  -0.096799  0  3.92123  0
C  C63  1  0.04365783  0.57362311  0.72112013  1  0  -0.01662  0  3.663507  0  0  -0.094697  0  3.928416  0  0  -0.082648  0  3.941825  0  0.294074  0  -0.056499  -0.09687  0  3.921351  0
C  C64  1  0.23992907  0.08956791  0.77161517  1  0  -0.012262  0  3.67732  0  0  -0.069467  0  3.927282  0  0  -0.050419  0  3.944945  0  0.322831  0  0.013133  -0.075053  0  3.91814  0
C  C65  1  0.26007660  0.41043830  0.27161208  1  0  -0.012456  0  3.677261  0  0  -0.069656  0  3.927226  0  0  -0.053054  0  3.946123  0  0.32282  0  0.013061  -0.075226  0  3.918091  0
C  C66  1  0.76007763  0.91043939  0.22838843  1  0  -0.012382  0  3.677367  0  0  -0.069605  0  3.927328  0  0  -0.060685  0  3.940766  0  0.32261  0  0.013091  -0.07518  0  3.918174  0
C  C67  1  0.73992736  0.58956260  0.72838586  1  0  -0.012343  0  3.677452  0  0  -0.069588  0  3.927411  0  0  -0.052019  0  3.945886  0  0.322827  0  0.013025  -0.075169  0  3.918269  0
C  C68  1  0.15610158  0.00232133  0.87864509  1  0  0.038995  0  3.744757  0  0  -0.00303  0  4.02057  0  0  0.005499  0  4.03121  0  0.406313  0  0.00498  -0.008183  0  4.011506  0
C  C69  1  0.34389877  0.49768104  0.37864303  1  0  0.03902  0  3.744718  0  0  -0.003037  0  4.02052  0  0  0.005811  0  4.031531  0  0.406421  0  0.004996  -0.008187  0  4.011457  0
C  C70  1  0.84389308  0.99766932  0.12135594  1  0  0.039007  0  3.744683  0  0  -0.002998  0  4.020515  0  0  0.004946  0  4.034306  0  0.406416  0  0.005035  -0.00814  0  4.011432  0
C  C71  1  0.65610193  0.50232370  0.62135594  1  0  0.039  0  3.744772  0  0  -0.003034  0  4.020617  0  0  0.005657  0  4.031523  0  0.406398  0  0.004992  -0.008182  0  4.011546  0
C  C72  1  0.20913637  0.24131251  0.56365902  1  0  0.030113  0  3.760886  0  0  -0.009805  0  4.032624  0  0  -0.002791  0  4.048403  0  0.413516  0  -0.002365  -0.01416  0  4.021923  0
C  C73  1  0.29086082  0.25867962  0.06365850  1  0  0.030322  0  3.760709  0  0  -0.009578  0  4.032463  0  0  -0.002558  0  4.048206  0  0.413679  0  -0.002279  -0.013933  0  4.021764  0
C  C74  1  0.79086542  0.75869479  0.43634253  1  0  0.030016  0  3.76098  0  0  -0.009902  0  4.032756  0  0  -0.002881  0  4.048514  0  0.413859  0  -0.002413  -0.014253  0  4.022049  0
C  C75  1  0.70913904  0.74131744  0.93633892  1  0  0.030201  0  3.760991  0  0  -0.009722  0  4.032715  0  0  -0.002713  0  4.048488  0  0.41346  0  -0.002331  -0.014067  0  4.022006  0
C  C76  1  0.21243520  0.07934405  0.56985743  1  0  -0.218148  0  3.825964  0  0  -0.233677  0  4.095953  0  0  -0.243241  0  4.116984  0  -0.06321  0  -0.12989  -0.227398  0  4.081645  0
C  C77  1  0.28755899  0.42064679  0.06986001  1  0  -0.218248  0  3.826267  0  0  -0.233812  0  4.096204  0  0  -0.24336  0  4.117188  0  -0.062973  0  -0.12995  -0.227537  0  4.081904  0
C  C78  1  0.78755458  0.92065812  0.43014102  1  0  -0.217982  0  3.826008  0  0  -0.233572  0  4.095921  0  0  -0.243117  0  4.116889  0  -0.063385  0  -0.129825  -0.227292  0  4.081612  0
C  C79  1  0.71244811  0.57935283  0.93014154  1  0  -0.218215  0  3.826221  0  0  -0.233766  0  4.096164  0  0  -0.243326  0  4.117177  0  -0.063323  0  -0.129907  -0.227488  0  4.081859  0
C  C80  1  0.03670456  0.96908989  0.58571053  1  0  0.001747  0  3.663656  0  0  -0.058263  0  3.921405  0  0  -0.049781  0  3.93636  0  0.374399  0  0.014694  -0.063347  0  3.910993  0
C  C81  1  0.46328892  0.53090441  0.08571053  1  0  0.001832  0  3.663728  0  0  -0.058112  0  3.921459  0  0  -0.049618  0  3.936352  0  0.374531  0  0.014759  -0.063191  0  3.911049  0
C  C82  1  0.96328903  0.03090973  0.41428638  1  0  0.001651  0  3.663811  0  0  -0.058346  0  3.921541  0  0  -0.049844  0  3.936439  0  0.377942  0  0.014663  -0.063428  0  3.911131  0
C  C83  1  0.53671326  0.46909520  0.91428844  1  0  0.001827  0  3.663661  0  0  -0.058143  0  3.921403  0  0  -0.04967  0  3.936376  0  0.37457  0  0.014738  -0.063226  0  3.910994  0
C  C84  1  0.75205851  0.01192165  0.60764054  1  0  -0.02427  0  3.648439  0  0  -0.099888  0  3.904886  0  0  -0.096645  0  3.915805  0  0.315433  0  -0.058721  -0.101805  0  3.89753  0
C  C85  1  0.74793545  0.48807816  0.10764106  1  0  -0.024319  0  3.648464  0  0  -0.099983  0  3.904999  0  0  -0.096729  0  3.915848  0  0.315338  0  -0.058778  -0.101905  0  3.897651  0
C  C86  1  0.24794108  0.98808053  0.39235997  1  0  -0.02432  0  3.648428  0  0  -0.100003  0  3.904911  0  0  -0.096737  0  3.91573  0  0.315234  0  -0.058794  -0.101923  0  3.897557  0
C  C87  1  0.25206291  0.51192402  0.89235894  1  0  -0.024426  0  3.648643  0  0  -0.10004  0  3.905066  0  0  -0.096793  0  3.915967  0  0.315224  0  -0.058805  -0.101963  0  3.897716  0
C  C88  1  0.73564130  0.04927682  0.68353473  1  0  -0.113256  0  3.677054  0  0  -0.151787  0  3.937601  0  0  -0.153419  0  3.952085  0  0.014156  0  -0.163264  -0.150555  0  3.927818  0
C  C89  1  0.76435212  0.45072171  0.18353576  1  0  -0.11321  0  3.67713  0  0  -0.151678  0  3.937639  0  0  -0.153133  0  3.951778  0  0.014076  0  -0.163243  -0.150446  0  3.927856  0
C  C90  1  0.26435475  0.95072280  0.31646681  1  0  -0.113247  0  3.677186  0  0  -0.151722  0  3.937634  0  0  -0.153194  0  3.951655  0  0.014184  0  -0.163196  -0.150492  0  3.927854  0
C  C91  1  0.23564897  0.54927535  0.81646424  1  0  -0.113352  0  3.677025  0  0  -0.151744  0  3.937427  0  0  -0.153283  0  3.951784  0  0.014189  0  -0.16326  -0.150509  0  3.927647  0
C  C92  1  0.54600112  0.02620432  0.70353401  1  0  -0.125603  0  3.692341  0  0  -0.164219  0  3.949477  0  0  -0.166173  0  3.962623  0  0.003566  0  -0.164283  -0.162567  0  3.938981  0
C  C93  1  0.95399175  0.47379293  0.20353504  1  0  -0.125739  0  3.692425  0  0  -0.164424  0  3.949633  0  0  -0.166083  0  3.963057  0  0.002818  0  -0.164411  -0.162765  0  3.939136  0
C  C94  1  0.45399547  0.97379658  0.29646651  1  0  -0.125645  0  3.692378  0  0  -0.164326  0  3.949529  0  0  -0.166464  0  3.96464  0  0.004192  0  -0.164348  -0.162669  0  3.939028  0
C  C95  1  0.04600866  0.52620541  0.79646496  1  0  -0.12565  0  3.692501  0  0  -0.164338  0  3.949685  0  0  -0.166145  0  3.963047  0  0.003007  0  -0.164359  -0.162679  0  3.939172  0
C  C96  1  0.10154996  0.05947635  0.81862048  1  0  -0.211681  0  3.808606  0  0  -0.224943  0  4.07441  0  0  -0.233712  0  4.090847  0  -0.071928  0  -0.122528  -0.219068  0  4.061317  0
C  C97  1  0.39845764  0.44054010  0.31861842  1  0  -0.211621  0  3.808622  0  0  -0.224878  0  4.074425  0  0  -0.233179  0  4.091202  0  -0.072021  0  -0.122547  -0.219002  0  4.061324  0
C  C98  1  0.89845238  0.94053223  0.18138055  1  0  -0.211588  0  3.808661  0  0  -0.224841  0  4.074457  0  0  -0.23397  0  4.094045  0  -0.071903  0  -0.122533  -0.218962  0  4.061355  0
C  C99  1  0.60154619  0.55946336  0.68138209  1  0  -0.211608  0  3.808731  0  0  -0.224854  0  4.074525  0  0  -0.233381  0  4.091228  0  -0.071975  0  -0.122525  -0.218979  0  4.061429  0
I  I100  1  0.78009829  0.18291680  0.95707085  1  0  -0.479582  0  1.339623  0  0  -0.420241  0  1.734434  0  0  -0.436388  0  1.700343  0  -0.526739  0  -0.215586  -0.408667  0  1.757061  0
I  I101  1  0.71990169  0.31708557  0.45707034  1  0  -0.479572  0  1.339692  0  0  -0.42019  0  1.734471  0  0  -0.436277  0  1.700338  0  -0.526656  0  -0.215584  -0.408631  0  1.75711  0
I  I102  1  0.21990526  0.81708026  0.04293121  1  0  -0.479574  0  1.339623  0  0  -0.420212  0  1.734397  0  0  -0.436312  0  1.700265  0  -0.526681  0  -0.215584  -0.408639  0  1.757024  0
I  I103  1  0.28009190  0.68291405  0.54292966  1  0  -0.479594  0  1.339697  0  0  -0.42022  0  1.734481  0  0  -0.436332  0  1.700365  0  -0.526772  0  -0.215591  -0.408659  0  1.757123  0
N  N104  1  0.04271926  0.23287094  0.57530570  1  0  -0.245803  0  3.252564  0  0  -0.204512  0  3.550518  0  0  -0.213809  0  3.558606  0  -0.730498  0  -0.284776  -0.198744  0  3.545154  0
N  N105  1  0.45727958  0.26712503  0.07530827  1  0  -0.245927  0  3.252698  0  0  -0.204672  0  3.55074  0  0  -0.21397  0  3.558788  0  -0.730726  0  -0.284812  -0.198896  0  3.545361  0
N  N106  1  0.95727843  0.76713252  0.42469379  1  0  -0.245759  0  3.252688  0  0  -0.204475  0  3.550634  0  0  -0.21377  0  3.558698  0  -0.730536  0  -0.284768  -0.198706  0  3.545267  0
N  N107  1  0.54272206  0.73287331  0.92468967  1  0  -0.245837  0  3.252553  0  0  -0.204549  0  3.550555  0  0  -0.213848  0  3.558643  0  -0.730583  0  -0.284768  -0.198771  0  3.54517  0
N  N108  1  0.93910585  0.06506138  0.58835641  1  0  0.062403  0  3.566691  0  0  0.187331  0  3.733271  0  0  0.177197  0  3.760578  0  -0.835539  0  -0.151464  0.192996  0  3.716591  0
N  N109  1  0.56088825  0.43493587  0.08835692  1  0  0.062478  0  3.566855  0  0  0.187338  0  3.733565  0  0  0.177202  0  3.760875  0  -0.835334  0  -0.15148  0.193002  0  3.716886  0
N  N110  1  0.06089007  0.93494080  0.41164359  1  0  0.062335  0  3.566798  0  0  0.187301  0  3.733322  0  0  0.177148  0  3.760673  0  -0.838884  0  -0.151479  0.192966  0  3.716642  0
N  N111  1  0.43911038  0.56506119  0.91164462  1  0  0.062453  0  3.566753  0  0  0.187302  0  3.733439  0  0  0.177179  0  3.760719  0  -0.835314  0  -0.151464  0.192966  0  3.716761  0
N  N112  1  0.31733898  0.99649009  0.86959589  1  0  -0.232908  0  3.229728  0  0  -0.194553  0  3.531621  0  0  -0.192798  0  3.541843  0  -0.716257  0  -0.278431  -0.189929  0  3.527823  0
N  N113  1  0.18266447  0.50351318  0.36959434  1  0  -0.232946  0  3.229682  0  0  -0.194557  0  3.531569  0  0  -0.194982  0  3.543188  0  -0.716231  0  -0.278439  -0.189938  0  3.527782  0
N  N114  1  0.68266211  0.00350697  0.13040617  1  0  -0.232971  0  3.229756  0  0  -0.194723  0  3.531751  0  0  -0.202666  0  3.537832  0  -0.716219  0  -0.278539  -0.190088  0  3.52795  0
N  N115  1  0.81733649  0.49648644  0.63040463  1  0  -0.232929  0  3.229723  0  0  -0.194591  0  3.531588  0  0  -0.194163  0  3.542711  0  -0.716226  0  -0.278439  -0.189972  0  3.527806  0
N  N116  1  0.36647796  0.04995158  0.80365758  1  0  0.053855  0  3.546335  0  0  0.177641  0  3.718566  0  0  0.137786  0  3.782269  0  -0.81332  0  -0.152338  0.184093  0  3.70091  0
N  N117  1  0.13352552  0.45004951  0.30365655  1  0  0.053947  0  3.546186  0  0  0.177686  0  3.718395  0  0  0.141281  0  3.782092  0  -0.813063  0  -0.152288  0.184128  0  3.700755  0
N  N118  1  0.63352190  0.95004547  0.19634448  1  0  0.054008  0  3.546146  0  0  0.177847  0  3.718266  0  0  0.167199  0  3.745662  0  -0.813318  0  -0.152213  0.184236  0  3.70073  0
N  N119  1  0.86647857  0.54994883  0.69634242  1  0  0.05387  0  3.546426  0  0  0.17773  0  3.71852  0  0  0.140023  0  3.782341  0  -0.813523  0  -0.152308  0.184172  0  3.70088  0
