# generated using pymatgen
data_ErH14C11NO8
_symmetry_space_group_name_H-M   'P 1'
_cell_length_a   8.32345204
_cell_length_b   11.98209254
_cell_length_c   13.15830000
_cell_angle_alpha   90.00000000
_cell_angle_beta   90.00000000
_cell_angle_gamma   96.48905080
_symmetry_Int_Tables_number   1
_chemical_formula_structural   ErH14C11NO8
_chemical_formula_sum   'Er4 H56 C44 N4 O32'
_cell_volume   1303.90113554
_cell_formula_units_Z   4
loop_
 _symmetry_equiv_pos_site_id
 _symmetry_equiv_pos_as_xyz
  1  'x, y, z'
loop_
 _atom_site_type_symbol
 _atom_site_label
 _atom_site_symmetry_multiplicity
 _atom_site_fract_x
 _atom_site_fract_y
 _atom_site_fract_z
 _atom_site_occupancy
 _atom_site_hle17_bader_spin_density
 _atom_site_hle17_ddec_charge
 _atom_site_hle17_ddec_spin_density
 _atom_site_hle17_ddec_sum_bond_order
 _atom_site_hle17_magmom
 _atom_site_hse06_10hf_bader_spin_density
 _atom_site_hse06_10hf_ddec_charge
 _atom_site_hse06_10hf_ddec_spin_density
 _atom_site_hse06_10hf_ddec_sum_bond_order
 _atom_site_hse06_10hf_magmom
 _atom_site_hse06_bader_spin_density
 _atom_site_hse06_ddec_charge
 _atom_site_hse06_ddec_spin_density
 _atom_site_hse06_ddec_sum_bond_order
 _atom_site_hse06_magmom
 _atom_site_pbe_bader_charge
 _atom_site_pbe_bader_spin_density
 _atom_site_pbe_cm5_charge
 _atom_site_pbe_ddec_charge
 _atom_site_pbe_ddec_spin_density
 _atom_site_pbe_ddec_sum_bond_order
 _atom_site_pbe_magmom
Er  Er0  1  0.00465770  0.33584372  0.59514071  1  0  2.243152  0  1.618719  0  0  2.08353  0  2.100698  0  0  2.219667  0  1.898091  0  2.174565  0  1.504991  2.04631  0  2.131899  0
Er  Er1  1  0.49534248  0.66415721  0.09513995  1  0  2.243136  0  1.618683  0  0  2.083501  0  2.100667  0  0  2.219648  0  1.898056  0  2.174626  0  1.504967  2.046287  0  2.131866  0
Er  Er2  1  0.99534296  0.66415721  0.40485929  1  0  2.243145  0  1.618704  0  0  2.083476  0  2.100739  0  0  2.21966  0  1.898072  0  2.174572  0  1.504973  2.046254  0  2.131942  0
Er  Er3  1  0.50465777  0.33584120  0.90485929  1  0  2.243129  0  1.618695  0  0  2.083441  0  2.100777  0  0  2.219648  0  1.898068  0  2.174594  0  1.504982  2.046222  0  2.131975  0
H  H4  1  0.80435345  0.52003435  0.61446387  1  0  0.447423  0  0.848596  0  0  0.415284  0  0.914719  0  0  0.426702  0  0.898047  0  0.660597  0  0.303069  0.407417  0  0.926368  0
H  H5  1  0.69564621  0.47996490  0.11446387  1  0  0.447443  0  0.848561  0  0  0.415302  0  0.914689  0  0  0.426726  0  0.898008  0  0.660594  0  0.303092  0.407437  0  0.926334  0
H  H6  1  0.19564841  0.47996658  0.38553537  1  0  0.447434  0  0.848585  0  0  0.415292  0  0.914712  0  0  0.426715  0  0.898032  0  0.660599  0  0.303077  0.407428  0  0.926356  0
H  H7  1  0.30435270  0.52003267  0.88553613  1  0  0.447331  0  0.848731  0  0  0.415258  0  0.914758  0  0  0.426683  0  0.898077  0  0.660614  0  0.303046  0.407395  0  0.926401  0
H  H8  1  0.77992453  0.46616016  0.72647910  1  0  0.449286  0  0.846553  0  0  0.419892  0  0.906521  0  0  0.431817  0  0.889364  0  0.657244  0  0.301971  0.411961  0  0.917993  0
H  H9  1  0.72007648  0.53383993  0.22647910  1  0  0.449278  0  0.846563  0  0  0.419884  0  0.906531  0  0  0.431813  0  0.88937  0  0.657246  0  0.301969  0.411954  0  0.918002  0
H  H10  1  0.22007720  0.53383993  0.27352014  1  0  0.449254  0  0.846606  0  0  0.419856  0  0.906577  0  0  0.431783  0  0.889419  0  0.657234  0  0.301955  0.411927  0  0.918046  0
H  H11  1  0.27992391  0.46615932  0.77352014  1  0  0.449275  0  0.846573  0  0  0.419876  0  0.906547  0  0  0.431803  0  0.889391  0  0.657243  0  0.301961  0.411946  0  0.918019  0
H  H12  1  0.93412920  0.26469239  0.80654036  1  0  0.44908  0  0.838671  0  0  0.421423  0  0.895396  0  0  0.432823  0  0.878979  0  0.648216  0  0.305882  0.413731  0  0.906573  0
H  H13  1  0.56587208  0.73530938  0.30653960  1  0  0.449076  0  0.838676  0  0  0.421422  0  0.895396  0  0  0.43282  0  0.878981  0  0.648132  0  0.305891  0.413731  0  0.906571  0
H  H14  1  0.06587147  0.73530854  0.19345964  1  0  0.449066  0  0.838687  0  0  0.421407  0  0.895417  0  0  0.43281  0  0.878996  0  0.648143  0  0.305871  0.413716  0  0.906593  0
H  H15  1  0.43412725  0.26469071  0.69345888  1  0  0.449042  0  0.838726  0  0  0.421381  0  0.895456  0  0  0.432787  0  0.879029  0  0.648213  0  0.305871  0.413689  0  0.906633  0
H  H16  1  0.12528737  0.25708152  0.79746624  1  0  0.450686  0  0.845369  0  0  0.419424  0  0.908865  0  0  0.43166  0  0.891201  0  0.648787  0  0.302365  0.411138  0  0.920935  0
H  H17  1  0.37471374  0.74291774  0.29746624  1  0  0.450734  0  0.845322  0  0  0.419452  0  0.908857  0  0  0.431686  0  0.891194  0  0.648784  0  0.302384  0.411167  0  0.920926  0
H  H18  1  0.87471182  0.74291774  0.20253300  1  0  0.450714  0  0.845345  0  0  0.419429  0  0.908887  0  0  0.431664  0  0.891223  0  0.648776  0  0.302361  0.411142  0  0.920957  0
H  H19  1  0.62528771  0.25708068  0.70253300  1  0  0.450696  0  0.845359  0  0  0.419422  0  0.908885  0  0  0.431657  0  0.89122  0  0.648778  0  0.302365  0.411135  0  0.920955  0
H  H20  1  0.15887106  0.20252443  0.37993282  1  0  0.0695  0  0.967478  0  0  0.078727  0  1.031771  0  0  0.081275  0  1.029483  0  0.050824  0  0.113874  0.076909  0  1.033293  0
H  H21  1  0.34112912  0.79747650  0.87993282  1  0  0.06946  0  0.967503  0  0  0.078728  0  1.031739  0  0  0.081276  0  1.029452  0  0.050853  0  0.113877  0.07691  0  1.033261  0
H  H22  1  0.84113279  0.79747398  0.62006870  1  0  0.069447  0  0.967512  0  0  0.078719  0  1.031747  0  0  0.081267  0  1.02946  0  0.05088  0  0.113851  0.076901  0  1.03327  0
H  H23  1  0.65886914  0.20252443  0.12006870  1  0  0.069447  0  0.967516  0  0  0.078723  0  1.031747  0  0  0.08127  0  1.029463  0  0.05085  0  0.113861  0.076904  0  1.033269  0
H  H24  1  0.06829165  0.05200528  0.25363763  1  0  0.112069  0  0.953053  0  0  0.122489  0  1.011376  0  0  0.125361  0  1.01105  0  0.100902  0  0.109891  0.120481  0  1.011559  0
H  H25  1  0.43171108  0.94799649  0.75363763  1  0  0.112136  0  0.952917  0  0  0.122528  0  1.011278  0  0  0.125398  0  1.010949  0  0.10096  0  0.10991  0.120518  0  1.011461  0
H  H26  1  0.93171142  0.94799565  0.74636313  1  0  0.112152  0  0.952952  0  0  0.122549  0  1.011303  0  0  0.125417  0  1.010978  0  0.100884  0  0.109917  0.120541  0  1.011486  0
H  H27  1  0.56828625  0.05200612  0.24636541  1  0  0.112151  0  0.952987  0  0  0.122519  0  1.011365  0  0  0.125394  0  1.011036  0  0.100832  0  0.109913  0.120511  0  1.011548  0
H  H28  1  0.81449627  0.92638432  0.28700668  1  0  0.112439  0  0.951065  0  0  0.120616  0  1.012126  0  0  0.124323  0  1.008901  0  0.143547  0  0.115361  0.117874  0  1.014554  0
H  H29  1  0.68550501  0.07361745  0.78700820  1  0  0.11243  0  0.951079  0  0  0.120581  0  1.012164  0  0  0.12429  0  1.008933  0  0.143531  0  0.115361  0.117839  0  1.014591  0
H  H30  1  0.18550573  0.07361745  0.71299180  1  0  0.112434  0  0.951094  0  0  0.120595  0  1.012147  0  0  0.124301  0  1.008924  0  0.143518  0  0.115357  0.117854  0  1.014574  0
H  H31  1  0.31449205  0.92638348  0.21299408  1  0  0.112431  0  0.951114  0  0  0.120635  0  1.012127  0  0  0.124345  0  1.008893  0  0.143542  0  0.115379  0.117893  0  1.014555  0
H  H32  1  0.65372057  0.96058413  0.44544052  1  0  0.128517  0  0.963695  0  0  0.133729  0  1.029795  0  0  0.138209  0  1.026438  0  0.170395  0  0.111171  0.130523  0  1.032143  0
H  H33  1  0.84627923  0.03941596  0.94544204  1  0  0.128507  0  0.963716  0  0  0.133742  0  1.029784  0  0  0.13822  0  1.02643  0  0.170397  0  0.11119  0.130538  0  1.03213  0
H  H34  1  0.34628009  0.03941680  0.55455720  1  0  0.128548  0  0.963638  0  0  0.133794  0  1.029692  0  0  0.138271  0  1.026339  0  0.170385  0  0.111232  0.130588  0  1.032038  0
H  H35  1  0.15372102  0.96058245  0.05455796  1  0  0.128575  0  0.963628  0  0  0.133817  0  1.029678  0  0  0.138297  0  1.026322  0  0.170402  0  0.111249  0.13061  0  1.032026  0
H  H36  1  0.51791337  0.22910329  0.50048714  1  0  0.115794  0  0.932762  0  0  0.133009  0  0.98638  0  0  0.134886  0  0.986152  0  0.043061  0  0.108811  0.131766  0  0.986247  0
H  H37  1  0.98208777  0.77089764  0.00048790  1  0  0.115813  0  0.932738  0  0  0.133019  0  0.98634  0  0  0.134897  0  0.986111  0  0.043049  0  0.1088  0.131786  0  0.986193  0
H  H38  1  0.48208489  0.77089764  0.49951286  1  0  0.115805  0  0.932761  0  0  0.132992  0  0.986364  0  0  0.13487  0  0.986136  0  0.043033  0  0.108782  0.131756  0  0.986227  0
H  H39  1  0.01791409  0.22910329  0.99951361  1  0  0.115814  0  0.932738  0  0  0.133024  0  0.98635  0  0  0.134905  0  0.986119  0  0.043073  0  0.108812  0.131781  0  0.986222  0
H  H40  1  0.56780081  0.37203256  0.52704985  1  0  0.124662  0  0.912422  0  0  0.141164  0  0.966481  0  0  0.144026  0  0.964967  0  0.053317  0  0.113702  0.139172  0  0.967394  0
H  H41  1  0.93219793  0.62796837  0.02704985  1  0  0.12471  0  0.912419  0  0  0.141178  0  0.966483  0  0  0.144041  0  0.964967  0  0.053301  0  0.113689  0.139189  0  0.967397  0
H  H42  1  0.43219759  0.62796921  0.47295015  1  0  0.124717  0  0.912422  0  0  0.141184  0  0.966465  0  0  0.144049  0  0.96495  0  0.05332  0  0.113692  0.139195  0  0.967379  0
H  H43  1  0.06780153  0.37203256  0.97295243  1  0  0.124675  0  0.912431  0  0  0.141173  0  0.96648  0  0  0.144036  0  0.964964  0  0.053331  0  0.113697  0.139191  0  0.967383  0
H  H44  1  0.47744988  0.41969273  0.34778125  1  0  0.078561  0  0.923644  0  0  0.097628  0  0.980597  0  0  0.099231  0  0.980051  0  0.056702  0  0.097844  0.096513  0  0.980773  0
H  H45  1  0.02255017  0.58030736  0.84778125  1  0  0.078576  0  0.923638  0  0  0.097653  0  0.980592  0  0  0.099257  0  0.980049  0  0.056696  0  0.097846  0.096538  0  0.980766  0
H  H46  1  0.52254958  0.58030820  0.65221799  1  0  0.078626  0  0.923654  0  0  0.097674  0  0.980611  0  0  0.099277  0  0.980067  0  0.056724  0  0.097872  0.096557  0  0.980788  0
H  H47  1  0.97744809  0.41969357  0.15221951  1  0  0.078566  0  0.923644  0  0  0.097635  0  0.980593  0  0  0.099237  0  0.980048  0  0.056671  0  0.09785  0.096491  0  0.980804  0
H  H48  1  0.42765814  0.27473747  0.32426377  1  0  0.064678  0  0.934696  0  0  0.085202  0  0.994044  0  0  0.085571  0  0.995073  0  0.032983  0  0.092996  0.084916  0  0.99331  0
H  H49  1  0.07233965  0.72526346  0.82426377  1  0  0.06469  0  0.934707  0  0  0.085221  0  0.994066  0  0  0.08559  0  0.995099  0  0.032978  0  0.093001  0.084934  0  0.993331  0
H  H50  1  0.57234012  0.72526346  0.67573623  1  0  0.064693  0  0.934721  0  0  0.085203  0  0.99408  0  0  0.085572  0  0.995111  0  0.032978  0  0.09299  0.084919  0  0.993345  0
H  H51  1  0.92765755  0.27473831  0.17573775  1  0  0.06467  0  0.934668  0  0  0.085187  0  0.994032  0  0  0.085556  0  0.99506  0  0.033  0  0.092967  0.084901  0  0.993292  0
H  H52  1  0.71832330  0.24280388  0.35436873  1  0  0.105013  0  0.944985  0  0  0.11787  0  1.00556  0  0  0.11924  0  1.006901  0  0.072083  0  0.099251  0.11702  0  1.004372  0
H  H53  1  0.78167530  0.75719622  0.85437025  1  0  0.105004  0  0.94504  0  0  0.117842  0  1.00561  0  0  0.119206  0  1.006952  0  0.07207  0  0.099247  0.116994  0  1.004426  0
H  H54  1  0.28167602  0.75719622  0.64562899  1  0  0.104997  0  0.945017  0  0  0.117838  0  1.005576  0  0  0.119204  0  1.006917  0  0.072062  0  0.099249  0.11699  0  1.004389  0
H  H55  1  0.21832028  0.24280304  0.14563127  1  0  0.105019  0  0.945007  0  0  0.117868  0  1.005584  0  0  0.119236  0  1.006928  0  0.071933  0  0.099245  0.117017  0  1.004397  0
H  H56  1  0.68820467  0.33252084  0.24949196  1  0  0.101793  0  0.952682  0  0  0.113386  0  1.019195  0  0  0.116076  0  1.017246  0  0.057221  0  0.101359  0.111625  0  1.020245  0
H  H57  1  0.81179393  0.66747925  0.74949348  1  0  0.101788  0  0.952697  0  0  0.11339  0  1.019171  0  0  0.116078  0  1.01722  0  0.057251  0  0.101374  0.111634  0  1.020224  0
H  H58  1  0.31179346  0.66747925  0.75050728  1  0  0.101818  0  0.952633  0  0  0.11339  0  1.019146  0  0  0.116075  0  1.017199  0  0.057249  0  0.101378  0.111631  0  1.020199  0
H  H59  1  0.18820419  0.33252084  0.25050804  1  0  0.101793  0  0.952674  0  0  0.113379  0  1.019188  0  0  0.116071  0  1.017239  0  0.057221  0  0.101359  0.11162  0  1.020238  0
C  C60  1  0.04780786  0.14692496  0.39188649  1  0  0.139141  0  3.720732  0  0  0.110917  0  3.979164  0  0  0.116458  0  4.000372  0  0.464326  0  0.046112  0.107374  0  3.966898  0
C  C61  1  0.45219487  0.85307681  0.89188649  1  0  0.139131  0  3.720871  0  0  0.110898  0  3.979264  0  0  0.11644  0  4.000472  0  0.464263  0  0.046086  0.107358  0  3.966997  0
C  C62  1  0.95219867  0.85307513  0.60811427  1  0  0.13916  0  3.720859  0  0  0.110918  0  3.979266  0  0  0.11646  0  4.000477  0  0.464318  0  0.04613  0.107378  0  3.966999  0
C  C63  1  0.54780326  0.14692328  0.10811503  1  0  0.139155  0  3.720883  0  0  0.110918  0  3.979269  0  0  0.11646  0  4.00048  0  0.464325  0  0.046128  0.107379  0  3.967001  0
C  C64  1  0.99763001  0.06296676  0.32177181  1  0  -0.10738  0  3.69387  0  0  -0.12045  0  3.943854  0  0  -0.125828  0  3.96329  0  0.063254  0  -0.078199  -0.116757  0  3.930011  0
C  C65  1  0.50237058  0.93703081  0.82177561  1  0  -0.107488  0  3.69392  0  0  -0.120545  0  3.943926  0  0  -0.125923  0  3.963359  0  0.063284  0  -0.078223  -0.116852  0  3.930082  0
C  C66  1  0.00237144  0.93703165  0.67822591  1  0  -0.107519  0  3.69389  0  0  -0.120602  0  3.943908  0  0  -0.125979  0  3.963344  0  0.063311  0  -0.078244  -0.116909  0  3.930067  0
C  C67  1  0.49762981  0.06296844  0.17822895  1  0  -0.107529  0  3.693926  0  0  -0.12058  0  3.943947  0  0  -0.125965  0  3.963384  0  0.063308  0  -0.078255  -0.116889  0  3.930105  0
C  C68  1  0.85516236  0.99300406  0.34029320  1  0  0.005358  0  3.680917  0  0  -0.015908  0  3.938021  0  0  -0.012626  0  3.953531  0  -0.137768  0  -0.059286  -0.017962  0  3.92739  0
C  C69  1  0.64483999  0.00699687  0.84029548  1  0  0.005428  0  3.680926  0  0  -0.015807  0  3.938013  0  0  -0.012523  0  3.953521  0  -0.137732  0  -0.059249  -0.01786  0  3.927381  0
C  C70  1  0.14484205  0.00699771  0.65970452  1  0  0.005394  0  3.681022  0  0  -0.015805  0  3.938066  0  0  -0.012519  0  3.953572  0  -0.13771  0  -0.059275  -0.017857  0  3.927431  0
C  C71  1  0.35515694  0.99300322  0.15970756  1  0  0.005421  0  3.680945  0  0  -0.015836  0  3.938001  0  0  -0.012547  0  3.953509  0  -0.137787  0  -0.059276  -0.017887  0  3.927367  0
C  C72  1  0.76770062  0.01047850  0.42787138  1  0  -0.104279  0  3.675353  0  0  -0.128081  0  3.925973  0  0  -0.131864  0  3.943207  0  0.041721  0  -0.073244  -0.125311  0  3.913635  0
C  C73  1  0.73230052  0.98952243  0.92787290  1  0  -0.104369  0  3.675354  0  0  -0.128158  0  3.926014  0  0  -0.13194  0  3.943244  0  0.041671  0  -0.073294  -0.125386  0  3.913675  0
C  C74  1  0.23230111  0.98952159  0.57212862  1  0  -0.104431  0  3.675328  0  0  -0.128222  0  3.926014  0  0  -0.132005  0  3.943243  0  0.041317  0  -0.073315  -0.125446  0  3.913671  0
C  C75  1  0.26769987  0.01047682  0.07212862  1  0  -0.104435  0  3.675363  0  0  -0.128236  0  3.926022  0  0  -0.132024  0  3.943253  0  0.041654  0  -0.073319  -0.125463  0  3.913683  0
C  C76  1  0.82510335  0.09752943  0.49327193  1  0  0.086479  0  3.784233  0  0  0.093915  0  4.025999  0  0  0.093704  0  4.050487  0  0.422761  0  0.107601  0.093656  0  4.012615  0
C  C77  1  0.67489659  0.90247150  0.99327269  1  0  0.086579  0  3.784188  0  0  0.093894  0  4.026133  0  0  0.093683  0  4.050616  0  0.422778  0  0.107591  0.093633  0  4.012749  0
C  C78  1  0.17489838  0.90247066  0.50672731  1  0  0.086692  0  3.78399  0  0  0.09394  0  4.026035  0  0  0.093727  0  4.050525  0  0.423153  0  0.107622  0.093674  0  4.012653  0
C  C79  1  0.32510232  0.09752607  0.00672731  1  0  0.086562  0  3.784067  0  0  0.093878  0  4.026003  0  0  0.093664  0  4.050488  0  0.422779  0  0.107505  0.093613  0  4.012621  0
C  C80  1  0.72773686  0.12258208  0.58531193  1  0  0.615222  0  3.950154  0  0  0.564162  0  4.254331  0  0  0.596858  0  4.248675  0  1.57313  0  0.210125  0.542048  0  4.259531  0
C  C81  1  0.77226548  0.87741885  0.08531269  1  0  0.615222  0  3.950327  0  0  0.564171  0  4.254532  0  0  0.596871  0  4.248871  0  1.573132  0  0.21013  0.54206  0  4.259729  0
C  C82  1  0.27227262  0.87742137  0.41468579  1  0  0.615133  0  3.950358  0  0  0.564089  0  4.254584  0  0  0.59679  0  4.248925  0  1.573229  0  0.210046  0.541981  0  4.259783  0
C  C83  1  0.22773597  0.12257956  0.91468655  1  0  0.615264  0  3.950193  0  0  0.564237  0  4.254366  0  0  0.596943  0  4.248695  0  1.573139  0  0.210161  0.542127  0  4.259561  0
C  C84  1  0.31718532  0.31937463  0.52039017  1  0  0.707616  0  3.831103  0  0  0.657213  0  4.134205  0  0  0.690003  0  4.133825  0  1.505674  0  0.206357  0.634273  0  4.139178  0
C  C85  1  0.18281487  0.68062630  0.02038941  1  0  0.707606  0  3.831183  0  0  0.657165  0  4.134307  0  0  0.689952  0  4.13393  0  1.505651  0  0.206297  0.634225  0  4.139284  0
C  C86  1  0.68281455  0.68062882  0.47960983  1  0  0.707697  0  3.831135  0  0  0.65721  0  4.134307  0  0  0.689998  0  4.133932  0  1.505644  0  0.206281  0.634272  0  4.139285  0
C  C87  1  0.81718432  0.31937295  0.97961059  1  0  0.707614  0  3.831089  0  0  0.657197  0  4.134188  0  0  0.689986  0  4.133816  0  1.505661  0  0.206345  0.634258  0  4.139166  0
C  C88  1  0.48591371  0.31304049  0.48121034  1  0  -0.27191  0  3.647786  0  0  -0.303311  0  3.891086  0  0  -0.308682  0  3.897276  0  0.033253  0  -0.161799  -0.298977  0  3.885445  0
C  C89  1  0.01408634  0.68695960  0.98121262  1  0  -0.271973  0  3.647867  0  0  -0.303261  0  3.891081  0  0  -0.308631  0  3.897274  0  0.033262  0  -0.16172  -0.298936  0  3.885436  0
C  C90  1  0.51408575  0.68696044  0.51878814  1  0  -0.272043  0  3.647978  0  0  -0.303282  0  3.891094  0  0  -0.308655  0  3.89729  0  0.033273  0  -0.161735  -0.298956  0  3.885458  0
C  C91  1  0.98591313  0.31304133  0.01879042  1  0  -0.271993  0  3.647835  0  0  -0.303365  0  3.891101  0  0  -0.308738  0  3.897288  0  0.033261  0  -0.161819  -0.299041  0  3.885461  0
C  C92  1  0.50916611  0.33578577  0.36773671  1  0  -0.04444  0  3.656298  0  0  -0.088451  0  3.915307  0  0  -0.087388  0  3.926632  0  -0.036094  0  -0.158075  -0.088707  0  3.906554  0
C  C93  1  0.99083369  0.66421432  0.86773747  1  0  -0.04448  0  3.656276  0  0  -0.08858  0  3.91531  0  0  -0.087527  0  3.926644  0  -0.036032  0  -0.158099  -0.088825  0  3.906562  0
C  C94  1  0.49083335  0.66421516  0.63226177  1  0  -0.044567  0  3.65645  0  0  -0.088605  0  3.915378  0  0  -0.08755  0  3.926711  0  -0.036099  0  -0.158114  -0.088852  0  3.906626  0
C  C95  1  0.00916577  0.33578661  0.13226481  1  0  -0.044427  0  3.656251  0  0  -0.08844  0  3.915236  0  0  -0.087377  0  3.92656  0  -0.036101  0  -0.158037  -0.088675  0  3.906483  0
C  C96  1  0.68307630  0.32510232  0.33259616  1  0  -0.279362  0  3.644704  0  0  -0.315527  0  3.891776  0  0  -0.320895  0  3.897343  0  -0.054184  0  -0.163641  -0.311404  0  3.886429  0
C  C97  1  0.81692110  0.67489778  0.83259768  1  0  -0.279374  0  3.644692  0  0  -0.31546  0  3.89166  0  0  -0.320809  0  3.897211  0  -0.054269  0  -0.163651  -0.311357  0  3.886344  0
C  C98  1  0.31692196  0.67489862  0.66740232  1  0  -0.279303  0  3.644666  0  0  -0.315396  0  3.891664  0  0  -0.320753  0  3.897224  0  -0.054273  0  -0.163668  -0.311283  0  3.886332  0
C  C99  1  0.18307689  0.32510148  0.16740384  1  0  -0.279399  0  3.644676  0  0  -0.315543  0  3.891758  0  0  -0.320918  0  3.897333  0  -0.054056  0  -0.163649  -0.31142  0  3.886405  0
C  C100  1  0.80106029  0.41700150  0.37826011  1  0  0.773374  0  3.775769  0  0  0.732522  0  4.061774  0  0  0.76775  0  4.056271  0  1.563707  0  0.237612  0.7091  0  4.06809  0
C  C101  1  0.69893897  0.58299523  0.87825783  1  0  0.773455  0  3.775555  0  0  0.732558  0  4.061575  0  0  0.767783  0  4.056071  0  1.563412  0  0.237605  0.709138  0  4.067898  0
C  C102  1  0.19894131  0.58299775  0.62173913  1  0  0.773264  0  3.77581  0  0  0.732356  0  4.061864  0  0  0.767583  0  4.056365  0  1.563441  0  0.237575  0.708938  0  4.06818  0
C  C103  1  0.30105981  0.41700150  0.12174141  1  0  0.773424  0  3.775562  0  0  0.732498  0  4.061656  0  0  0.767726  0  4.056155  0  1.563701  0  0.237512  0.709075  0  4.067973  0
N  N104  1  0.96351069  0.16550404  0.47627809  1  0  -0.448308  0  3.280451  0  0  -0.397474  0  3.543091  0  0  -0.422619  0  3.567172  0  -1.257605  0  -0.372646  -0.387646  0  3.528919  0
N  N105  1  0.53649072  0.83449857  0.97627885  1  0  -0.448306  0  3.280465  0  0  -0.397434  0  3.543138  0  0  -0.422583  0  3.567222  0  -1.257617  0  -0.372665  -0.387607  0  3.528969  0
N  N106  1  0.03649358  0.83449689  0.52372191  1  0  -0.44837  0  3.280576  0  0  -0.397472  0  3.543281  0  0  -0.422624  0  3.567367  0  -1.257672  0  -0.372683  -0.387642  0  3.529108  0
N  N107  1  0.46350980  0.16550152  0.02372191  1  0  -0.448267  0  3.280386  0  0  -0.397391  0  3.543065  0  0  -0.422546  0  3.567147  0  -1.257569  0  -0.372612  -0.38756  0  3.528892  0
O  O108  1  0.60723785  0.05752382  0.60992909  1  0  -0.564696  0  1.920317  0  0  -0.524541  0  2.144469  0  0  -0.544988  0  2.136002  0  -1.160999  0  -0.304516  -0.509938  0  2.14932  0
O  O109  1  0.89276062  0.94247543  0.10992985  1  0  -0.564651  0  1.920526  0  0  -0.524478  0  2.144664  0  0  -0.544928  0  2.136196  0  -1.161019  0  -0.304479  -0.509878  0  2.149515  0
O  O110  1  0.39275626  0.94247375  0.39007015  1  0  -0.564532  0  1.920752  0  0  -0.524353  0  2.14489  0  0  -0.544798  0  2.136418  0  -1.161074  0  -0.304386  -0.509754  0  2.149743  0
O  O111  1  0.10723830  0.05752214  0.89007091  1  0  -0.564711  0  1.920432  0  0  -0.524558  0  2.144571  0  0  -0.545009  0  2.1361  0  -1.161061  0  -0.304519  -0.509961  0  2.149422  0
O  O112  1  0.77717101  0.21635606  0.63173586  1  0  -0.767064  0  2.111679  0  0  -0.7026  0  2.364691  0  0  -0.742186  0  2.351768  0  -1.198826  0  -0.408266  -0.683012  0  2.3713  0
O  O113  1  0.72283134  0.78364488  0.13173586  1  0  -0.767098  0  2.111644  0  0  -0.702599  0  2.364632  0  0  -0.742186  0  2.35171  0  -1.198814  0  -0.408238  -0.68301  0  2.371239  0
O  O114  1  0.22282952  0.78364404  0.36826338  1  0  -0.767146  0  2.111505  0  0  -0.702657  0  2.364525  0  0  -0.742254  0  2.351605  0  -1.198802  0  -0.408286  -0.683067  0  2.371131  0
O  O115  1  0.27717132  0.21635354  0.86826338  1  0  -0.767079  0  2.111638  0  0  -0.7026  0  2.364632  0  0  -0.742198  0  2.351702  0  -1.198778  0  -0.408234  -0.683008  0  2.371234  0
O  O116  1  0.21611768  0.37175369  0.47097193  1  0  -0.72571  0  2.066546  0  0  -0.665834  0  2.312783  0  0  -0.700978  0  2.303471  0  -1.203991  0  -0.365205  -0.647455  0  2.318354  0
O  O117  1  0.28388062  0.62824304  0.97097269  1  0  -0.725661  0  2.066481  0  0  -0.665845  0  2.312827  0  0  -0.700996  0  2.303522  0  -1.204003  0  -0.365191  -0.647465  0  2.318397  0
O  O118  1  0.78388085  0.62824892  0.52902883  1  0  -0.725739  0  2.066528  0  0  -0.665856  0  2.312826  0  0  -0.701011  0  2.303519  0  -1.20394  0  -0.365174  -0.647476  0  2.318396  0
O  O119  1  0.71611696  0.37175369  0.02902883  1  0  -0.725711  0  2.066463  0  0  -0.665859  0  2.312779  0  0  -0.701014  0  2.30347  0  -1.203997  0  -0.365212  -0.647478  0  2.318348  0
O  O120  1  0.27245929  0.27097109  0.60404232  1  0  -0.69918  0  1.983859  0  0  -0.641412  0  2.222171  0  0  -0.67693  0  2.213595  0  -1.184868  0  -0.35433  -0.62296  0  2.227136  0
O  O121  1  0.22754358  0.72903152  0.10404156  1  0  -0.699154  0  1.983735  0  0  -0.641395  0  2.222112  0  0  -0.676909  0  2.213536  0  -1.184909  0  -0.354309  -0.622936  0  2.227055  0
O  O122  1  0.72754059  0.72903236  0.39595844  1  0  -0.699147  0  1.983802  0  0  -0.641361  0  2.222147  0  0  -0.676878  0  2.213576  0  -1.18491  0  -0.354275  -0.622902  0  2.227084  0
O  O123  1  0.77246097  0.27097109  0.89595768  1  0  -0.699123  0  1.983801  0  0  -0.641333  0  2.222101  0  0  -0.676862  0  2.213543  0  -1.18487  0  -0.354307  -0.622868  0  2.227029  0
O  O124  1  0.87928986  0.39813348  0.45773542  1  0  -0.769306  0  2.107468  0  0  -0.720186  0  2.381457  0  0  -0.76239  0  2.370279  0  -1.213553  0  -0.404834  -0.70189  0  2.387986  0
O  O125  1  0.62070740  0.60186577  0.95773542  1  0  -0.769374  0  2.107213  0  0  -0.720228  0  2.381207  0  0  -0.762433  0  2.370023  0  -1.213165  0  -0.404856  -0.701936  0  2.387755  0
O  O126  1  0.12071159  0.60186493  0.54226230  1  0  -0.769234  0  2.107493  0  0  -0.720071  0  2.381468  0  0  -0.76228  0  2.370288  0  -1.213182  0  -0.404771  -0.70178  0  2.388011  0
O  O127  1  0.37929097  0.39812844  0.04226534  1  0  -0.76926  0  2.10718  0  0  -0.720088  0  2.381194  0  0  -0.762298  0  2.370008  0  -1.213523  0  -0.40472  -0.701809  0  2.387767  0
O  O128  1  0.81390395  0.51381865  0.33599021  1  0  -0.733219  0  2.064009  0  0  -0.671111  0  2.30054  0  0  -0.708642  0  2.287976  0  -1.199194  0  -0.365394  -0.652017  0  2.306376  0
O  O129  1  0.68609932  0.48618060  0.83599097  1  0  -0.733199  0  2.064103  0  0  -0.671084  0  2.300673  0  0  -0.70862  0  2.288106  0  -1.199243  0  -0.365368  -0.651989  0  2.306509  0
O  O130  1  0.18609884  0.48618060  0.66400827  1  0  -0.733203  0  2.064039  0  0  -0.671084  0  2.300592  0  0  -0.708613  0  2.288034  0  -1.199237  0  -0.36541  -0.651991  0  2.306431  0
O  O131  1  0.31390454  0.51381781  0.16400903  1  0  -0.733227  0  2.064019  0  0  -0.671086  0  2.300569  0  0  -0.708614  0  2.288009  0  -1.199201  0  -0.365356  -0.651992  0  2.306406  0
O  O132  1  0.83143453  0.45778660  0.65850984  1  0  -0.932067  0  1.85252  0  0  -0.883226  0  2.059891  0  0  -0.913717  0  2.018247  0  -1.306208  0  -0.657534  -0.869766  0  2.083317  0
O  O133  1  0.66856527  0.54221350  0.15851060  1  0  -0.932094  0  1.852483  0  0  -0.883249  0  2.059854  0  0  -0.913749  0  2.018204  0  -1.306212  0  -0.657559  -0.869791  0  2.083278  0
O  O134  1  0.16856720  0.54221350  0.34148940  1  0  -0.932047  0  1.852522  0  0  -0.883186  0  2.059894  0  0  -0.913698  0  2.018251  0  -1.306209  0  -0.657531  -0.869735  0  2.083323  0
O  O135  1  0.33143378  0.45778492  0.84148940  1  0  -0.93201  0  1.852649  0  0  -0.883212  0  2.059937  0  0  -0.913721  0  2.018281  0  -1.306229  0  -0.657523  -0.869755  0  2.083357  0
O  O136  1  0.02878698  0.28057520  0.76084069  1  0  -0.932915  0  1.856744  0  0  -0.883976  0  2.063692  0  0  -0.915889  0  2.021262  0  -1.284986  0  -0.663374  -0.869999  0  2.087273  0
O  O137  1  0.47121200  0.71942573  0.26084069  1  0  -0.93297  0  1.856712  0  0  -0.884022  0  2.063663  0  0  -0.915941  0  2.021241  0  -1.284906  0  -0.663401  -0.870048  0  2.087243  0
O  O138  1  0.97121114  0.71942489  0.23915931  1  0  -0.932921  0  1.856736  0  0  -0.883964  0  2.063684  0  0  -0.915887  0  2.021255  0  -1.284896  0  -0.663356  -0.869986  0  2.087265  0
O  O139  1  0.52878557  0.28057100  0.73915931  1  0  -0.93289  0  1.85678  0  0  -0.883928  0  2.063715  0  0  -0.915858  0  2.021288  0  -1.284981  0  -0.663365  -0.869953  0  2.087301  0
