# generated using pymatgen
data_CuH14C14N8O9
_symmetry_space_group_name_H-M   'P 1'
_cell_length_a   7.30776065
_cell_length_b   10.11180948
_cell_length_c   12.80545186
_cell_angle_alpha   95.50981373
_cell_angle_beta   90.02021052
_cell_angle_gamma   111.15080529
_symmetry_Int_Tables_number   1
_chemical_formula_structural   CuH14C14N8O9
_chemical_formula_sum   'Cu2 H28 C28 N16 O18'
_cell_volume   877.80749560
_cell_formula_units_Z   2
loop_
 _symmetry_equiv_pos_site_id
 _symmetry_equiv_pos_as_xyz
  1  'x, y, z'
loop_
 _atom_site_type_symbol
 _atom_site_label
 _atom_site_symmetry_multiplicity
 _atom_site_fract_x
 _atom_site_fract_y
 _atom_site_fract_z
 _atom_site_occupancy
 _atom_site_hle17_ddec_charge
 _atom_site_hle17_ddec_spin_density
 _atom_site_hle17_ddec_sum_bond_order
 _atom_site_hle17_magmom
 _atom_site_hse06_10hf_ddec_charge
 _atom_site_hse06_10hf_ddec_spin_density
 _atom_site_hse06_10hf_ddec_sum_bond_order
 _atom_site_hse06_10hf_magmom
 _atom_site_hse06_ddec_charge
 _atom_site_hse06_ddec_spin_density
 _atom_site_hse06_ddec_sum_bond_order
 _atom_site_hse06_magmom
 _atom_site_pbe_cm5_charge
 _atom_site_pbe_ddec_charge
 _atom_site_pbe_ddec_spin_density
 _atom_site_pbe_ddec_sum_bond_order
 _atom_site_pbe_magmom
Cu  Cu0  1  0.09148174  0.00003292  0.74995655  1  0.885033  -0.697349  1.801702  -0.529  0.858608  -0.783323  2.195433  -0.64  0.947574  -0.847824  2.127709  -0.727  0.753325  0.802675  -0.735124  2.243148  -0.581
Cu  Cu1  1  0.90851763  0.99996707  0.25004373  1  0.884948  -0.697354  1.801835  -0.529  0.858565  -0.783327  2.195516  -0.64  0.947523  -0.847829  2.127797  -0.727  0.753324  0.802691  -0.735142  2.243125  -0.581
H  H2  1  0.39014911  0.75059358  0.25137885  1  0.410571  0.000108  0.870903  0.0  0.380244  7e-05  0.946936  0.0  0.3918  5.1e-05  0.934903  0.0  0.313617  0.372099  7.8e-05  0.955378  0.0
H  H3  1  0.63987279  0.24937307  0.24872640  1  0.410506  0.000101  0.870749  0.0  0.38046  6.4e-05  0.946299  0.0  0.392007  4.7e-05  0.934269  0.0  0.313722  0.372262  7.7e-05  0.954842  0.0
H  H4  1  0.60985027  0.24940644  0.74861909  1  0.410579  0.000106  0.87089  0.0  0.380249  7e-05  0.946919  0.0  0.391805  5.1e-05  0.934888  0.0  0.313622  0.372103  7.8e-05  0.955363  0.0
H  H5  1  0.36012354  0.75062907  0.75127249  1  0.410325  0.0001  0.871021  0.0  0.380323  6.4e-05  0.946461  0.0  0.39187  4.7e-05  0.934436  0.0  0.313679  0.372124  7.7e-05  0.955003  0.0
H  H6  1  0.68088668  0.96063993  0.80237689  1  0.419893  -1.9e-05  0.877478  0.0  0.395406  -2.9e-05  0.931986  0.0  0.40676  -1.6e-05  0.915216  0.0  0.289225  0.387349  -5.2e-05  0.943962  0.0
H  H7  1  0.72022504  0.03940167  0.69763549  1  0.42063  -3.6e-05  0.876545  0.0  0.396123  -4.7e-05  0.93101  0.0  0.40746  -2.8e-05  0.914262  0.0  0.289551  0.388177  -5.1e-05  0.942793  0.0
H  H8  1  0.31911352  0.03935898  0.19762409  1  0.419896  -2.1e-05  0.87746  0.0  0.395427  -2.9e-05  0.93194  0.0  0.406779  -1.6e-05  0.915172  0.0  0.289235  0.387371  -5.2e-05  0.943914  0.0
H  H9  1  0.27977622  0.96059937  0.30236644  1  0.420561  -3.8e-05  0.876642  0.0  0.396075  -4.7e-05  0.931068  0.0  0.407411  -2.8e-05  0.914318  0.0  0.289529  0.388127  -5.1e-05  0.942853  0.0
H  H10  1  0.49187131  0.24448816  0.40189999  1  0.28644  7.7e-05  0.956119  0.0  0.272043  1.5e-05  1.026299  0.0  0.278502  1.4e-05  1.020634  0.0  0.290002  0.267408  1.9e-05  1.030282  0.0
H  H11  1  0.24719162  0.75536938  0.09817784  1  0.286779  8e-05  0.957606  0.0  0.272175  2.2e-05  1.027808  0.0  0.278722  1.9e-05  1.022052  0.0  0.290041  0.267569  1.9e-05  1.031709  0.0
H  H12  1  0.50812889  0.75551077  0.59810021  1  0.286438  7.2e-05  0.956119  0.0  0.272036  1.5e-05  1.026314  0.0  0.278495  1.4e-05  1.020648  0.0  0.290017  0.267402  1.9e-05  1.030297  0.0
H  H13  1  0.75280744  0.24463273  0.90182339  1  0.286756  8.4e-05  0.957585  0.0  0.272068  2.2e-05  1.027902  0.0  0.278614  1.9e-05  1.022148  0.0  0.290011  0.267462  1.9e-05  1.031802  0.0
H  H14  1  0.28164392  0.26292392  0.36907776  1  0.298559  0.000209  0.910975  0.0  0.283845  7.9e-05  0.98456  0.0  0.289792  8.4e-05  0.978704  0.0  0.299657  0.279546  4e-05  0.988743  0.0
H  H15  1  0.01855590  0.73704423  0.13088871  1  0.298245  0.000231  0.911621  0.0  0.283501  9.4e-05  0.985374  0.0  0.28942  9.5e-05  0.979587  0.0  0.299573  0.279232  4.2e-05  0.989479  0.0
H  H16  1  0.71835575  0.73707395  0.63092079  1  0.298433  0.000193  0.911099  0.0  0.283733  7.9e-05  0.984663  0.0  0.289677  8.4e-05  0.978815  0.0  0.299647  0.279439  4e-05  0.988843  0.0
H  H17  1  0.98144179  0.26295788  0.86911252  1  0.298312  0.000235  0.911454  0.0  0.283509  9.4e-05  0.985296  0.0  0.289428  9.5e-05  0.979507  0.0  0.299588  0.279245  4.1e-05  0.9894  0.0
H  H18  1  0.25046448  0.03332774  0.51178176  1  0.138303  0.000243  0.93746  0.0  0.145185  0.000195  0.99961  0.0  0.148142  0.00016  0.995799  0.0  0.148767  0.142816  0.000209  1.002638  0.0
H  H19  1  0.21706173  0.96665110  0.98821981  1  0.1392  0.000241  0.936818  0.0  0.145148  0.00019  1.000304  0.0  0.148195  0.000156  0.996374  0.0  0.149007  0.142954  0.000209  1.002871  0.0
H  H20  1  0.74953245  0.96667011  0.48821913  1  0.138402  0.000235  0.937415  0.0  0.145279  0.000195  0.999567  0.0  0.148237  0.00016  0.995756  0.0  0.148799  0.142908  0.000209  1.002596  0.0
H  H21  1  0.78293764  0.03334889  0.01177969  1  0.13916  0.000241  0.936757  0.0  0.145097  0.00019  1.000271  0.0  0.148144  0.000156  0.996341  0.0  0.148983  0.142905  0.000209  1.002835  0.0
H  H22  1  0.35103667  0.47026608  0.59236911  1  0.112063  -0.000352  0.957323  -0.001  0.115069  -0.000277  1.031404  0.0  0.117968  -0.000205  1.028592  0.0  0.136372  0.11277  -0.000354  1.033614  0.0
H  H23  1  0.88094191  0.52978533  0.90753630  1  0.112338  -0.000371  0.956859  -0.001  0.115243  -0.000289  1.031048  0.0  0.118112  -0.000217  1.028249  0.0  0.136308  0.112986  -0.000354  1.033161  0.0
H  H24  1  0.64896163  0.52973180  0.40762944  1  0.112002  -0.00034  0.957336  -0.001  0.11504  -0.000277  1.031381  0.0  0.117936  -0.000206  1.028566  0.0  0.136377  0.112742  -0.000354  1.033589  0.0
H  H25  1  0.11905798  0.47021570  0.09246719  1  0.112354  -0.00037  0.956844  -0.001  0.115251  -0.000289  1.03104  0.0  0.118126  -0.000217  1.028235  0.0  0.136307  0.112995  -0.000354  1.03315  0.0
H  H26  1  0.90352033  0.55589293  0.67910637  1  0.116868  0.000106  0.985895  0.0  0.118667  -7e-06  1.058099  0.0  0.123294  1.8e-05  1.054578  0.0  0.109434  0.115302  -6.5e-05  1.060751  0.0
H  H27  1  0.34797292  0.44417179  0.82077632  1  0.116831  8.5e-05  0.985921  0.0  0.118587  -1.3e-05  1.058087  0.0  0.123278  1.5e-05  1.054516  0.0  0.109193  0.115182  -6.5e-05  1.060812  0.0
H  H28  1  0.09648367  0.44410813  0.32089399  1  0.116843  0.000105  0.985917  0.0  0.118644  -7e-06  1.05812  0.0  0.123271  1.8e-05  1.054601  0.0  0.109416  0.115276  -6.4e-05  1.060772  0.0
H  H29  1  0.65202180  0.55582713  0.17922465  1  0.116841  8.1e-05  0.985928  0.0  0.118596  -1.3e-05  1.058084  0.0  0.123287  1.5e-05  1.054513  0.0  0.109196  0.115186  -6.4e-05  1.060811  0.0
C  C30  1  0.25156741  0.13110386  0.55531899  1  0.151072  0.008244  3.581783  0.003  0.077285  0.002417  3.852398  -0.001  0.093704  0.004066  3.863156  0.001  0.163666  0.066811  0.001151  3.845408  -0.002
C  C31  1  0.12041010  0.86889773  0.94467159  1  0.148753  0.008098  3.582867  0.003  0.075912  0.002374  3.853873  -0.001  0.09232  0.00403  3.864482  0.001  0.163193  0.065538  0.001147  3.846679  -0.002
C  C32  1  0.74842815  0.86889400  0.44468112  1  0.150946  0.008316  3.581701  0.003  0.077148  0.002418  3.852294  -0.001  0.093566  0.004067  3.863053  0.001  0.163623  0.066674  0.001152  3.84531  -0.002
C  C33  1  0.87959086  0.13110544  0.05533051  1  0.148776  0.008107  3.58295  0.003  0.075875  0.002374  3.853938  -0.001  0.092282  0.004029  3.864551  0.001  0.163149  0.065504  0.001147  3.846737  -0.002
C  C34  1  0.29953226  0.35597427  0.59761004  1  0.130908  -0.00178  3.649544  -0.004  0.064923  -0.001367  3.919201  -0.003  0.075181  -0.000731  3.931303  -0.002  0.156791  0.058517  -0.001903  3.910806  -0.004
C  C35  1  0.94368808  0.64406947  0.90229979  1  0.128925  -0.00173  3.649121  -0.004  0.063052  -0.001346  3.919358  -0.003  0.07333  -0.000721  3.931456  -0.002  0.156235  0.056741  -0.001904  3.910883  -0.004
C  C36  1  0.70046764  0.64402679  0.40238954  1  0.130952  -0.001838  3.649623  -0.004  0.064922  -0.001365  3.919284  -0.003  0.075187  -0.000733  3.931382  -0.002  0.156801  0.058517  -0.001903  3.910883  -0.004
C  C37  1  0.05631265  0.35593051  0.09770205  1  0.128916  -0.001712  3.649132  -0.004  0.062995  -0.001347  3.919339  -0.003  0.073266  -0.00072  3.931446  -0.002  0.156194  0.056689  -0.001903  3.910853  -0.004
C  C38  1  0.07390125  0.64121459  0.54870129  1  -0.046506  -0.010293  3.694434  -0.011  -0.035593  -0.005573  3.935106  -0.007  -0.038525  -0.003526  3.952509  -0.005  -0.001946  -0.034034  -0.007558  3.923756  -0.008
C  C39  1  0.43312175  0.35881995  0.95121507  1  -0.045327  -0.010008  3.692018  -0.011  -0.03462  -0.005587  3.933266  -0.007  -0.0373  -0.003542  3.950407  -0.004  -0.001559  -0.032672  -0.007579  3.92166  -0.008
C  C40  1  0.92610108  0.35878861  0.45129769  1  -0.046514  -0.010262  3.694463  -0.011  -0.035621  -0.005575  3.935127  -0.007  -0.038552  -0.003528  3.95253  -0.005  -0.001986  -0.034058  -0.007559  3.923772  -0.008
C  C41  1  0.56688005  0.64118219  0.04878382  1  -0.045302  -0.010143  3.692021  -0.011  -0.034637  -0.005585  3.933297  -0.007  -0.037296  -0.003546  3.950409  -0.004  -0.00155  -0.032681  -0.007579  3.921683  -0.008
C  C42  1  0.12842309  0.60993825  0.44665044  1  -0.073063  -0.000354  3.733647  0.0  -0.064637  -0.00091  3.979269  -0.001  -0.070468  -0.000464  4.000079  0.0  -0.009181  -0.060709  -0.001646  3.965547  -0.002
C  C43  1  0.51864656  0.39005497  0.05335639  1  -0.072516  -0.000644  3.735457  -0.001  -0.063909  -0.001001  3.980437  -0.001  -0.06983  -0.000506  4.001364  0.0  -0.009301  -0.060155  -0.001657  3.966743  -0.002
C  C44  1  0.87157681  0.39006282  0.55334837  1  -0.073021  -0.000397  3.733671  0.0  -0.06453  -0.000908  3.979207  -0.001  -0.070361  -0.000463  4.000017  0.0  -0.009106  -0.060605  -0.001645  3.965491  -0.002
C  C45  1  0.48135828  0.60994503  0.94664311  1  -0.072595  -0.000495  3.735524  -0.001  -0.063957  -0.001004  3.980506  -0.001  -0.069888  -0.000501  4.001427  0.0  -0.009304  -0.060206  -0.001656  3.966816  -0.002
C  C46  1  0.94498332  0.53091773  0.60012467  1  -0.069681  -0.002495  3.665091  -0.002  -0.104625  -0.001394  3.918801  -0.001  -0.104811  -0.000768  3.936427  -0.001  -0.075134  -0.104629  -0.001802  3.907427  -0.002
C  C47  1  0.41431350  0.46912577  0.89979536  1  -0.070925  -0.002397  3.666472  -0.002  -0.105457  -0.001283  3.920037  -0.001  -0.105706  -0.000702  3.937461  -0.001  -0.075119  -0.105854  -0.001818  3.909119  -0.002
C  C48  1  0.05501659  0.46908335  0.39987336  1  -0.069639  -0.002529  3.665138  -0.002  -0.104579  -0.001393  3.918891  -0.001  -0.104764  -0.000767  3.936518  -0.001  -0.075098  -0.104581  -0.001802  3.90751  -0.002
C  C49  1  0.58568966  0.53087636  0.10020509  1  -0.070993  -0.002257  3.666356  -0.002  -0.1055  -0.001286  3.919937  -0.001  -0.105754  -0.000697  3.937351  -0.001  -0.075159  -0.105897  -0.001818  3.909013  -0.002
C  C50  1  0.15101372  0.78519851  0.61206724  1  0.669531  0.008017  3.871614  0.007  0.613439  0.00183  4.189922  0.002  0.65165  0.002453  4.178965  0.002  0.221665  0.587458  0.000999  4.196594  0.002
C  C51  1  0.36670145  0.21485131  0.88780693  1  0.669779  0.008098  3.871205  0.007  0.612409  0.001846  4.191575  0.002  0.650601  0.002462  4.180655  0.002  0.220797  0.5865  0.000976  4.198286  0.002
C  C52  1  0.84898839  0.21480149  0.38793226  1  0.669531  0.008032  3.871623  0.007  0.613449  0.00183  4.18992  0.002  0.651656  0.002454  4.178968  0.002  0.221661  0.587464  0.001  4.196599  0.002
C  C53  1  0.63330012  0.78514762  0.11219249  1  0.669887  0.008114  3.871059  0.007  0.612544  0.001845  4.191407  0.002  0.650729  0.002464  4.180481  0.002  0.220843  0.586627  0.000977  4.198124  0.002
C  C54  1  0.25013654  0.72484917  0.38402263  1  0.661777  -4e-06  3.80224  0.0  0.604468  -9.1e-05  4.110374  0.0  0.638239  -4.2e-05  4.101177  0.0  0.236943  0.581375  -0.000266  4.116355  0.0
C  C55  1  0.52548272  0.27512475  0.11604957  1  0.660479  8e-06  3.804284  0.0  0.603763  -0.00011  4.111561  0.0  0.637447  -4.5e-05  4.102526  0.0  0.237215  0.58093  -0.000266  4.11723  0.0
C  C56  1  0.74986610  0.27515189  0.61597695  1  0.661846  -1.1e-05  3.802244  0.0  0.604532  -9e-05  4.110353  0.0  0.638301  -4.2e-05  4.101157  0.0  0.237006  0.581437  -0.000266  4.11634  0.0
C  C57  1  0.47451771  0.72487738  0.88395010  1  0.660678  -2.5e-05  3.804086  0.0  0.603891  -0.00011  4.11146  0.0  0.637588  -4.5e-05  4.102411  0.0  0.237277  0.581059  -0.000267  4.117139  0.0
N  N58  1  0.32396516  0.26220701  0.51984614  1  0.070339  -0.00045  3.617941  -0.001  0.186681  -0.000444  3.804047  -0.001  0.174895  -0.000256  3.826065  -0.001  -0.15004  0.193721  -0.000642  3.789539  -0.001
N  N59  1  0.06172001  0.73778973  0.98013607  1  0.072901  -0.000427  3.616715  -0.001  0.189107  -0.000439  3.802325  -0.001  0.177335  -0.000249  3.824427  -0.001  -0.149259  0.19541  -0.000634  3.789193  -0.001
N  N60  1  0.67603124  0.73778978  0.48015389  1  0.07036  -0.000476  3.618006  -0.001  0.186784  -0.000445  3.804012  -0.001  0.174999  -0.000256  3.826029  -0.001  -0.150008  0.193817  -0.000641  3.789512  -0.001
N  N61  1  0.93827852  0.26221132  0.01986508  1  0.072848  -0.000438  3.616918  -0.001  0.189243  -0.000439  3.80228  -0.001  0.177471  -0.00025  3.824384  -0.001  -0.149165  0.195511  -0.000634  3.789209  -0.001
N  N62  1  0.18833086  0.14637715  0.65098468  1  -0.24682  -0.06449  3.288306  -0.084  -0.216151  -0.045485  3.627883  -0.063  -0.244509  -0.036871  3.647918  -0.055  -0.269527  -0.199165  -0.050183  3.61616  -0.066
N  N63  1  0.04201991  0.85368356  0.84896038  1  -0.24607  -0.064202  3.289998  -0.084  -0.215653  -0.045284  3.629496  -0.062  -0.244003  -0.036743  3.649607  -0.054  -0.269384  -0.198487  -0.050143  3.617613  -0.066
N  N64  1  0.81166714  0.85362285  0.34901482  1  -0.246701  -0.064506  3.288163  -0.084  -0.216063  -0.045486  3.627756  -0.063  -0.244418  -0.036872  3.647788  -0.055  -0.269481  -0.199089  -0.050184  3.61602  -0.066
N  N65  1  0.95798166  0.14631537  0.15103903  1  -0.246078  -0.064202  3.290019  -0.084  -0.215644  -0.045284  3.629502  -0.062  -0.243991  -0.036742  3.649608  -0.054  -0.269402  -0.198485  -0.050143  3.617599  -0.066
N  N66  1  0.21611425  0.28782696  0.67790073  1  -0.227966  -0.004626  2.955634  -0.006  -0.203575  -0.003628  3.243136  -0.004  -0.212393  -0.001623  3.261478  -0.002  -0.228679  -0.197036  -0.005576  3.230656  -0.006
N  N67  1  0.92846567  0.71226047  0.82199325  1  -0.227749  -0.004566  2.957673  -0.006  -0.203194  -0.003526  3.245291  -0.004  -0.211975  -0.001571  3.263637  -0.002  -0.228677  -0.196626  -0.005568  3.232664  -0.006
N  N68  1  0.78388405  0.71217090  0.32209860  1  -0.228018  -0.004594  2.955548  -0.006  -0.203627  -0.003629  3.243087  -0.004  -0.212446  -0.001621  3.261426  -0.002  -0.228727  -0.197087  -0.005574  3.230604  -0.006
N  N69  1  0.07153590  0.28773845  0.17800694  1  -0.227716  -0.004581  2.957651  -0.006  -0.203163  -0.003527  3.245265  -0.004  -0.211943  -0.001571  3.26361  -0.002  -0.228643  -0.196596  -0.005567  3.232631  -0.006
N  N70  1  0.39960367  0.29910973  0.42186527  1  -0.527248  -0.004102  2.893293  -0.005  -0.542689  -0.001646  3.127493  -0.002  -0.551762  -0.000854  3.125274  -0.001  -0.502798  -0.535331  -0.002778  3.128751  -0.003
N  N71  1  0.10034581  0.70083446  0.07814297  1  -0.528344  -0.004061  2.894945  -0.005  -0.54346  -0.001732  3.129354  -0.002  -0.5526  -0.000921  3.127075  -0.001  -0.502877  -0.535855  -0.002776  3.130612  -0.003
N  N72  1  0.60039464  0.70088814  0.57813328  1  -0.527131  -0.004076  2.89335  -0.005  -0.54261  -0.001645  3.127564  -0.002  -0.551685  -0.000853  3.125349  -0.001  -0.502827  -0.535254  -0.002777  3.128824  -0.003
N  N73  1  0.89965378  0.29916872  0.92185913  1  -0.528309  -0.00407  2.894845  -0.005  -0.543388  -0.001731  3.129377  -0.002  -0.552526  -0.000921  3.127097  -0.001  -0.502868  -0.535781  -0.002776  3.130635  -0.003
O  O74  1  0.02760841  0.84728472  0.62690293  1  -0.578273  -0.080133  2.101109  -0.113  -0.551602  -0.052164  2.390397  -0.08  -0.593241  -0.038914  2.383344  -0.065  -0.298719  -0.523656  -0.060674  2.395173  -0.088
O  O75  1  0.18124092  0.15274389  0.87294754  1  -0.578921  -0.080817  2.1007  -0.114  -0.551946  -0.052538  2.390788  -0.08  -0.593633  -0.039155  2.383665  -0.065  -0.298835  -0.523848  -0.060967  2.395577  -0.088
O  O76  1  0.97239096  0.15271528  0.37309579  1  -0.578337  -0.08014  2.101237  -0.113  -0.551647  -0.052164  2.390522  -0.08  -0.593285  -0.038914  2.383471  -0.065  -0.298745  -0.523699  -0.060674  2.395251  -0.088
O  O77  1  0.81875790  0.84725500  0.12705578  1  -0.578883  -0.080813  2.100714  -0.114  -0.551949  -0.052536  2.390797  -0.08  -0.593635  -0.039156  2.383677  -0.065  -0.298818  -0.523868  -0.060964  2.395582  -0.088
O  O78  1  0.32244463  0.83027166  0.65376447  1  -0.630339  3e-06  2.005976  -0.002  -0.589424  -0.000199  2.249409  -0.002  -0.615281  0.000807  2.236617  -0.001  -0.310586  -0.571412  -0.001333  2.258022  -0.004
O  O79  1  0.49315399  0.16983314  0.84618421  1  -0.629689  -0.000132  2.007729  -0.002  -0.587598  -0.000343  2.251126  -0.002  -0.613509  0.000715  2.238471  -0.001  -0.309504  -0.569813  -0.001331  2.259636  -0.004
O  O80  1  0.67755884  0.16972833  0.34623582  1  -0.630392  4e-06  2.005931  -0.002  -0.589484  -0.000199  2.249394  -0.002  -0.615341  0.000807  2.236603  -0.001  -0.310568  -0.571474  -0.001333  2.258007  -0.004
O  O81  1  0.50684431  0.83016473  0.15381434  1  -0.629763  -0.000146  2.007617  -0.002  -0.587717  -0.000343  2.251029  -0.002  -0.613633  0.000716  2.238384  -0.001  -0.309567  -0.569932  -0.001331  2.259542  -0.004
O  O82  1  0.28698453  0.85303018  0.41054976  1  -0.549728  0.000142  1.96234  0.0  -0.499258  4.1e-05  2.176386  0.0  -0.521047  6e-05  2.167509  0.0  -0.273359  -0.484422  -0.000104  2.182663  0.0
O  O83  1  0.43414298  0.14698682  0.08952352  1  -0.548917  1.2e-05  1.962826  0.0  -0.49892  -3e-05  2.177041  0.0  -0.520721  2.2e-05  2.168228  0.0  -0.273675  -0.484212  -0.000105  2.182688  0.0
O  O84  1  0.71302221  0.14697088  0.58944983  1  -0.549757  0.000152  1.962247  0.0  -0.499317  3.9e-05  2.176335  0.0  -0.521092  6.2e-05  2.167445  0.0  -0.273411  -0.484478  -0.000104  2.182611  0.0
O  O85  1  0.56585525  0.85301637  0.91047702  1  -0.549048  5.4e-05  1.962794  0.0  -0.498978  -3.1e-05  2.176995  0.0  -0.520783  2.3e-05  2.168173  0.0  -0.273711  -0.484271  -0.000105  2.182648  0.0
O  O86  1  0.31045113  0.67425857  0.29635028  1  -0.53633  0.00021  2.104263  0.0  -0.475928  9e-05  2.316949  0.0  -0.498808  8.7e-05  2.304876  0.0  -0.320257  -0.460033  -1e-06  2.324899  0.0
O  O87  1  0.63634170  0.32570587  0.20374869  1  -0.535997  0.000212  2.104664  0.0  -0.475955  8.4e-05  2.316996  0.0  -0.498819  8.5e-05  2.304983  0.0  -0.320318  -0.459789  -2e-06  2.324819  0.0
O  O88  1  0.68954771  0.32574037  0.70364836  1  -0.536367  0.000208  2.104277  0.0  -0.475961  9.1e-05  2.316958  0.0  -0.498845  8.6e-05  2.304889  0.0  -0.320276  -0.460067  -1e-06  2.324913  0.0
O  O89  1  0.36365765  0.67429409  0.79625472  1  -0.535965  0.000217  2.104802  0.0  -0.475913  8.3e-05  2.317176  0.0  -0.498783  8.5e-05  2.305161  0.0  -0.320304  -0.459745  -2e-06  2.325003  0.0
O  O90  1  0.77887015  0.99988395  0.74995829  1  -0.84622  0.001245  1.8647  0.0  -0.807092  0.000697  2.046641  -0.001  -0.826734  0.001044  2.008831  0.0  -0.605571  -0.79352  0.000316  2.073658  -0.001
O  O91  1  0.22113004  0.00011496  0.25004347  1  -0.846152  0.00125  1.864771  0.0  -0.807048  0.000698  2.046693  -0.001  -0.82668  0.001044  2.008887  0.0  -0.605557  -0.79349  0.000315  2.073701  -0.001
