# generated using pymatgen
data_AgH15C15N7O4
_symmetry_space_group_name_H-M   'P 1'
_cell_length_a   9.58043809
_cell_length_b   11.55992005
_cell_length_c   19.14306219
_cell_angle_alpha   89.99882547
_cell_angle_beta   89.99962208
_cell_angle_gamma   92.76481326
_symmetry_Int_Tables_number   1
_chemical_formula_structural   AgH15C15N7O4
_chemical_formula_sum   'Ag4 H60 C60 N28 O16'
_cell_volume   2117.60899849
_cell_formula_units_Z   4
loop_
 _symmetry_equiv_pos_site_id
 _symmetry_equiv_pos_as_xyz
  1  'x, y, z'
loop_
 _atom_site_type_symbol
 _atom_site_label
 _atom_site_symmetry_multiplicity
 _atom_site_fract_x
 _atom_site_fract_y
 _atom_site_fract_z
 _atom_site_occupancy
 _atom_site_pbe_bader_charge
 _atom_site_pbe_bader_spin_density
 _atom_site_pbe_cm5_charge
 _atom_site_pbe_ddec_charge
 _atom_site_pbe_ddec_spin_density
 _atom_site_pbe_ddec_sum_bond_order
 _atom_site_pbe_magmom
Ag  Ag0  1  0.37788824  0.92650045  0.20459560  1  0.623094  0  0.479305  0.305237  0  2.034033  0
Ag  Ag1  1  0.87787352  0.92651260  0.29541199  1  0.623048  0  0.479311  0.305204  0  2.034231  0
Ag  Ag2  1  0.62212266  0.07347983  0.79540676  1  0.623074  0  0.479324  0.305282  0  2.034178  0
Ag  Ag3  1  0.12211832  0.07349413  0.70458462  1  0.623082  0  0.479323  0.305333  0  2.034054  0
H  H4  1  0.87086564  0.92905093  0.05716954  1  0.086082  0  0.111165  0.093285  0  0.992292  0
H  H5  1  0.37086316  0.92906330  0.44283021  1  0.085903  0  0.111176  0.093284  0  0.99225  0
H  H6  1  0.12915112  0.07095109  0.94283177  1  0.086026  0  0.111201  0.09335  0  0.992273  0
H  H7  1  0.62914856  0.07094469  0.55716536  1  0.085968  0  0.111159  0.093307  0  0.992231  0
H  H8  1  0.92406240  0.89145144  0.14315541  1  0.111336  0  0.105861  0.085196  0  1.040785  0
H  H9  1  0.42405475  0.89146054  0.35684411  1  0.111199  0  0.105822  0.085067  0  1.040857  0
H  H10  1  0.07595230  0.10855141  0.85685061  1  0.111364  0  0.10585  0.08514  0  1.040918  0
H  H11  1  0.57595167  0.10854474  0.64314676  1  0.111399  0  0.105805  0.085108  0  1.040943  0
H  H12  1  0.07421462  0.74664512  0.09909218  1  0.022107  0  0.095934  0.068897  0  1.006144  0
H  H13  1  0.57420315  0.74663994  0.40090930  1  0.02235  0  0.095951  0.068898  0  1.006174  0
H  H14  1  0.92578958  0.25335580  0.90092429  1  0.022528  0  0.095952  0.068857  0  1.005951  0
H  H15  1  0.42577539  0.25334058  0.59907269  1  0.022246  0  0.095998  0.06892  0  1.005947  0
H  H16  1  0.02942024  0.79807566  0.01430769  1  0.068201  0  0.100675  0.07927  0  1.001989  0
H  H17  1  0.52941056  0.79806506  0.48569224  1  0.068403  0  0.10069  0.079273  0  1.002053  0
H  H18  1  0.97060245  0.20191523  0.98570407  1  0.068696  0  0.100679  0.079268  0  1.001826  0
H  H19  1  0.47059477  0.20190386  0.51429392  1  0.068356  0  0.100734  0.079285  0  1.001784  0
H  H20  1  0.99085327  0.66836208  0.91932928  1  0.088776  0  0.097995  0.106416  0  1.02455  0
H  H21  1  0.49079127  0.66834568  0.58067062  1  0.089125  0  0.097928  0.106336  0  1.024586  0
H  H22  1  0.00918196  0.33162906  0.08068771  1  0.088691  0  0.097796  0.106211  0  1.024508  0
H  H23  1  0.50918619  0.33163395  0.41930719  1  0.088746  0  0.097801  0.106278  0  1.024611  0
H  H24  1  0.00844290  0.53380916  0.12821488  1  0.070099  0  0.095101  0.092991  0  1.021295  0
H  H25  1  0.50845732  0.53381845  0.37178531  1  0.070047  0  0.095125  0.093006  0  1.021434  0
H  H26  1  0.99157253  0.46618332  0.87180106  1  0.070554  0  0.094994  0.092831  0  1.021158  0
H  H27  1  0.49151800  0.46615940  0.62819824  1  0.070558  0  0.095078  0.092991  0  1.021122  0
H  H28  1  0.88132363  0.08421933  0.11952693  1  0.200811  0  0.123938  0.126747  0  1.064792  0
H  H29  1  0.38131856  0.08422077  0.38047087  1  0.200948  0  0.123894  0.12669  0  1.064806  0
H  H30  1  0.11869028  0.91579215  0.88048274  1  0.200765  0  0.123957  0.126705  0  1.064869  0
H  H31  1  0.61867930  0.91577743  0.61952261  1  0.200965  0  0.123873  0.126638  0  1.064865  0
H  H32  1  0.77757566  0.26822649  0.18824640  1  0.083282  0  0.115507  0.139014  0  0.991055  0
H  H33  1  0.27757798  0.26823384  0.31174630  1  0.083192  0  0.115515  0.138984  0  0.990931  0
H  H34  1  0.22242228  0.73177430  0.81176954  1  0.082981  0  0.115546  0.139089  0  0.990951  0
H  H35  1  0.72242314  0.73176874  0.68824823  1  0.083252  0  0.115541  0.139006  0  0.990893  0
H  H36  1  0.53131066  0.17973707  0.24772166  1  0.105769  0  0.127333  0.115937  0  0.977448  0
H  H37  1  0.03130867  0.17974722  0.25227664  1  0.105822  0  0.127325  0.115961  0  0.977429  0
H  H38  1  0.46868607  0.82025850  0.75228226  1  0.105859  0  0.127345  0.116021  0  0.977388  0
H  H39  1  0.96869563  0.82025716  0.74771893  1  0.105832  0  0.127305  0.115923  0  0.977405  0
H  H40  1  0.72302227  0.82727062  0.98347312  1  0.15843  0  0.127302  0.126034  0  1.051643  0
H  H41  1  0.22302254  0.82728183  0.51653038  1  0.158582  0  0.127284  0.126092  0  1.051674  0
H  H42  1  0.27698904  0.17272351  0.01652767  1  0.158542  0  0.127218  0.126008  0  1.051713  0
H  H43  1  0.77698404  0.17272865  0.48346937  1  0.158517  0  0.127238  0.125969  0  1.051676  0
H  H44  1  0.46879739  0.81730453  0.91853050  1  0.133584  0  0.104106  0.131777  0  1.041757  0
H  H45  1  0.96879329  0.81729295  0.58147021  1  0.13352  0  0.1041  0.131726  0  1.041919  0
H  H46  1  0.53122595  0.18270800  0.08146089  1  0.133562  0  0.104117  0.131802  0  1.041863  0
H  H47  1  0.03121922  0.18270639  0.41853163  1  0.133443  0  0.104099  0.131755  0  1.041848  0
H  H48  1  0.28075911  0.85618120  0.02609133  1  0.07162  0  0.118468  0.108462  0  1.013258  0
H  H49  1  0.78076260  0.85618682  0.47391278  1  0.071581  0  0.118498  0.108456  0  1.013332  0
H  H50  1  0.71925078  0.14383541  0.97389797  1  0.071622  0  0.118516  0.108574  0  1.013256  0
H  H51  1  0.21924311  0.14382969  0.52609220  1  0.071381  0  0.118489  0.108509  0  1.013377  0
H  H52  1  0.54037785  0.66900810  0.12636233  1  0.156321  0  0.13762  0.133095  0  0.987197  0
H  H53  1  0.04036084  0.66902598  0.37366217  1  0.155996  0  0.137671  0.133068  0  0.987072  0
H  H54  1  0.45961598  0.33099520  0.87364211  1  0.156191  0  0.13761  0.133052  0  0.98728  0
H  H55  1  0.95961800  0.33099954  0.62635377  1  0.156138  0  0.137624  0.13306  0  0.987166  0
H  H56  1  0.58031078  0.53451156  0.24257963  1  0.104285  0  0.114724  0.140095  0  0.994397  0
H  H57  1  0.08022127  0.53453020  0.25743703  1  0.103606  0  0.114704  0.140129  0  0.994163  0
H  H58  1  0.41970377  0.46548609  0.75741907  1  0.103911  0  0.114755  0.140201  0  0.99436  0
H  H59  1  0.91968736  0.46548702  0.74257421  1  0.104064  0  0.114737  0.140039  0  0.99444  0
H  H60  1  0.75683255  0.67310171  0.32527996  1  0.101403  0  0.124684  0.108799  0  0.995477  0
H  H61  1  0.25674156  0.67310234  0.17471869  1  0.101183  0  0.124753  0.108938  0  0.995205  0
H  H62  1  0.24319856  0.32689107  0.67471456  1  0.10145  0  0.124649  0.108719  0  0.995525  0
H  H63  1  0.74317562  0.32688649  0.82527897  1  0.101505  0  0.124682  0.108722  0  0.995532  0
C  C64  1  0.70099503  0.88037476  0.12897683  1  1.036378  0  0.314007  0.287586  0  3.833145  0
C  C65  1  0.20099958  0.88037930  0.37101940  1  1.035959  0  0.314017  0.287266  0  3.833364  0
C  C66  1  0.29900501  0.11962694  0.87102031  1  1.03631  0  0.313904  0.287196  0  3.833318  0
C  C67  1  0.79900370  0.11962593  0.62897825  1  1.036495  0  0.313957  0.287382  0  3.833085  0
C  C68  1  0.84989781  0.86823241  0.10082651  1  0.447525  0  -0.06504  -0.111489  0  3.935685  0
C  C69  1  0.34989376  0.86824189  0.39917355  1  0.447688  0  -0.065016  -0.111173  0  3.935368  0
C  C70  1  0.15010739  0.13176679  0.89917742  1  0.447599  0  -0.065027  -0.111415  0  3.935801  0
C  C71  1  0.65010122  0.13176490  0.60081888  1  0.447528  0  -0.064962  -0.111266  0  3.935529  0
C  C72  1  0.00117800  0.73367193  0.05496308  1  0.409386  0  -0.068431  -0.019246  0  3.901935  0
C  C73  1  0.50116383  0.73366694  0.44503776  1  0.409016  0  -0.068513  -0.019281  0  3.902123  0
C  C74  1  0.99884282  0.26632584  0.94505234  1  0.408323  0  -0.06845  -0.019198  0  3.901642  0
C  C75  1  0.49882513  0.26631291  0.55494579  1  0.409677  0  -0.068649  -0.019493  0  3.901825  0
C  C76  1  0.00231672  0.61322374  0.02650444  1  -0.047696  0  -0.017655  0.083084  0  3.997229  0
C  C77  1  0.50228445  0.61322003  0.47349321  1  -0.047872  0  -0.017678  0.083063  0  3.997191  0
C  C78  1  0.99770697  0.38676544  0.97350785  1  -0.047611  0  -0.017729  0.082964  0  3.996883  0
C  C79  1  0.49767492  0.38674799  0.52648460  1  -0.048066  0  -0.017522  0.083426  0  3.996953  0
C  C80  1  0.99649909  0.59411646  0.95428392  1  0.044899  0  -0.093493  -0.130762  0  3.984601  0
C  C81  1  0.49645543  0.59410333  0.54571219  1  0.04469  0  -0.093336  -0.130471  0  3.984442  0
C  C82  1  0.00352485  0.40588138  0.04573098  1  0.045168  0  -0.093297  -0.130424  0  3.984089  0
C  C83  1  0.50350632  0.40587426  0.45426823  1  0.04492  0  -0.093399  -0.130664  0  3.984372  0
C  C84  1  0.00543644  0.51846114  0.07193141  1  -0.116932  0  -0.095367  -0.129404  0  3.998759  0
C  C85  1  0.50541947  0.51845926  0.42806794  1  -0.116585  0  -0.095325  -0.129365  0  3.998816  0
C  C86  1  0.99458228  0.48153660  0.92808506  1  -0.1168  0  -0.095271  -0.129141  0  3.998337  0
C  C87  1  0.49453815  0.48151998  0.57191143  1  -0.116722  0  -0.09555  -0.129712  0  3.998548  0
C  C88  1  0.78498909  0.08902546  0.14940629  1  0.252729  0  0.017545  -0.049242  0  3.908011  0
C  C89  1  0.28497924  0.08902781  0.35059125  1  0.252978  0  0.017499  -0.04946  0  3.908436  0
C  C90  1  0.21501621  0.91097720  0.85059920  1  0.252774  0  0.017535  -0.049234  0  3.907885  0
C  C91  1  0.71501538  0.91096686  0.64940745  1  0.252701  0  0.01759  -0.049339  0  3.908255  0
C  C92  1  0.73099696  0.18119705  0.18454700  1  0.037257  0  -0.107604  -0.198661  0  4.021103  0
C  C93  1  0.23098886  0.18120667  0.31544905  1  0.037114  0  -0.107516  -0.198463  0  4.021153  0
C  C94  1  0.26900505  0.81880036  0.81546215  1  0.037471  0  -0.10763  -0.198669  0  4.021282  0
C  C95  1  0.76900294  0.81879833  0.68454757  1  0.037058  0  -0.107585  -0.198443  0  4.021249  0
C  C96  1  0.60594784  0.13696333  0.21527089  1  0.480558  0  0.03213  0.0434  0  3.960407  0
C  C97  1  0.10594344  0.13697753  0.28472561  1  0.4801  0  0.032145  0.043419  0  3.960192  0
C  C98  1  0.39404260  0.86303125  0.78473565  1  0.480604  0  0.032078  0.043239  0  3.960448  0
C  C99  1  0.89405149  0.86302753  0.71526839  1  0.480359  0  0.032204  0.043388  0  3.96017  0
C  C100  1  0.61969669  0.83959275  0.00451228  1  0.333252  0  0.02083  -0.022726  0  3.879808  0
C  C101  1  0.11969325  0.83959726  0.49549309  1  0.333313  0  0.020803  -0.022952  0  3.879739  0
C  C102  1  0.38031981  0.16040062  0.99548746  1  0.333036  0  0.020852  -0.022864  0  3.879893  0
C  C103  1  0.88031623  0.16040549  0.50450822  1  0.332875  0  0.020875  -0.022662  0  3.879722  0
C  C104  1  0.48960750  0.83314064  0.97334866  1  0.00149  0  -0.117936  -0.203554  0  4.009577  0
C  C105  1  0.98959196  0.83314020  0.52665596  1  0.001334  0  -0.117854  -0.203331  0  4.009587  0
C  C106  1  0.51041989  0.16686765  0.02664378  1  0.00172  0  -0.117869  -0.203408  0  4.00998  0
C  C107  1  0.01041764  0.16686688  0.47335006  1  0.001579  0  -0.117886  -0.203403  0  4.009841  0
C  C108  1  0.39374531  0.85252455  0.02759823  1  0.468201  0  0.018135  0.017679  0  3.991163  0
C  C109  1  0.89373940  0.85252918  0.47240658  1  0.467987  0  0.018024  0.017536  0  3.991535  0
C  C110  1  0.60626759  0.14748778  0.97239368  1  0.467756  0  0.01798  0.017263  0  3.991731  0
C  C111  1  0.10626621  0.14748388  0.52759787  1  0.468112  0  0.018003  0.017327  0  3.991911  0
C  C112  1  0.60042369  0.68722913  0.17328042  1  0.27341  0  0.027989  -0.027601  0  3.932702  0
C  C113  1  0.10039768  0.68723888  0.32673268  1  0.27282  0  0.027831  -0.027765  0  3.933113  0
C  C114  1  0.39958370  0.31277358  0.82671985  1  0.273609  0  0.02796  -0.027594  0  3.932654  0
C  C115  1  0.89957353  0.31277610  0.67327647  1  0.273742  0  0.027982  -0.027717  0  3.932585  0
C  C116  1  0.62327316  0.62116512  0.23204360  1  0.059285  0  -0.112348  -0.211352  0  4.038025  0
C  C117  1  0.12320452  0.62118814  0.26797705  1  0.062458  0  -0.112302  -0.211672  0  4.038396  0
C  C118  1  0.37673522  0.37883587  0.76795562  1  0.05955  0  -0.112342  -0.211515  0  4.038098  0
C  C119  1  0.87672300  0.37883204  0.73203994  1  0.059622  0  -0.112277  -0.211098  0  4.037963  0
C  C120  1  0.71322607  0.69084889  0.27429749  1  0.416614  0  0.023675  0.015397  0  3.990422  0
C  C121  1  0.21316715  0.69086314  0.22571310  1  0.415873  0  0.023519  0.015371  0  3.990103  0
C  C122  1  0.28678850  0.30914963  0.72570174  1  0.415957  0  0.023612  0.01548  0  3.99044  0
C  C123  1  0.78677764  0.30914094  0.77429239  1  0.41612  0  0.023639  0.015458  0  3.990439  0
N  N124  1  0.58290608  0.02494661  0.20011261  1  -0.68219  0  -0.257015  -0.172413  0  3.463021  0
N  N125  1  0.08289913  0.02495245  0.29988328  1  -0.682099  0  -0.257005  -0.17247  0  3.462567  0
N  N126  1  0.41709402  0.97505682  0.79988557  1  -0.682193  0  -0.257035  -0.172605  0  3.462953  0
N  N127  1  0.91709786  0.97505178  0.70011124  1  -0.682027  0  -0.257065  -0.172559  0  3.462889  0
N  N128  1  0.69343677  0.99575909  0.15998108  1  -0.77308  0  -0.143263  0.040208  0  3.733722  0
N  N129  1  0.19343355  0.99576884  0.34001634  1  -0.772533  0  -0.14332  0.040284  0  3.733748  0
N  N130  1  0.30656751  0.00424442  0.84001762  1  -0.77313  0  -0.143233  0.040518  0  3.733468  0
N  N131  1  0.80656451  0.00423628  0.65998080  1  -0.773054  0  -0.143301  0.040366  0  3.733392  0
N  N132  1  0.45927971  0.86990159  0.08858512  1  -0.705623  0  -0.251446  -0.217705  0  3.374189  0
N  N133  1  0.95927185  0.86991775  0.41141977  1  -0.705528  0  -0.251305  -0.217466  0  3.374419  0
N  N134  1  0.54073841  0.13011085  0.91140940  1  -0.705398  0  -0.251528  -0.21764  0  3.374304  0
N  N135  1  0.04073722  0.13010662  0.58858467  1  -0.705231  0  -0.251502  -0.217508  0  3.374441  0
N  N136  1  0.59763664  0.86226376  0.07377800  1  -0.81008  0  -0.144949  0.042707  0  3.746313  0
N  N137  1  0.09763046  0.86228440  0.42622664  1  -0.809906  0  -0.145065  0.042614  0  3.746303  0
N  N138  1  0.40237992  0.13773133  0.92622070  1  -0.809933  0  -0.144743  0.0431  0  3.745847  0
N  N139  1  0.90237943  0.13773220  0.57377415  1  -0.80984  0  -0.144756  0.042775  0  3.746143  0
N  N140  1  0.74403606  0.79318985  0.24375622  1  -0.666805  0  -0.256961  -0.159955  0  3.483754  0
N  N141  1  0.24400566  0.79319411  0.25624984  1  -0.667129  0  -0.256836  -0.159913  0  3.483655  0
N  N142  1  0.25597336  0.20681117  0.75624196  1  -0.665888  0  -0.256935  -0.159984  0  3.483586  0
N  N143  1  0.75597131  0.20680367  0.74375461  1  -0.666508  0  -0.256962  -0.15998  0  3.483713  0
N  N144  1  0.67200731  0.79084376  0.18267731  1  -0.75222  0  -0.133377  0.055986  0  3.730095  0
N  N145  1  0.17199582  0.79084546  0.31733111  1  -0.752527  0  -0.133258  0.056619  0  3.729733  0
N  N146  1  0.32799908  0.20916066  0.81732087  1  -0.752613  0  -0.133234  0.05617  0  3.72995  0
N  N147  1  0.82799593  0.20915780  0.68267438  1  -0.752467  0  -0.133371  0.056039  0  3.730015  0
N  N148  1  0.17241960  0.06913305  0.12206125  1  0.779556  0  0.084978  0.711604  0  4.430078  0
N  N149  1  0.67241795  0.06913143  0.37793953  1  0.779995  0  0.085044  0.711579  0  4.430051  0
N  N150  1  0.82759403  0.93086891  0.87793954  1  0.788454  0  0.085043  0.711459  0  4.430091  0
N  N151  1  0.32758908  0.93085916  0.62205865  1  0.779714  0  0.085085  0.711742  0  4.429894  0
O  O152  1  0.86120554  0.75247035  0.07928573  1  -1.022226  0  -0.225864  -0.204184  0  2.495278  0
O  O153  1  0.36119611  0.75248419  0.42071470  1  -1.022091  0  -0.225848  -0.204296  0  2.495358  0
O  O154  1  0.13880587  0.24752724  0.92071977  1  -1.022288  0  -0.225868  -0.204242  0  2.495404  0
O  O155  1  0.63879467  0.24752165  0.57927460  1  -1.022643  0  -0.225825  -0.204129  0  2.495308  0
O  O156  1  0.27450852  0.12134534  0.15234692  1  -0.532259  0  -0.204615  -0.453003  0  1.994331  0
O  O157  1  0.77450411  0.12134209  0.34764869  1  -0.532268  0  -0.204688  -0.452998  0  1.994359  0
O  O158  1  0.72550417  0.87866006  0.84765074  1  -0.54085  0  -0.204727  -0.452985  0  1.994242  0
O  O159  1  0.22550167  0.87864155  0.65234532  1  -0.532359  0  -0.204748  -0.453128  0  1.994053  0
O  O160  1  0.15463635  0.95979058  0.12751562  1  -0.540175  0  -0.20787  -0.462769  0  2.041477  0
O  O161  1  0.65463480  0.95979001  0.37249230  1  -0.540162  0  -0.207826  -0.46266  0  2.041548  0
O  O162  1  0.84537929  0.04020882  0.87248622  1  -0.540107  0  -0.207851  -0.462667  0  2.041631  0
O  O163  1  0.34537424  0.04019802  0.62751894  1  -0.539748  0  -0.207917  -0.462887  0  2.041752  0
O  O164  1  0.08734125  0.12558369  0.08575807  1  -0.57682  0  -0.215756  -0.484951  0  1.967806  0
O  O165  1  0.58733918  0.12558517  0.41423916  1  -0.577197  0  -0.215782  -0.484966  0  1.967805  0
O  O166  1  0.91266802  0.87441213  0.91424168  1  -0.577034  0  -0.215727  -0.484863  0  1.967648  0
O  O167  1  0.41266604  0.87441490  0.58575223  1  -0.577158  0  -0.215693  -0.484855  0  1.967675  0
