# generated using pymatgen
data_ZnH6(C3N2)2
_symmetry_space_group_name_H-M   'P 1'
_cell_length_a   15.40908388
_cell_length_b   15.42977888
_cell_length_c   18.44899589
_cell_angle_alpha   89.99999200
_cell_angle_beta   90.00001886
_cell_angle_gamma   90.00000718
_symmetry_Int_Tables_number   1
_chemical_formula_structural   ZnH6(C3N2)2
_chemical_formula_sum   'Zn16 H96 C96 N64'
_cell_volume   4386.41033163
_cell_formula_units_Z   16
loop_
 _symmetry_equiv_pos_site_id
 _symmetry_equiv_pos_as_xyz
  1  'x, y, z'
loop_
 _atom_site_type_symbol
 _atom_site_label
 _atom_site_symmetry_multiplicity
 _atom_site_fract_x
 _atom_site_fract_y
 _atom_site_fract_z
 _atom_site_occupancy
 _atom_site_pbe_bader_charge
 _atom_site_pbe_bader_spin_density
 _atom_site_pbe_cm5_charge
 _atom_site_pbe_ddec_charge
 _atom_site_pbe_ddec_spin_density
 _atom_site_pbe_ddec_sum_bond_order
 _atom_site_pbe_magmom
Zn  Zn0  1  0.20279995  0.13858330  0.40728939  1  1.180889  0  0.715721  0.618405  0  2.580739  0
Zn  Zn1  1  0.29719960  0.86141540  0.90728948  1  1.180888  0  0.715718  0.618384  0  2.580733  0
Zn  Zn2  1  0.79719995  0.63858340  0.09271027  1  1.180893  0  0.715732  0.618439  0  2.580727  0
Zn  Zn3  1  0.70279987  0.36141671  0.59271038  1  1.180886  0  0.715728  0.618412  0  2.580749  0
Zn  Zn4  1  0.79720006  0.86141675  0.59271037  1  1.180893  0  0.715735  0.618448  0  2.580702  0
Zn  Zn5  1  0.70279976  0.13858401  0.09271028  1  1.180884  0  0.71572  0.618434  0  2.580707  0
Zn  Zn6  1  0.20280006  0.36141665  0.90728949  1  1.180893  0  0.715737  0.618438  0  2.58072  0
Zn  Zn7  1  0.29720079  0.63858334  0.40728938  1  1.180879  0  0.715764  0.618481  0  2.580707  0
Zn  Zn8  1  0.50930680  0.33620184  0.31276938  1  1.185314  0  0.717116  0.62186  0  2.576852  0
Zn  Zn9  1  0.99069310  0.66379823  0.81276899  1  1.185308  0  0.717122  0.621847  0  2.57689  0
Zn  Zn10  1  0.49069312  0.83620254  0.18723080  1  1.185337  0  0.717116  0.621843  0  2.576882  0
Zn  Zn11  1  0.00930699  0.16379814  0.68723143  1  1.185303  0  0.71711  0.621838  0  2.576869  0
Zn  Zn12  1  0.49069320  0.66379821  0.68723093  1  1.185303  0  0.717121  0.621845  0  2.576842  0
Zn  Zn13  1  0.00930691  0.33620182  0.18723077  1  1.185306  0  0.717115  0.621839  0  2.576866  0
Zn  Zn14  1  0.50930689  0.16379752  0.81276950  1  1.185308  0  0.717107  0.621833  0  2.576885  0
Zn  Zn15  1  0.99069301  0.83620191  0.31276887  1  1.185297  0  0.7171  0.621804  0  2.576901  0
H  H16  1  0.31704359  0.28708382  0.34306206  1  0.124178  0  0.121889  0.082477  0  1.026762  0
H  H17  1  0.18295658  0.71291618  0.84306158  1  0.124175  0  0.121887  0.08247  0  1.02677  0
H  H18  1  0.68295632  0.78708389  0.15693813  1  0.124179  0  0.121885  0.082461  0  1.026771  0
H  H19  1  0.81704352  0.21291620  0.65693829  1  0.124167  0  0.121877  0.082455  0  1.026782  0
H  H20  1  0.68295642  0.71291623  0.65693770  1  0.124181  0  0.121892  0.082482  0  1.026756  0
H  H21  1  0.81704343  0.28708387  0.15693818  1  0.124172  0  0.121903  0.082499  0  1.026762  0
H  H22  1  0.31704369  0.21291616  0.84306163  1  0.124179  0  0.121883  0.082464  0  1.026779  0
H  H23  1  0.18295713  0.78708450  0.34306201  1  0.124164  0  0.121879  0.082459  0  1.026773  0
H  H24  1  0.39555248  0.04617499  0.42791657  1  0.077152  0  0.110451  0.103097  0  1.017125  0
H  H25  1  0.10444837  0.95382436  0.92791658  1  0.077164  0  0.110458  0.103109  0  1.017132  0
H  H26  1  0.60444676  0.54617571  0.07208311  1  0.077168  0  0.110456  0.103121  0  1.017105  0
H  H27  1  0.89555176  0.45382440  0.57208326  1  0.077162  0  0.110456  0.103097  0  1.017138  0
H  H28  1  0.60444753  0.95382442  0.57208319  1  0.077162  0  0.110453  0.103093  0  1.017136  0
H  H29  1  0.89555228  0.04617570  0.07208318  1  0.077162  0  0.110447  0.103096  0  1.017147  0
H  H30  1  0.39555325  0.45382434  0.92791665  1  0.077166  0  0.11046  0.103118  0  1.017111  0
H  H31  1  0.10444825  0.54617565  0.42791650  1  0.077162  0  0.110462  0.103107  0  1.017127  0
H  H32  1  0.54109390  0.13838306  0.38370875  1  0.094656  0  0.109258  0.098701  0  1.017746  0
H  H33  1  0.95890603  0.86161700  0.88370888  1  0.09466  0  0.109242  0.098654  0  1.017761  0
H  H34  1  0.45890535  0.63838376  0.11629091  1  0.094645  0  0.109242  0.098688  0  1.017735  0
H  H35  1  0.04109409  0.36161693  0.61629098  1  0.094656  0  0.10924  0.09865  0  1.017764  0
H  H36  1  0.45890611  0.86161699  0.61629101  1  0.094653  0  0.109251  0.098689  0  1.017771  0
H  H37  1  0.04109397  0.13838305  0.11629088  1  0.094652  0  0.109254  0.098683  0  1.017767  0
H  H38  1  0.54109466  0.36161629  0.88370885  1  0.094644  0  0.109237  0.098665  0  1.01776  0
H  H39  1  0.95890592  0.63838377  0.38370878  1  0.094658  0  0.109238  0.098661  0  1.017769  0
H  H40  1  0.05426940  0.19282774  0.51826668  1  0.125381  0  0.124212  0.083494  0  1.011668  0
H  H41  1  0.44573064  0.80717297  0.01826659  1  0.12538  0  0.124207  0.083454  0  1.011705  0
H  H42  1  0.94573005  0.69282714  0.98173374  1  0.125379  0  0.124203  0.083507  0  1.011665  0
H  H43  1  0.55426928  0.30717290  0.48173359  1  0.125386  0  0.124204  0.083486  0  1.01169  0
H  H44  1  0.94573061  0.80717296  0.48173308  1  0.125389  0  0.124212  0.083478  0  1.0117  0
H  H45  1  0.55426937  0.19282708  0.98173371  1  0.125379  0  0.124204  0.083478  0  1.011691  0
H  H46  1  0.05426996  0.30717291  0.01826657  1  0.125387  0  0.124201  0.083474  0  1.011713  0
H  H47  1  0.44573073  0.69282715  0.51826617  1  0.125375  0  0.1242  0.083484  0  1.011693  0
H  H48  1  0.27978573  0.04347759  0.55096769  1  0.061303  0  0.109095  0.099355  0  1.018881  0
H  H49  1  0.22021368  0.95652247  0.05096752  1  0.061296  0  0.109089  0.099347  0  1.018888  0
H  H50  1  0.72021371  0.54347762  0.94903275  1  0.061296  0  0.109093  0.099326  0  1.018899  0
H  H51  1  0.77978625  0.45652243  0.44903265  1  0.061294  0  0.10909  0.099304  0  1.018923  0
H  H52  1  0.72021363  0.95652246  0.44903207  1  0.061296  0  0.10909  0.099337  0  1.018894  0
H  H53  1  0.77978633  0.04347759  0.94903278  1  0.061295  0  0.109091  0.099326  0  1.018902  0
H  H54  1  0.27978630  0.45652243  0.05096756  1  0.061294  0  0.109087  0.099328  0  1.018906  0
H  H55  1  0.22021375  0.54347762  0.55096711  1  0.061293  0  0.109092  0.099325  0  1.018901  0
H  H56  1  0.18937285  0.05759897  0.68104142  1  0.092151  0  0.108831  0.100518  0  1.044768  0
H  H57  1  0.31062661  0.94240107  0.18104073  1  0.092162  0  0.108841  0.100532  0  1.044752  0
H  H58  1  0.81062658  0.55759903  0.81895901  1  0.09216  0  0.108838  0.100526  0  1.044758  0
H  H59  1  0.68937333  0.44240104  0.31895943  1  0.092161  0  0.108837  0.100521  0  1.044763  0
H  H60  1  0.81062651  0.94240044  0.31895888  1  0.092159  0  0.108819  0.100502  0  1.044768  0
H  H61  1  0.68937275  0.05759899  0.81895902  1  0.092159  0  0.108839  0.100524  0  1.044756  0
H  H62  1  0.18937342  0.44240102  0.18104075  1  0.092157  0  0.108843  0.10053  0  1.044753  0
H  H63  1  0.31062668  0.55759901  0.68104087  1  0.092162  0  0.10884  0.100525  0  1.044751  0
H  H64  1  0.05790625  0.99014896  0.41072637  1  0.116386  0  0.123602  0.081822  0  1.006005  0
H  H65  1  0.44209330  0.00984844  0.91072659  1  0.116383  0  0.123601  0.081785  0  1.006015  0
H  H66  1  0.94209304  0.49014901  0.08927379  1  0.116393  0  0.123608  0.081827  0  1.006004  0
H  H67  1  0.55790677  0.50985110  0.58927385  1  0.116395  0  0.123609  0.081828  0  1.005999  0
H  H68  1  0.94209311  0.00985109  0.58927393  1  0.11639  0  0.123603  0.081817  0  1.006015  0
H  H69  1  0.55790671  0.99015096  0.08927371  1  0.116385  0  0.123598  0.081779  0  1.006032  0
H  H70  1  0.05790696  0.50985104  0.91072597  1  0.116393  0  0.123605  0.081825  0  1.006013  0
H  H71  1  0.44209388  0.49014895  0.41072591  1  0.116342  0  0.123597  0.081818  0  1.006016  0
H  H72  1  0.24754235  0.04595918  0.25347833  1  0.081512  0  0.111588  0.103152  0  1.0183  0
H  H73  1  0.25245714  0.95404149  0.75347838  1  0.08173  0  0.111575  0.103145  0  1.018261  0
H  H74  1  0.75245754  0.54595924  0.24652135  1  0.081741  0  0.111591  0.103157  0  1.018293  0
H  H75  1  0.74754235  0.45404084  0.74652201  1  0.081728  0  0.111591  0.103153  0  1.01829  0
H  H76  1  0.75245766  0.95404088  0.74652143  1  0.08173  0  0.11159  0.103156  0  1.018293  0
H  H77  1  0.74754287  0.04595921  0.24652192  1  0.081723  0  0.111574  0.103139  0  1.01828  0
H  H78  1  0.24754247  0.45404081  0.75347841  1  0.081724  0  0.111586  0.103151  0  1.018301  0
H  H79  1  0.25245766  0.54595921  0.25347830  1  0.081729  0  0.111592  0.103158  0  1.018291  0
H  H80  1  0.14233432  0.91138894  0.20384521  1  0.109736  0  0.110771  0.102439  0  1.022565  0
H  H81  1  0.35766579  0.08861173  0.70384594  1  0.109743  0  0.110771  0.10246  0  1.022535  0
H  H82  1  0.85766561  0.41138830  0.29615497  1  0.109728  0  0.110763  0.102454  0  1.022565  0
H  H83  1  0.64233429  0.58861178  0.79615504  1  0.109721  0  0.110756  0.102447  0  1.022574  0
H  H84  1  0.85766569  0.08861111  0.79615510  1  0.109735  0  0.110769  0.102464  0  1.022559  0
H  H85  1  0.64233421  0.91138832  0.29615382  1  0.10974  0  0.110766  0.102444  0  1.02255  0
H  H86  1  0.14233440  0.58861176  0.70384534  1  0.109734  0  0.110784  0.10247  0  1.02255  0
H  H87  1  0.35766507  0.41138827  0.20384527  1  0.109728  0  0.110757  0.102432  0  1.022557  0
H  H88  1  0.09574229  0.17884701  0.26867316  1  0.106841  0  0.121092  0.078985  0  1.025107  0
H  H89  1  0.40425850  0.82115236  0.76867274  1  0.106883  0  0.121098  0.078988  0  1.025115  0
H  H90  1  0.90425761  0.67884709  0.23132704  1  0.106873  0  0.121091  0.078977  0  1.025109  0
H  H91  1  0.59574162  0.32115234  0.73132713  1  0.106887  0  0.1211  0.079007  0  1.025112  0
H  H92  1  0.90425772  0.82115240  0.73132714  1  0.106885  0  0.1211  0.079001  0  1.025112  0
H  H93  1  0.59574216  0.17884769  0.23132702  1  0.10689  0  0.121103  0.078999  0  1.025114  0
H  H94  1  0.09574240  0.32115296  0.76867326  1  0.106845  0  0.121096  0.078997  0  1.025105  0
H  H95  1  0.40425839  0.67884771  0.26867317  1  0.106888  0  0.121102  0.079  0  1.025112  0
H  H96  1  0.05472561  0.43499260  0.33968297  1  0.072775  0  0.106815  0.094849  0  1.042347  0
H  H97  1  0.44527456  0.56500741  0.83968367  1  0.072822  0  0.10682  0.094852  0  1.042351  0
H  H98  1  0.94527498  0.93499271  0.16031666  1  0.072792  0  0.106809  0.094841  0  1.042354  0
H  H99  1  0.55472617  0.06500739  0.66031677  1  0.072766  0  0.106832  0.094898  0  1.04237  0
H  H100  1  0.94527440  0.56500745  0.66031679  1  0.072775  0  0.106817  0.094854  0  1.042343  0
H  H101  1  0.55472609  0.43499264  0.16031663  1  0.07277  0  0.106831  0.094908  0  1.042365  0
H  H102  1  0.05472568  0.06500735  0.83968364  1  0.072809  0  0.106843  0.09492  0  1.042365  0
H  H103  1  0.44527384  0.93499266  0.33968353  1  0.072771  0  0.106844  0.094919  0  1.042365  0
H  H104  1  0.14641894  0.34409369  0.44525458  1  0.0773  0  0.109235  0.099194  0  1.016179  0
H  H105  1  0.35358127  0.65590694  0.94525525  1  0.077298  0  0.10923  0.099175  0  1.016198  0
H  H106  1  0.85358034  0.84409316  0.05474505  1  0.077294  0  0.10922  0.099172  0  1.016208  0
H  H107  1  0.64641882  0.15590696  0.55474518  1  0.077294  0  0.109226  0.09917  0  1.016208  0
H  H108  1  0.85358107  0.65590636  0.55474518  1  0.077309  0  0.109223  0.099195  0  1.016195  0
H  H109  1  0.64641938  0.34409311  0.05474505  1  0.077292  0  0.109227  0.099172  0  1.016203  0
H  H110  1  0.14641967  0.15590625  0.94525471  1  0.0773  0  0.109227  0.099174  0  1.016195  0
H  H111  1  0.35358119  0.84409309  0.44525513  1  0.077293  0  0.109225  0.099182  0  1.016204  0
C  C112  1  0.35837441  0.23370781  0.35984076  1  0.95304  0  0.111962  0.128809  0  4.007835  0
C  C113  1  0.14162577  0.76629219  0.85984081  1  0.952989  0  0.111968  0.128805  0  4.007819  0
C  C114  1  0.64162550  0.73370789  0.14015889  1  0.952979  0  0.111951  0.128808  0  4.007825  0
C  C115  1  0.85837369  0.26629157  0.64015906  1  0.952944  0  0.111963  0.128794  0  4.00785  0
C  C116  1  0.64162560  0.76629224  0.64015900  1  0.952963  0  0.111968  0.128805  0  4.007844  0
C  C117  1  0.85837424  0.23370851  0.14015895  1  0.95294  0  0.11195  0.12879  0  4.007874  0
C  C118  1  0.35837451  0.26629217  0.85984087  1  0.952985  0  0.111946  0.128789  0  4.007878  0
C  C119  1  0.14162632  0.73370784  0.35984124  1  0.952965  0  0.111962  0.128814  0  4.007853  0
C  C120  1  0.40068517  0.10992056  0.40355263  1  0.309296  0  -0.025249  -0.068268  0  4.05123  0
C  C121  1  0.09931503  0.89007879  0.90355212  1  0.309286  0  -0.025279  -0.068313  0  4.051318  0
C  C122  1  0.59931408  0.60992128  0.09644757  1  0.309288  0  -0.02524  -0.068275  0  4.051249  0
C  C123  1  0.90068510  0.39007883  0.59644774  1  0.3093  0  -0.025259  -0.068274  0  4.051276  0
C  C124  1  0.59931484  0.89007885  0.59644713  1  0.309298  0  -0.025235  -0.068234  0  4.051232  0
C  C125  1  0.90068563  0.10992061  0.09644764  1  0.309283  0  -0.025238  -0.068262  0  4.051289  0
C  C126  1  0.40068593  0.39007877  0.90355273  1  0.309286  0  -0.025269  -0.068302  0  4.051238  0
C  C127  1  0.09931491  0.60992122  0.40355256  1  0.309303  0  -0.025247  -0.068252  0  4.051231  0
C  C128  1  0.47291269  0.15567365  0.38145876  1  0.400112  0  -0.025598  -0.066779  0  4.055815  0
C  C129  1  0.02708814  0.84432635  0.88145822  1  0.400106  0  -0.025547  -0.066696  0  4.055856  0
C  C130  1  0.52708721  0.65567371  0.11854144  1  0.400112  0  -0.025586  -0.066785  0  4.055787  0
C  C131  1  0.97291197  0.34432639  0.61854164  1  0.400126  0  -0.025552  -0.066708  0  4.055796  0
C  C132  1  0.52708732  0.84432640  0.61854155  1  0.4001  0  -0.025579  -0.066771  0  4.055824  0
C  C133  1  0.97291251  0.15567370  0.11854154  1  0.400123  0  -0.025548  -0.066708  0  4.055834  0
C  C134  1  0.47291280  0.34432634  0.88145831  1  0.400112  0  -0.025538  -0.066701  0  4.055844  0
C  C135  1  0.02708803  0.65567366  0.38145867  1  0.400004  0  -0.025569  -0.06673  0  4.055817  0
C  C136  1  0.10315680  0.15330870  0.54482911  1  0.950656  0  0.110502  0.123706  0  4.014554  0
C  C137  1  0.39684325  0.84669200  0.04482792  1  0.950646  0  0.110529  0.123762  0  4.01459  0
C  C138  1  0.89684329  0.65330875  0.95517185  1  0.950638  0  0.110485  0.12365  0  4.014586  0
C  C139  1  0.60315667  0.34669194  0.45517172  1  0.950651  0  0.110489  0.123641  0  4.014652  0
C  C140  1  0.89684321  0.84669200  0.45517119  1  0.950655  0  0.11049  0.12368  0  4.014627  0
C  C141  1  0.60315676  0.15330805  0.95517184  1  0.95065  0  0.1105  0.123676  0  4.014628  0
C  C142  1  0.10315671  0.34669194  0.04482845  1  0.950647  0  0.110523  0.12372  0  4.01463  0
C  C143  1  0.39684334  0.65330811  0.54482804  1  0.95065  0  0.110477  0.123612  0  4.014632  0
C  C144  1  0.21919874  0.07607883  0.56326916  1  0.375164  0  -0.025838  -0.065368  0  4.051464  0
C  C145  1  0.28080132  0.92392122  0.06326901  1  0.37516  0  -0.025837  -0.065367  0  4.051475  0
C  C146  1  0.78080134  0.57607887  0.93673127  1  0.374593  0  -0.025807  -0.065293  0  4.051522  0
C  C147  1  0.71919861  0.42392118  0.43673170  1  0.375118  0  -0.025811  -0.06528  0  4.051528  0
C  C148  1  0.78080127  0.92392122  0.43673114  1  0.375161  0  -0.025804  -0.06532  0  4.051504  0
C  C149  1  0.71919869  0.07607883  0.93673129  1  0.374605  0  -0.025823  -0.065322  0  4.051425  0
C  C150  1  0.21919866  0.42392118  0.06326849  1  0.374552  0  -0.025836  -0.065359  0  4.051521  0
C  C151  1  0.28080140  0.57607887  0.56326860  1  0.375118  0  -0.025807  -0.065302  0  4.051494  0
C  C152  1  0.17443685  0.08276654  0.62766778  1  0.338179  0  -0.025118  -0.063786  0  4.041739  0
C  C153  1  0.32556259  0.91723286  0.12766764  1  0.338189  0  -0.025104  -0.063773  0  4.041699  0
C  C154  1  0.82556324  0.58276594  0.87233265  1  0.338756  0  -0.025138  -0.063808  0  4.041778  0
C  C155  1  0.67443734  0.41723412  0.37233253  1  0.338179  0  -0.025132  -0.063802  0  4.041753  0
C  C156  1  0.82556316  0.91723351  0.37233252  1  0.33818  0  -0.025117  -0.063767  0  4.041778  0
C  C157  1  0.67443677  0.08276720  0.87233212  1  0.338765  0  -0.025096  -0.063759  0  4.041675  0
C  C158  1  0.17443677  0.41723411  0.12766765  1  0.338749  0  -0.02512  -0.063776  0  4.041682  0
C  C159  1  0.32556267  0.58276593  0.62766723  1  0.338181  0  -0.025119  -0.063782  0  4.041771  0
C  C160  1  0.09536012  0.98700245  0.36095185  1  0.940809  0  0.113171  0.129553  0  4.019516  0
C  C161  1  0.40463941  0.01299690  0.86095152  1  0.940822  0  0.11324  0.129706  0  4.019539  0
C  C162  1  0.90463982  0.48700184  0.13904831  1  0.940812  0  0.113174  0.12958  0  4.019493  0
C  C163  1  0.59536067  0.51299761  0.63904838  1  0.940817  0  0.11317  0.129577  0  4.019508  0
C  C164  1  0.90463989  0.01299760  0.63904791  1  0.940796  0  0.113168  0.129579  0  4.019495  0
C  C165  1  0.59536060  0.98700315  0.13904824  1  0.940814  0  0.113233  0.129721  0  4.019558  0
C  C166  1  0.09536019  0.51299756  0.86095199  1  0.940797  0  0.113168  0.129554  0  4.019505  0
C  C167  1  0.40463999  0.48700244  0.36095138  1  0.940888  0  0.113168  0.129527  0  4.019608  0
C  C168  1  0.19238852  0.01429119  0.27863795  1  0.356412  0  -0.024603  -0.071247  0  4.055133  0
C  C169  1  0.30761162  0.98570883  0.77863857  1  0.356194  0  -0.024615  -0.071271  0  4.05517  0
C  C170  1  0.80761136  0.51429062  0.22136172  1  0.356188  0  -0.024605  -0.071215  0  4.055156  0
C  C171  1  0.69238851  0.48570947  0.72136182  1  0.356209  0  -0.024593  -0.071186  0  4.055127  0
C  C172  1  0.80761149  0.98570887  0.72136181  1  0.356196  0  -0.024609  -0.071218  0  4.055153  0
C  C173  1  0.69238838  0.01429122  0.22136174  1  0.356208  0  -0.024577  -0.071183  0  4.055087  0
C  C174  1  0.19238865  0.48570879  0.77863804  1  0.3562  0  -0.024611  -0.071258  0  4.055132  0
C  C175  1  0.30761150  0.51429058  0.27863794  1  0.356201  0  -0.024596  -0.071235  0  4.055116  0
C  C176  1  0.14002466  0.94799348  0.25401216  1  0.305706  0  -0.023868  -0.067374  0  4.041424  0
C  C177  1  0.35997548  0.05200589  0.75401290  1  0.305729  0  -0.023905  -0.067439  0  4.041507  0
C  C178  1  0.85997528  0.44799349  0.24598801  1  0.305707  0  -0.023927  -0.067507  0  4.041529  0
C  C179  1  0.64002460  0.55200724  0.74598808  1  0.305701  0  -0.023938  -0.06753  0  4.041552  0
C  C180  1  0.85997535  0.05200657  0.74598760  1  0.305716  0  -0.023919  -0.067497  0  4.041515  0
C  C181  1  0.64002453  0.94799351  0.24598740  1  0.305721  0  -0.023899  -0.067427  0  4.041471  0
C  C182  1  0.14002408  0.55200656  0.75401230  1  0.305718  0  -0.023871  -0.0674  0  4.041436  0
C  C183  1  0.35997540  0.44799281  0.25401222  1  0.3057  0  -0.023874  -0.067394  0  4.041426  0
C  C184  1  0.09722195  0.23653804  0.30239207  1  0.958805  0  0.111523  0.129438  0  4.012172  0
C  C185  1  0.40277821  0.76346197  0.80239219  1  0.958744  0  0.111528  0.129438  0  4.012168  0
C  C186  1  0.90277796  0.73653814  0.19760813  1  0.958675  0  0.111537  0.12947  0  4.012143  0
C  C187  1  0.59722255  0.26346195  0.69760768  1  0.958765  0  0.111516  0.129398  0  4.012218  0
C  C188  1  0.90277741  0.76346201  0.69760769  1  0.95876  0  0.111522  0.129428  0  4.012219  0
C  C189  1  0.59722310  0.23653808  0.19760757  1  0.95875  0  0.11153  0.129466  0  4.012187  0
C  C190  1  0.09722270  0.26346191  0.80239218  1  0.958792  0  0.111536  0.12945  0  4.012202  0
C  C191  1  0.40277746  0.73653810  0.30239208  1  0.958744  0  0.111523  0.129445  0  4.012198  0
C  C192  1  0.07687293  0.36826903  0.34064400  1  0.391434  0  -0.025585  -0.064158  0  4.04383  0
C  C193  1  0.42312789  0.63173163  0.84064415  1  0.391413  0  -0.025603  -0.064193  0  4.04379  0
C  C194  1  0.92312700  0.86826913  0.15935617  1  0.391406  0  -0.025579  -0.064143  0  4.043798  0
C  C195  1  0.57687285  0.13173032  0.65935628  1  0.391439  0  -0.025595  -0.064222  0  4.043837  0
C  C196  1  0.92312708  0.63173103  0.65935576  1  0.391413  0  -0.025593  -0.064155  0  4.043847  0
C  C197  1  0.57687277  0.36826972  0.15935616  1  0.391433  0  -0.025614  -0.064261  0  4.043904  0
C  C198  1  0.07687301  0.13173027  0.84064359  1  0.391373  0  -0.025614  -0.064276  0  4.04389  0
C  C199  1  0.42312716  0.86826973  0.34064402  1  0.391429  0  -0.025618  -0.06427  0  4.043905  0
C  C200  1  0.12250835  0.32322366  0.39277964  1  0.319712  0  -0.025534  -0.067938  0  4.051898  0
C  C201  1  0.37749184  0.67677698  0.89277977  1  0.31972  0  -0.025509  -0.067875  0  4.051917  0
C  C202  1  0.87749092  0.82322377  0.10722054  1  0.319745  0  -0.025516  -0.067917  0  4.05196  0
C  C203  1  0.62250761  0.17677699  0.60721957  1  0.319734  0  -0.025534  -0.067897  0  4.051888  0
C  C204  1  0.87749101  0.67677639  0.60722066  1  0.319725  0  -0.025565  -0.067997  0  4.052005  0
C  C205  1  0.62250817  0.32322307  0.10721999  1  0.319725  0  -0.025517  -0.067868  0  4.051983  0
C  C206  1  0.12250909  0.17677628  0.89277976  1  0.319738  0  -0.025526  -0.067875  0  4.051902  0
C  C207  1  0.37749240  0.82322306  0.39278019  1  0.319725  0  -0.025568  -0.067936  0  4.051948  0
N  N208  1  0.44539710  0.23417380  0.35370439  1  -1.273499  0  -0.379487  -0.295267  0  3.626271  0
N  N209  1  0.05460242  0.76582620  0.85370388  1  -1.273439  0  -0.37953  -0.29529  0  3.626316  0
N  N210  1  0.55460281  0.73417451  0.14629580  1  -1.273489  0  -0.379496  -0.295218  0  3.626175  0
N  N211  1  0.94539704  0.26582559  0.64629599  1  -1.273437  0  -0.37948  -0.295238  0  3.626238  0
N  N212  1  0.55460291  0.76582560  0.64629591  1  -1.273419  0  -0.379493  -0.295261  0  3.626267  0
N  N213  1  0.94539758  0.23417450  0.14629588  1  -1.273445  0  -0.379526  -0.295287  0  3.626303  0
N  N214  1  0.44539785  0.26582554  0.85370450  1  -1.27345  0  -0.379499  -0.29524  0  3.62626  0
N  N215  1  0.05460297  0.73417446  0.35370431  1  -1.273309  0  -0.379476  -0.295236  0  3.626238  0
N  N216  1  0.32830773  0.15995238  0.38960173  1  -1.274258  0  -0.381146  -0.28808  0  3.634106  0
N  N217  1  0.17169181  0.84004762  0.88960178  1  -1.274267  0  -0.38114  -0.28806  0  3.634154  0
N  N218  1  0.67169152  0.65995246  0.11039847  1  -1.274247  0  -0.381151  -0.288129  0  3.634184  0
N  N219  1  0.82830766  0.34004765  0.61039863  1  -1.274224  0  -0.381154  -0.28807  0  3.634154  0
N  N220  1  0.67169228  0.84004767  0.61039857  1  -1.274245  0  -0.381175  -0.288117  0  3.634138  0
N  N221  1  0.82830820  0.15995243  0.11039852  1  -1.274202  0  -0.381171  -0.288135  0  3.634227  0
N  N222  1  0.32830849  0.34004759  0.88960183  1  -1.274242  0  -0.381135  -0.288094  0  3.634152  0
N  N223  1  0.17169235  0.65995240  0.38960168  1  -1.274245  0  -0.381161  -0.288134  0  3.634123  0
N  N224  1  0.10099705  0.13180158  0.61552510  1  -1.263896  0  -0.380356  -0.293236  0  3.638838  0
N  N225  1  0.39900368  0.86819846  0.11552445  1  -1.263866  0  -0.380384  -0.293257  0  3.638815  0
N  N226  1  0.89900304  0.63180165  0.88447532  1  -1.263861  0  -0.38034  -0.293226  0  3.638828  0
N  N227  1  0.60099689  0.36819906  0.38447519  1  -1.26386  0  -0.380354  -0.293216  0  3.638864  0
N  N228  1  0.89900296  0.86819911  0.38447466  1  -1.263891  0  -0.38036  -0.29323  0  3.638873  0
N  N229  1  0.60099633  0.13180094  0.88447531  1  -1.263888  0  -0.380379  -0.293242  0  3.638846  0
N  N230  1  0.10099697  0.36819905  0.11552444  1  -1.26387  0  -0.380381  -0.293267  0  3.638878  0
N  N231  1  0.39900312  0.63180099  0.61552457  1  -1.263851  0  -0.380347  -0.293198  0  3.638854  0
N  N232  1  0.17355942  0.12101402  0.51095303  1  -1.26681  0  -0.382119  -0.293208  0  3.64901  0
N  N233  1  0.32644062  0.87898604  0.01095289  1  -1.266839  0  -0.382122  -0.293214  0  3.649054  0
N  N234  1  0.82644002  0.62101405  0.98904686  1  -1.266837  0  -0.382123  -0.293201  0  3.649069  0
N  N235  1  0.67355931  0.37898599  0.48904728  1  -1.2668  0  -0.382105  -0.293163  0  3.649121  0
N  N236  1  0.82644059  0.87898604  0.48904673  1  -1.266828  0  -0.382116  -0.293196  0  3.649021  0
N  N237  1  0.67355939  0.12101401  0.98904741  1  -1.266843  0  -0.382129  -0.293205  0  3.649045  0
N  N238  1  0.17355999  0.37898600  0.01095290  1  -1.266797  0  -0.38211  -0.293185  0  3.64913  0
N  N239  1  0.32644070  0.62101406  0.51095248  1  -1.2668  0  -0.382158  -0.293221  0  3.649039  0
N  N240  1  0.07852977  0.93118507  0.30665730  1  -1.255104  0  -0.380424  -0.293576  0  3.629323  0
N  N241  1  0.42147038  0.06881430  0.80665750  1  -1.255113  0  -0.380413  -0.293636  0  3.629346  0
N  N242  1  0.92147016  0.43118509  0.19334233  1  -1.255112  0  -0.38038  -0.293536  0  3.629318  0
N  N243  1  0.57853035  0.56881500  0.69334239  1  -1.255105  0  -0.380376  -0.293529  0  3.629306  0
N  N244  1  0.92147024  0.06881498  0.69334246  1  -1.255105  0  -0.380377  -0.293529  0  3.629304  0
N  N245  1  0.57852962  0.93118576  0.19334225  1  -1.255089  0  -0.380403  -0.293619  0  3.629314  0
N  N246  1  0.07852985  0.56881496  0.80665743  1  -1.255111  0  -0.380426  -0.293588  0  3.629336  0
N  N247  1  0.42146966  0.43118505  0.30665737  1  -1.255143  0  -0.380423  -0.293568  0  3.629373  0
N  N248  1  0.16366522  0.03848077  0.34657823  1  -1.250631  0  -0.380745  -0.297347  0  3.644713  0
N  N249  1  0.33633560  0.96151859  0.84657777  1  -1.250659  0  -0.380761  -0.297338  0  3.644818  0
N  N250  1  0.83633466  0.53848086  0.15342198  1  -1.25063  0  -0.380742  -0.297362  0  3.644702  0
N  N251  1  0.66366518  0.46151924  0.65342208  1  -1.250641  0  -0.380746  -0.297367  0  3.644732  0
N  N252  1  0.83633479  0.96151929  0.65342207  1  -1.250632  0  -0.380746  -0.297375  0  3.644724  0
N  N253  1  0.66366441  0.03848146  0.15342199  1  -1.250657  0  -0.3808  -0.297461  0  3.644846  0
N  N254  1  0.16366534  0.46151919  0.84657778  1  -1.250629  0  -0.380742  -0.297343  0  3.644706  0
N  N255  1  0.33633548  0.53848081  0.34657768  1  -1.250624  0  -0.38074  -0.29734  0  3.644724  0
N  N256  1  0.06117503  0.31264283  0.28349184  1  -1.254918  0  -0.381921  -0.287701  0  3.6377  0
N  N257  1  0.43882577  0.68735784  0.78349198  1  -1.254915  0  -0.381935  -0.287708  0  3.637685  0
N  N258  1  0.93882554  0.81264228  0.21650834  1  -1.254915  0  -0.38194  -0.287726  0  3.637671  0
N  N259  1  0.56117498  0.18735716  0.71650790  1  -1.2549  0  -0.381924  -0.287699  0  3.637741  0
N  N260  1  0.93882498  0.68735722  0.71650792  1  -1.254906  0  -0.381917  -0.28769  0  3.637705  0
N  N261  1  0.56117554  0.31264286  0.21650778  1  -1.254891  0  -0.381908  -0.287724  0  3.637784  0
N  N262  1  0.06117512  0.18735713  0.78349196  1  -1.2549  0  -0.381937  -0.287726  0  3.63779  0
N  N263  1  0.43882503  0.81264289  0.28349241  1  -1.254884  0  -0.381923  -0.287697  0  3.637749  0
N  N264  1  0.13520864  0.23961650  0.36803629  1  -1.265777  0  -0.379236  -0.296491  0  3.62179  0
N  N265  1  0.36479154  0.76038350  0.86803641  1  -1.265797  0  -0.379235  -0.296487  0  3.621839  0
N  N266  1  0.86479061  0.73961660  0.13196390  1  -1.265694  0  -0.379234  -0.296503  0  3.621832  0
N  N267  1  0.63520857  0.26038415  0.63196346  1  -1.265821  0  -0.37924  -0.296491  0  3.62182  0
N  N268  1  0.86479136  0.76038355  0.63196401  1  -1.265794  0  -0.37921  -0.296482  0  3.621863  0
N  N269  1  0.63520847  0.23961655  0.13196335  1  -1.2658  0  -0.379262  -0.296534  0  3.621905  0
N  N270  1  0.13520874  0.26038345  0.86803640  1  -1.265789  0  -0.379244  -0.296508  0  3.621868  0
N  N271  1  0.36479144  0.73961591  0.36803630  1  -1.265794  0  -0.37921  -0.296491  0  3.621837  0
