# generated using pymatgen
data_GaH9C14O5
_symmetry_space_group_name_H-M   'P 1'
_cell_length_a   6.80249596
_cell_length_b   9.40745341
_cell_length_c   10.94634340
_cell_angle_alpha   90.29974846
_cell_angle_beta   90.06492036
_cell_angle_gamma   111.13253617
_symmetry_Int_Tables_number   1
_chemical_formula_structural   GaH9C14O5
_chemical_formula_sum   'Ga2 H18 C28 O10'
_cell_volume   653.38023053
_cell_formula_units_Z   2
loop_
 _symmetry_equiv_pos_site_id
 _symmetry_equiv_pos_as_xyz
  1  'x, y, z'
loop_
 _atom_site_type_symbol
 _atom_site_label
 _atom_site_symmetry_multiplicity
 _atom_site_fract_x
 _atom_site_fract_y
 _atom_site_fract_z
 _atom_site_occupancy
 _atom_site_hle17_bader_spin_density
 _atom_site_hle17_ddec_charge
 _atom_site_hle17_ddec_spin_density
 _atom_site_hle17_ddec_sum_bond_order
 _atom_site_hle17_magmom
 _atom_site_hse06_10hf_bader_spin_density
 _atom_site_hse06_10hf_ddec_charge
 _atom_site_hse06_10hf_ddec_spin_density
 _atom_site_hse06_10hf_ddec_sum_bond_order
 _atom_site_hse06_10hf_magmom
 _atom_site_hse06_bader_spin_density
 _atom_site_hse06_ddec_charge
 _atom_site_hse06_ddec_spin_density
 _atom_site_hse06_ddec_sum_bond_order
 _atom_site_hse06_magmom
 _atom_site_pbe_bader_spin_density
 _atom_site_pbe_cm5_charge
 _atom_site_pbe_ddec_charge
 _atom_site_pbe_ddec_spin_density
 _atom_site_pbe_ddec_sum_bond_order
 _atom_site_pbe_magmom
Ga  Ga0  1  0.50000023  0.49999875  0.49999963  1  0  1.63134  0  2.318591  0  0  1.480724  0  2.754131  0  0  1.537993  0  2.697277  0  0  0.579636  1.440098  0  2.793532  0
Ga  Ga1  1  0.99999838  0.50000002  0.49999991  1  0  1.630651  0  2.319564  0  0  1.479673  0  2.755327  0  0  1.536996  0  2.698488  0  0  0.579519  1.439444  0  2.793939  0
H  H2  1  0.81225087  0.62529641  0.37091620  1  0  0.436842  0  0.817598  0  0  0.416929  0  0.874743  0  0  0.426314  0  0.864253  0  0  0.333197  0.409521  0  0.883427  0
H  H3  1  0.18774687  0.37470446  0.62908495  1  0  0.436841  0  0.817603  0  0  0.416922  0  0.874755  0  0  0.426308  0  0.864263  0  0  0.333172  0.409513  0  0.883438  0
H  H4  1  0.83868338  0.67577697  0.90545268  1  0  0.09292  0  0.933594  0  0  0.107214  0  0.985409  0  0  0.109855  0  0.984779  0  0  0.10454  0.105495  0  0.985568  0
H  H5  1  0.16132762  0.32422398  0.09454483  1  0  0.092922  0  0.933511  0  0  0.107239  0  0.985299  0  0  0.109881  0  0.984668  0  0  0.104548  0.105519  0  0.985458  0
H  H6  1  0.81692425  0.63318240  0.13032879  1  0  0.073235  0  0.959746  0  0  0.084302  0  1.025272  0  0  0.087319  0  1.022741  0  0  0.094931  0.081648  0  1.028098  0
H  H7  1  0.18309319  0.36681967  0.86966965  1  0  0.073181  0  0.959792  0  0  0.084262  0  1.025312  0  0  0.087289  0  1.02277  0  0  0.094915  0.08161  0  1.028135  0
H  H8  1  0.68511865  0.37066094  0.21141751  1  0  0.089477  0  0.968874  0  0  0.097167  0  1.035394  0  0  0.100051  0  1.033468  0  0  0.099336  0.095176  0  1.036721  0
H  H9  1  0.31489585  0.62934113  0.78858094  1  0  0.089343  0  0.968951  0  0  0.097055  0  1.035451  0  0  0.099937  0  1.033526  0  0  0.099307  0.095065  0  1.036779  0
H  H10  1  0.57397859  0.14842094  0.06952839  1  0  0.084878  0  0.988098  0  0  0.093125  0  1.05493  0  0  0.09466  0  1.056713  0  0  0.092479  0.09172  0  1.054171  0
H  H11  1  0.42601973  0.85158111  0.93047096  1  0  0.084864  0  0.988158  0  0  0.093107  0  1.054988  0  0  0.094644  0  1.056766  0  0  0.092478  0.091703  0  1.054231  0
H  H12  1  0.25456753  0.14091393  0.81003200  1  0  0.08629  0  0.958712  0  0  0.097869  0  1.020149  0  0  0.100974  0  1.018571  0  0  0.098247  0.095623  0  1.021578  0
H  H13  1  0.11323243  0.85896445  0.19070906  1  0  0.086591  0  0.959349  0  0  0.098358  0  1.020474  0  0  0.101427  0  1.018924  0  0  0.098317  0.096193  0  1.021675  0
H  H14  1  0.74542061  0.85908245  0.18996633  1  0  0.086293  0  0.958753  0  0  0.097871  0  1.020186  0  0  0.100976  0  1.018606  0  0  0.098221  0.095625  0  1.021614  0
H  H15  1  0.88676081  0.14104212  0.80929220  1  0  0.086597  0  0.959296  0  0  0.098356  0  1.020438  0  0  0.101423  0  1.018889  0  0  0.098327  0.09619  0  1.021639  0
H  H16  1  0.14470805  0.92005343  0.66402736  1  0  0.106284  0  0.938398  0  0  0.117645  0  0.994936  0  0  0.121315  0  0.991947  0  0  0.109883  0.114956  0  0.997302  0
H  H17  1  0.22506523  0.07994695  0.33657141  1  0  0.106395  0  0.939126  0  0  0.117417  0  0.995998  0  0  0.12116  0  0.992899  0  0  0.10977  0.114769  0  0.998084  0
H  H18  1  0.85528807  0.07993830  0.33597454  1  0  0.106271  0  0.938373  0  0  0.117638  0  0.994926  0  0  0.121308  0  0.991938  0  0  0.109875  0.114981  0  0.997254  0
H  H19  1  0.77493770  0.92005842  0.66343257  1  0  0.106352  0  0.939127  0  0  0.117329  0  0.996046  0  0  0.12107  0  0.992948  0  0  0.109714  0.114683  0  0.99813  0
C  C20  1  0.73096799  0.46079239  0.72664202  1  0  0.725447  0  3.799147  0  0  0.670019  0  4.097179  0  0  0.706898  0  4.08487  0  0  0.260943  0.644782  0  4.105132  0
C  C21  1  0.26902772  0.53920736  0.27335820  1  0  0.725205  0  3.79947  0  0  0.669831  0  4.097396  0  0  0.706709  0  4.085092  0  0  0.260895  0.644584  0  4.105345  0
C  C22  1  0.71848320  0.43583186  0.86196461  1  0  -0.098025  0  3.736166  0  0  -0.081341  0  3.969759  0  0  -0.08763  0  3.990515  0  0  -0.011402  -0.077144  0  3.95579  0
C  C23  1  0.28151659  0.56417019  0.13803474  1  0  -0.098017  0  3.736299  0  0  -0.081302  0  3.969841  0  0  -0.08759  0  3.990597  0  0  -0.01141  -0.077072  0  3.955826  0
C  C24  1  0.78087558  0.56057878  0.94208950  1  0  -0.071741  0  3.757087  0  0  -0.092184  0  4.002787  0  0  -0.093558  0  4.024757  0  0  -0.082785  -0.091308  0  3.987766  0
C  C25  1  0.21913393  0.43942213  0.05790983  1  0  -0.071719  0  3.756969  0  0  -0.092184  0  4.002667  0  0  -0.093559  0  4.024641  0  0  -0.082771  -0.091317  0  3.987636  0
C  C26  1  0.76850037  0.53643977  0.06755446  1  0  -0.052644  0  3.775343  0  0  -0.072984  0  4.039122  0  0  -0.07447  0  4.060214  0  0  -0.087544  -0.07164  0  4.025048  0
C  C27  1  0.23151502  0.46356114  0.93244488  1  0  -0.052672  0  3.775367  0  0  -0.073048  0  4.03919  0  0  -0.074542  0  4.06028  0  0  -0.087591  -0.071704  0  4.025118  0
C  C28  1  0.69424295  0.38853241  0.11328182  1  0  -0.049734  0  3.763541  0  0  -0.069148  0  4.025475  0  0  -0.069461  0  4.045121  0  0  -0.089535  -0.068984  0  4.011994  0
C  C29  1  0.30576860  0.61146964  0.88671754  1  0  -0.04953  0  3.763465  0  0  -0.068946  0  4.025393  0  0  -0.069258  0  4.045045  0  0  -0.089489  -0.068783  0  4.011917  0
C  C30  1  0.63199645  0.26408287  0.03352983  1  0  -0.121788  0  3.75537  0  0  -0.139714  0  4.002622  0  0  -0.143108  0  4.025241  0  0  -0.093759  -0.137161  0  3.98735  0
C  C31  1  0.36800333  0.73591916  0.96647043  1  0  -0.121794  0  3.755325  0  0  -0.139709  0  4.002606  0  0  -0.143105  0  4.025226  0  0  -0.093763  -0.137158  0  3.98734  0
C  C32  1  0.64338327  0.28632107  0.90683394  1  0  0.024934  0  3.77453  0  0  0.032657  0  4.007059  0  0  0.032188  0  4.031393  0  0  -0.008264  0.032756  0  3.990612  0
C  C33  1  0.35660916  0.71368097  0.09316632  1  0  0.024915  0  3.774576  0  0  0.032557  0  4.007129  0  0  0.032086  0  4.031464  0  0  -0.008279  0.032647  0  3.990675  0
C  C34  1  0.57769877  0.15505452  0.81997382  1  0  0.070998  0  3.770697  0  0  0.083589  0  4.00724  0  0  0.085707  0  4.029987  0  0  0.00032  0.082656  0  3.991866  0
C  C35  1  0.42229424  0.84494868  0.18002555  1  0  0.070988  0  3.770957  0  0  0.083693  0  4.007332  0  0  0.085811  0  4.03008  0  0  0.00034  0.082756  0  3.991965  0
C  C36  1  0.36893406  0.09278863  0.77760366  1  0  -0.116163  0  3.737265  0  0  -0.135251  0  3.987257  0  0  -0.139402  0  4.007499  0  0  -0.088741  -0.132267  0  3.973555  0
C  C37  1  0.27595013  0.90712384  0.22281630  1  0  -0.115713  0  3.7409  0  0  -0.134905  0  3.990617  0  0  -0.139039  0  4.010826  0  0  -0.088287  -0.132173  0  3.976237  0
C  C38  1  0.63105790  0.90720655  0.22239738  1  0  -0.116188  0  3.737508  0  0  -0.135306  0  3.98746  0  0  -0.139456  0  4.007702  0  0  -0.088736  -0.132324  0  3.97377  0
C  C39  1  0.72404285  0.09287930  0.77718581  1  0  -0.11572  0  3.740898  0  0  -0.134861  0  3.990629  0  0  -0.138996  0  4.010842  0  0  -0.088272  -0.132129  0  3.976249  0
C  C40  1  0.30706772  0.97040180  0.69609675  1  0  -0.04646  0  3.719561  0  0  -0.071323  0  3.966504  0  0  -0.069668  0  3.985858  0  0  -0.076063  -0.072694  0  3.953512  0
C  C41  1  0.33695786  0.02961070  0.30424893  1  0  -0.047884  0  3.72303  0  0  -0.072941  0  3.970158  0  0  -0.071258  0  3.989419  0  0  -0.076305  -0.073195  0  3.956022  0
C  C42  1  0.69292661  0.02959226  0.30390336  1  0  -0.046477  0  3.719573  0  0  -0.071375  0  3.966521  0  0  -0.06972  0  3.985875  0  0  -0.076075  -0.072773  0  3.953519  0
C  C43  1  0.66303987  0.97039016  0.69575314  1  0  -0.047852  0  3.723209  0  0  -0.072858  0  3.970339  0  0  -0.071173  0  3.989599  0  0  -0.076275  -0.073115  0  3.956209  0
C  C44  1  0.45359787  0.90766536  0.65525271  1  0  -0.078412  0  3.750186  0  0  -0.056063  0  3.987039  0  0  -0.065856  0  4.011418  0  0  -0.017778  -0.049481  0  3.970661  0
C  C45  1  0.54640109  0.09233210  0.34474838  1  0  -0.078376  0  3.750114  0  0  -0.055965  0  3.986868  0  0  -0.065759  0  4.011248  0  0  -0.017759  -0.049385  0  3.970496  0
C  C46  1  0.38335299  0.76731096  0.57724579  1  0  0.683356  0  3.852231  0  0  0.627623  0  4.156293  0  0  0.663848  0  4.146496  0  0  0.244897  0.602688  0  4.162655  0
C  C47  1  0.61664860  0.23268881  0.42275351  1  0  0.683368  0  3.852218  0  0  0.627644  0  4.156231  0  0  0.663871  0  4.146429  0  0  0.244918  0.602708  0  4.16259  0
O  O48  1  0.56816073  0.46981956  0.67513372  1  0  -0.636135  0  2.077018  0  0  -0.576994  0  2.331002  0  0  -0.605459  0  2.320131  0  0  -0.252906  -0.557032  0  2.338391  0
O  O49  1  0.09723990  0.53002115  0.32473774  1  0  -0.636372  0  2.075629  0  0  -0.577369  0  2.329759  0  0  -0.60574  0  2.3187  0  0  -0.253282  -0.557356  0  2.336799  0
O  O50  1  0.43183417  0.53017564  0.32486642  1  0  -0.63601  0  2.077096  0  0  -0.576902  0  2.331068  0  0  -0.605369  0  2.320202  0  0  -0.252865  -0.556941  0  2.338459  0
O  O51  1  0.90275696  0.46998091  0.67526161  1  0  -0.636474  0  2.075527  0  0  -0.577447  0  2.329682  0  0  -0.605818  0  2.318622  0  0  -0.253295  -0.557433  0  2.33672  0
O  O52  1  0.52322513  0.71211552  0.54888216  1  0  -0.643189  0  2.099149  0  0  -0.585393  0  2.354599  0  0  -0.612594  0  2.342798  0  0  -0.2643  -0.565915  0  2.361875  0
O  O53  1  0.81165693  0.28775819  0.45119136  1  0  -0.642326  0  2.100254  0  0  -0.584175  0  2.355193  0  0  -0.611495  0  2.343439  0  0  -0.264197  -0.565436  0  2.362923  0
O  O54  1  0.47677530  0.28788192  0.45111984  1  0  -0.643188  0  2.099171  0  0  -0.585403  0  2.354619  0  0  -0.612603  0  2.342814  0  0  -0.264267  -0.565925  0  2.361893  0
O  O55  1  0.18834262  0.71224042  0.54880884  1  0  -0.642323  0  2.100248  0  0  -0.584158  0  2.355186  0  0  -0.611477  0  2.343437  0  0  -0.264168  -0.565414  0  2.362909  0
O  O56  1  0.79385380  0.58809933  0.45434934  1  0  -0.941915  0  1.920333  0  0  -0.874274  0  2.177064  0  0  -0.900418  0  2.147252  0  0  -0.471286  -0.855915  0  2.198215  0
O  O57  1  0.20614542  0.41190156  0.54565090  1  0  -0.941941  0  1.920328  0  0  -0.874295  0  2.17707  0  0  -0.900437  0  2.147252  0  0  -0.471275  -0.855936  0  2.198221  0
