# generated using pymatgen
data_ZnH14C13N3O5
_symmetry_space_group_name_H-M   'P 1'
_cell_length_a   6.04970485
_cell_length_b   9.16886185
_cell_length_c   25.15400000
_cell_angle_alpha   90.00000000
_cell_angle_beta   96.91602338
_cell_angle_gamma   90.00000000
_symmetry_Int_Tables_number   1
_chemical_formula_structural   ZnH14C13N3O5
_chemical_formula_sum   'Zn4 H56 C52 N12 O20'
_cell_volume   1385.11255498
_cell_formula_units_Z   4
loop_
 _symmetry_equiv_pos_site_id
 _symmetry_equiv_pos_as_xyz
  1  'x, y, z'
loop_
 _atom_site_type_symbol
 _atom_site_label
 _atom_site_symmetry_multiplicity
 _atom_site_fract_x
 _atom_site_fract_y
 _atom_site_fract_z
 _atom_site_occupancy
 _atom_site_hle17_bader_spin_density
 _atom_site_hle17_ddec_charge
 _atom_site_hle17_ddec_spin_density
 _atom_site_hle17_ddec_sum_bond_order
 _atom_site_hle17_magmom
 _atom_site_hse06_10hf_bader_spin_density
 _atom_site_hse06_10hf_ddec_charge
 _atom_site_hse06_10hf_ddec_spin_density
 _atom_site_hse06_10hf_ddec_sum_bond_order
 _atom_site_hse06_10hf_magmom
 _atom_site_hse06_bader_spin_density
 _atom_site_hse06_ddec_charge
 _atom_site_hse06_ddec_spin_density
 _atom_site_hse06_ddec_sum_bond_order
 _atom_site_hse06_magmom
 _atom_site_pbe_bader_spin_density
 _atom_site_pbe_cm5_charge
 _atom_site_pbe_ddec_charge
 _atom_site_pbe_ddec_spin_density
 _atom_site_pbe_ddec_sum_bond_order
 _atom_site_pbe_magmom
Zn  Zn0  1  0.03152513  0.38944419  0.27925042  1  0  1.126107  0  1.725677  0  0  0.951433  0  2.188475  0  0  1.000222  0  2.129561  0  0  0.692848  0.916554  0  2.229717  0
Zn  Zn1  1  0.96846398  0.88944191  0.22074854  1  0  1.126191  0  1.725607  0  0  0.951453  0  2.188425  0  0  1.000246  0  2.129507  0  0  0.692857  0.916573  0  2.229661  0
Zn  Zn2  1  0.96846731  0.61055779  0.72074824  1  0  1.126121  0  1.725664  0  0  0.951456  0  2.188472  0  0  1.000248  0  2.129553  0  0  0.692873  0.916576  0  2.229712  0
Zn  Zn3  1  0.03153845  0.11055680  0.77925121  1  0  1.126186  0  1.725654  0  0  0.951452  0  2.188483  0  0  1.000242  0  2.129568  0  0  0.692859  0.916575  0  2.229717  0
H  H4  1  0.71935669  0.10308913  0.29752609  1  0  0.129424  0  0.969339  0  0  0.132754  0  1.038329  0  0  0.137196  0  1.032498  0  0  0.144688  0.129335  0  1.042819  0
H  H5  1  0.28063241  0.60308794  0.20247328  1  0  0.12954  0  0.969251  0  0  0.132814  0  1.038284  0  0  0.137254  0  1.032458  0  0  0.144725  0.129393  0  1.042773  0
H  H6  1  0.28063741  0.89691176  0.70247342  1  0  0.129498  0  0.969282  0  0  0.132778  0  1.038311  0  0  0.137218  0  1.032486  0  0  0.144708  0.12936  0  1.0428  0
H  H7  1  0.71936835  0.39691404  0.79752643  1  0  0.129506  0  0.969267  0  0  0.132812  0  1.038269  0  0  0.137255  0  1.032437  0  0  0.144718  0.129393  0  1.042755  0
H  H8  1  0.73499854  0.57167401  0.50264554  1  0  0.08098  0  0.964698  0  0  0.095135  0  1.022156  0  0  0.097439  0  1.021689  0  0  0.098697  0.093619  0  1.022349  0
H  H9  1  0.26499723  0.07168065  0.99735442  1  0  0.080946  0  0.96465  0  0  0.095093  0  1.022128  0  0  0.097394  0  1.021658  0  0  0.098669  0.093577  0  1.022321  0
H  H10  1  0.26498724  0.42832143  0.49735493  1  0  0.080983  0  0.964641  0  0  0.095127  0  1.022117  0  0  0.097428  0  1.021643  0  0  0.098699  0.09361  0  1.022312  0
H  H11  1  0.73501519  0.92832351  0.00264522  1  0  0.080997  0  0.964649  0  0  0.095147  0  1.022116  0  0  0.097446  0  1.021642  0  0  0.098699  0.093628  0  1.022313  0
H  H12  1  0.07809433  0.37931098  0.41042457  1  0  0.086607  0  0.950571  0  0  0.096091  0  1.015666  0  0  0.097226  0  1.014709  0  0  0.131156  0.094794  0  1.017204  0
H  H13  1  0.92190476  0.87930870  0.08957310  1  0  0.086541  0  0.950627  0  0  0.096046  0  1.015712  0  0  0.097181  0  1.014755  0  0  0.131145  0.094759  0  1.01724  0
H  H14  1  0.92190476  0.62068991  0.58957390  1  0  0.08659  0  0.950606  0  0  0.096112  0  1.015665  0  0  0.097248  0  1.014706  0  0  0.131155  0.094816  0  1.0172  0
H  H15  1  0.07809600  0.12069001  0.91042541  1  0  0.086588  0  0.950578  0  0  0.096071  0  1.015677  0  0  0.097207  0  1.014719  0  0  0.131145  0.094772  0  1.017216  0
H  H16  1  0.13945119  0.74726505  0.38803237  1  0  0.099953  0  0.94879  0  0  0.11195  0  1.005664  0  0  0.115142  0  1.004434  0  0  0.10463  0.109545  0  1.00689  0
H  H17  1  0.86054124  0.24726079  0.11196749  1  0  0.100037  0  0.948783  0  0  0.112086  0  1.005588  0  0  0.11528  0  1.004354  0  0  0.104674  0.109681  0  1.006819  0
H  H18  1  0.86053791  0.25273911  0.61196938  1  0  0.100008  0  0.948761  0  0  0.112051  0  1.00558  0  0  0.115246  0  1.004345  0  0  0.104661  0.109644  0  1.006812  0
H  H19  1  0.13946951  0.75274337  0.88803171  1  0  0.100035  0  0.948811  0  0  0.112079  0  1.005616  0  0  0.115274  0  1.004381  0  0  0.104665  0.109672  0  1.006849  0
H  H20  1  0.45515204  0.49031604  0.42706669  1  0  0.091322  0  0.962691  0  0  0.101247  0  1.02692  0  0  0.1047  0  1.024344  0  0  0.100337  0.098706  0  1.028963  0
H  H21  1  0.54485038  0.99032684  0.07293306  1  0  0.091305  0  0.962677  0  0  0.101236  0  1.026897  0  0  0.104685  0  1.024329  0  0  0.100358  0.098699  0  1.028934  0
H  H22  1  0.54484705  0.50967067  0.57293177  1  0  0.091291  0  0.962721  0  0  0.101216  0  1.026958  0  0  0.104666  0  1.024387  0  0  0.100327  0.098674  0  1.028999  0
H  H23  1  0.45515538  0.00967077  0.92706758  1  0  0.091303  0  0.962597  0  0  0.101231  0  1.026836  0  0  0.104681  0  1.024265  0  0  0.100345  0.09869  0  1.028878  0
H  H24  1  0.57909460  0.92757423  0.35910965  1  0  0.089188  0  0.93968  0  0  0.101142  0  1.009537  0  0  0.102162  0  1.009062  0  0  0.114958  0.100061  0  1.010623  0
H  H25  1  0.42090450  0.42757433  0.14089120  1  0  0.08918  0  0.939716  0  0  0.101133  0  1.009557  0  0  0.102152  0  1.009084  0  0  0.114957  0.100052  0  1.010647  0
H  H26  1  0.42090117  0.07242775  0.64089229  1  0  0.089173  0  0.939675  0  0  0.101106  0  1.009555  0  0  0.102125  0  1.009081  0  0  0.114939  0.100024  0  1.010644  0
H  H27  1  0.57909294  0.57242546  0.85910841  1  0  0.089226  0  0.939719  0  0  0.101172  0  1.009563  0  0  0.102192  0  1.009088  0  0  0.11497  0.100091  0  1.010651  0
H  H28  1  0.73394454  0.91104437  0.42322565  1  0  0.074481  0  0.955637  0  0  0.091454  0  1.01741  0  0  0.09093  0  1.019353  0  0  0.108295  0.09182  0  1.016503  0
H  H29  1  0.26605956  0.41104120  0.07677455  1  0  0.074488  0  0.955648  0  0  0.091427  0  1.017454  0  0  0.090902  0  1.019398  0  0  0.10829  0.091798  0  1.016548  0
H  H30  1  0.26605956  0.08895870  0.57677534  1  0  0.074493  0  0.955646  0  0  0.09144  0  1.017437  0  0  0.090916  0  1.01938  0  0  0.108296  0.091809  0  1.01653  0
H  H31  1  0.73393954  0.58895750  0.92322471  1  0  0.074523  0  0.955637  0  0  0.091438  0  1.017453  0  0  0.090912  0  1.0194  0  0  0.108301  0.091807  0  1.016548  0
H  H32  1  0.07875537  0.69996692  0.48302660  1  0  0.092335  0  0.974211  0  0  0.096444  0  1.047179  0  0  0.100193  0  1.044496  0  0  0.099979  0.093913  0  1.048931  0
H  H33  1  0.92123873  0.19996920  0.01697331  1  0  0.092361  0  0.974255  0  0  0.096435  0  1.047271  0  0  0.100184  0  1.044588  0  0  0.099956  0.093905  0  1.04902  0
H  H34  1  0.92123373  0.30003179  0.51697515  1  0  0.092346  0  0.974309  0  0  0.096494  0  1.047254  0  0  0.100246  0  1.044568  0  0  0.099979  0.093961  0  1.049001  0
H  H35  1  0.07877369  0.80003823  0.98302594  1  0  0.092357  0  0.97429  0  0  0.096512  0  1.047215  0  0  0.100261  0  1.044531  0  0  0.099997  0.093978  0  1.048964  0
H  H36  1  0.34225735  0.12281350  0.39994295  1  0  0.076895  0  0.938447  0  0  0.093372  0  0.999269  0  0  0.094322  0  0.999702  0  0  0.092999  0.092678  0  0.998946  0
H  H37  1  0.65774341  0.62281231  0.10005835  1  0  0.076878  0  0.938462  0  0  0.093345  0  0.99928  0  0  0.094292  0  0.999716  0  0  0.09299  0.092649  0  0.998954  0
H  H38  1  0.65774174  0.87718848  0.60005989  1  0  0.076887  0  0.938441  0  0  0.093351  0  0.99928  0  0  0.094296  0  0.999719  0  0  0.092986  0.092656  0  0.998956  0
H  H39  1  0.34225902  0.37718531  0.89994141  1  0  0.076886  0  0.93848  0  0  0.093331  0  0.999308  0  0  0.094276  0  0.999748  0  0  0.092991  0.092637  0  0.998984  0
H  H40  1  0.30081662  0.93944484  0.41636267  1  0  0.068775  0  0.941888  0  0  0.090564  0  0.997023  0  0  0.090547  0  0.998113  0  0  0.092481  0.090498  0  0.996294  0
H  H41  1  0.69918414  0.43944386  0.08363823  1  0  0.068758  0  0.941848  0  0  0.090525  0  0.997003  0  0  0.090503  0  0.998093  0  0  0.092474  0.090459  0  0.996274  0
H  H42  1  0.69918581  0.06055604  0.58364027  1  0  0.068741  0  0.94182  0  0  0.090545  0  0.996953  0  0  0.090522  0  0.998041  0  0  0.09247  0.090478  0  0.996223  0
H  H43  1  0.30081329  0.56055158  0.91636098  1  0  0.068774  0  0.941839  0  0  0.090557  0  0.996959  0  0  0.090537  0  0.998047  0  0  0.092475  0.090492  0  0.996228  0
H  H44  1  0.30258994  0.10736665  0.49411459  1  0  0.0577  0  0.958453  0  0  0.075522  0  1.022334  0  0  0.075891  0  1.023386  0  0  0.083936  0.07531  0  1.021551  0
H  H45  1  0.69741249  0.60736655  0.00588636  1  0  0.057698  0  0.958456  0  0  0.075529  0  1.022328  0  0  0.075897  0  1.023377  0  0  0.083952  0.075318  0  1.021546  0
H  H46  1  0.69741915  0.89263533  0.50588774  1  0  0.057743  0  0.958393  0  0  0.075543  0  1.022297  0  0  0.075912  0  1.023346  0  0  0.083978  0.075335  0  1.021514  0
H  H47  1  0.30258661  0.39263325  0.99411330  1  0  0.057705  0  0.958434  0  0  0.075544  0  1.022305  0  0  0.075913  0  1.023354  0  0  0.083973  0.075332  0  1.021522  0
H  H48  1  0.58229823  0.15479239  0.48941393  1  0  0.057239  0  0.952351  0  0  0.073461  0  1.018857  0  0  0.074167  0  1.019068  0  0  0.082144  0.073071  0  1.018489  0
H  H49  1  0.41770420  0.65479010  0.01058702  1  0  0.057276  0  0.952354  0  0  0.073483  0  1.018882  0  0  0.074182  0  1.019089  0  0  0.082165  0.073091  0  1.018516  0
H  H50  1  0.41771086  0.84520959  0.51058800  1  0  0.057292  0  0.952409  0  0  0.073512  0  1.018906  0  0  0.074213  0  1.019115  0  0  0.082196  0.073121  0  1.01854  0
H  H51  1  0.58229490  0.34520751  0.98941304  1  0  0.057262  0  0.952351  0  0  0.073479  0  1.018867  0  0  0.074176  0  1.019083  0  0  0.082174  0.073089  0  1.0185  0
H  H52  1  0.62042544  0.27081660  0.22821748  1  0  0.419448  0  0.880906  0  0  0.387704  0  0.947774  0  0  0.396851  0  0.934631  0  0  0.289459  0.381041  0  0.957382  0
H  H53  1  0.37957200  0.77081214  0.27178252  1  0  0.419432  0  0.880891  0  0  0.387693  0  0.947777  0  0  0.396839  0  0.934638  0  0  0.289459  0.381026  0  0.957392  0
H  H54  1  0.37958032  0.72918756  0.77178157  1  0  0.419421  0  0.880885  0  0  0.387697  0  0.947758  0  0  0.396842  0  0.934621  0  0  0.289473  0.381034  0  0.957368  0
H  H55  1  0.62043376  0.22918548  0.72821733  1  0  0.419432  0  0.880847  0  0  0.387691  0  0.947769  0  0  0.396838  0  0.934627  0  0  0.28947  0.381027  0  0.957378  0
H  H56  1  0.59903237  0.43993137  0.23968149  1  0  0.417915  0  0.882229  0  0  0.387736  0  0.94727  0  0  0.397156  0  0.933668  0  0  0.290639  0.380938  0  0.957114  0
H  H57  1  0.40096006  0.93992582  0.26031956  1  0  0.417925  0  0.882278  0  0  0.387754  0  0.947262  0  0  0.397173  0  0.933661  0  0  0.290652  0.380956  0  0.957107  0
H  H58  1  0.40096839  0.56007279  0.76031861  1  0  0.417925  0  0.8822  0  0  0.387773  0  0.947209  0  0  0.397195  0  0.933604  0  0  0.290676  0.380976  0  0.957051  0
H  H59  1  0.59904237  0.06007289  0.73968099  1  0  0.417965  0  0.882246  0  0  0.387808  0  0.947183  0  0  0.397227  0  0.933581  0  0  0.290695  0.381011  0  0.957025  0
C  C60  1  0.82747591  0.65186280  0.35494248  1  0  -0.059987  0  3.723681  0  0  -0.046695  0  3.962092  0  0  -0.0495  0  3.981033  0  0  -0.004459  -0.044782  0  3.949717  0
C  C61  1  0.17251320  0.15186072  0.14505769  1  0  -0.05999  0  3.723706  0  0  -0.046732  0  3.962111  0  0  -0.049538  0  3.981054  0  0  -0.004502  -0.044814  0  3.949738  0
C  C62  1  0.17251653  0.34813917  0.64505699  1  0  -0.06012  0  3.723732  0  0  -0.046828  0  3.962147  0  0  -0.049639  0  3.981089  0  0  -0.004545  -0.044905  0  3.949774  0
C  C63  1  0.82748756  0.84814016  0.85494202  1  0  -0.060063  0  3.723716  0  0  -0.046819  0  3.962168  0  0  -0.049627  0  3.98111  0  0  -0.004584  -0.044911  0  3.949801  0
C  C64  1  0.87116618  0.69334233  0.29924386  1  0  0.687591  0  3.870552  0  0  0.627089  0  4.171728  0  0  0.663966  0  4.160777  0  0  0.222194  0.60186  0  4.178281  0
C  C65  1  0.12881960  0.19333915  0.20075739  1  0  0.687386  0  3.871115  0  0  0.627007  0  4.17212  0  0  0.663883  0  4.161174  0  0  0.222114  0.601778  0  4.178676  0
C  C66  1  0.12882959  0.30665856  0.70075689  1  0  0.687446  0  3.870729  0  0  0.626969  0  4.171884  0  0  0.663847  0  4.160938  0  0  0.222113  0.601737  0  4.178444  0
C  C67  1  0.87117117  0.80665628  0.79924282  1  0  0.68751  0  3.870815  0  0  0.627122  0  4.171859  0  0  0.663999  0  4.160903  0  0  0.222215  0.601894  0  4.178413  0
C  C68  1  0.46305289  0.52883990  0.32159581  1  0  0.655836  0  3.908114  0  0  0.599943  0  4.207633  0  0  0.634103  0  4.199817  0  0  0.210266  0.576967  0  4.212201  0
C  C69  1  0.53694288  0.02884546  0.17840335  1  0  0.655817  0  3.908076  0  0  0.599941  0  4.207555  0  0  0.634099  0  4.199747  0  0  0.210282  0.57697  0  4.212115  0
C  C70  1  0.53695120  0.47115444  0.67840359  1  0  0.655809  0  3.90808  0  0  0.599909  0  4.207615  0  0  0.634066  0  4.199805  0  0  0.210278  0.576935  0  4.212182  0
C  C71  1  0.46306122  0.97115652  0.82159605  1  0  0.655713  0  3.908103  0  0  0.59984  0  4.207588  0  0  0.633999  0  4.199777  0  0  0.210235  0.576868  0  4.212151  0
C  C72  1  0.63453873  0.57828333  0.36615623  1  0  -0.088671  0  3.741525  0  0  -0.074022  0  3.975631  0  0  -0.080768  0  3.997663  0  0  -0.018807  -0.070231  0  3.962235  0
C  C73  1  0.36546203  0.07828562  0.13384308  1  0  -0.088732  0  3.741669  0  0  -0.07409  0  3.975768  0  0  -0.080834  0  3.997797  0  0  -0.018761  -0.070302  0  3.962374  0
C  C74  1  0.36545537  0.42171537  0.63384289  1  0  -0.08862  0  3.74151  0  0  -0.073988  0  3.975634  0  0  -0.080724  0  3.997655  0  0  -0.018745  -0.070206  0  3.962241  0
C  C75  1  0.63454373  0.92170764  0.86615637  1  0  -0.088603  0  3.741785  0  0  -0.073978  0  3.975886  0  0  -0.080719  0  3.997913  0  0  -0.018736  -0.070184  0  3.962488  0
C  C76  1  0.79159158  0.15403220  0.33465820  1  0  0.195807  0  3.585991  0  0  0.116917  0  3.846804  0  0  0.132551  0  3.855645  0  0  0.17286  0.107283  0  3.840453  0
C  C77  1  0.20839919  0.65403428  0.16533963  1  0  0.195603  0  3.586269  0  0  0.116796  0  3.847061  0  0  0.132428  0  3.855903  0  0  0.172823  0.107165  0  3.840703  0
C  C78  1  0.20840252  0.84596541  0.66534012  1  0  0.195611  0  3.586286  0  0  0.1168  0  3.847094  0  0  0.132428  0  3.855942  0  0  0.172829  0.107165  0  3.84074  0
C  C79  1  0.79159990  0.34596879  0.83465923  1  0  0.195546  0  3.586198  0  0  0.116708  0  3.846974  0  0  0.132339  0  3.855817  0  0  0.172766  0.10708  0  3.840616  0
C  C80  1  0.76203126  0.59339644  0.46133293  1  0  -0.074783  0  3.778056  0  0  -0.089109  0  4.029898  0  0  -0.091884  0  4.051781  0  0  -0.091333  -0.087163  0  4.015166  0
C  C81  1  0.23796784  0.09340418  0.03866673  1  0  -0.074745  0  3.777971  0  0  -0.089062  0  4.029801  0  0  -0.091832  0  4.05168  0  0  -0.09131  -0.087116  0  4.01507  0
C  C82  1  0.23795952  0.40659790  0.53866728  1  0  -0.074731  0  3.777961  0  0  -0.089039  0  4.029792  0  0  -0.091807  0  4.051671  0  0  -0.091303  -0.087092  0  4.01506  0
C  C83  1  0.76203958  0.90659998  0.96133277  1  0  -0.074705  0  3.777756  0  0  -0.089026  0  4.029602  0  0  -0.09179  0  4.051477  0  0  -0.091288  -0.087078  0  4.014869  0
C  C84  1  0.97296471  0.29150837  0.39325624  1  0  0.204562  0  3.734719  0  0  0.150135  0  4.025912  0  0  0.161397  0  4.041567  0  0  0.146861  0.14256  0  4.016057  0
C  C85  1  0.02703605  0.79151045  0.10674147  1  0  0.204691  0  3.734669  0  0  0.150235  0  4.025875  0  0  0.161497  0  4.041534  0  0  0.146909  0.142649  0  4.01602  0
C  C86  1  0.02703938  0.70848924  0.60674276  1  0  0.204635  0  3.734605  0  0  0.15018  0  4.025792  0  0  0.16144  0  4.04145  0  0  0.146919  0.142602  0  4.015935  0
C  C87  1  0.97296638  0.20849153  0.89325709  1  0  0.204613  0  3.734617  0  0  0.150182  0  4.025811  0  0  0.161445  0  4.04147  0  0  0.146926  0.142609  0  4.015958  0
C  C88  1  0.98899120  0.69186013  0.39716675  1  0  -0.091778  0  3.732679  0  0  -0.115682  0  3.98667  0  0  -0.117751  0  4.005775  0  0  -0.087464  -0.114177  0  3.974113  0
C  C89  1  0.01099458  0.19186133  0.10283173  1  0  -0.091903  0  3.732678  0  0  -0.115834  0  3.986643  0  0  -0.117906  0  4.00575  0  0  -0.087554  -0.114331  0  3.974085  0
C  C90  1  0.01099125  0.30813857  0.60283243  1  0  -0.091804  0  3.732601  0  0  -0.115741  0  3.986587  0  0  -0.117811  0  4.005697  0  0  -0.087508  -0.114243  0  3.974029  0
C  C91  1  0.98901284  0.80814065  0.89716658  1  0  -0.091917  0  3.732617  0  0  -0.115842  0  3.986586  0  0  -0.117912  0  4.005692  0  0  -0.087542  -0.114332  0  3.974025  0
C  C92  1  0.60468202  0.54920884  0.41954536  1  0  -0.064951  0  3.745509  0  0  -0.088557  0  3.993727  0  0  -0.088168  0  4.013802  0  0  -0.08466  -0.088798  0  3.980985  0
C  C93  1  0.39531208  0.04921440  0.08045256  1  0  -0.064873  0  3.745546  0  0  -0.088473  0  3.993748  0  0  -0.088083  0  4.013828  0  0  -0.084696  -0.088718  0  3.981004  0
C  C94  1  0.39531208  0.45078659  0.58045256  1  0  -0.064923  0  3.745524  0  0  -0.088521  0  3.993728  0  0  -0.088134  0  4.013803  0  0  -0.084685  -0.088761  0  3.980988  0
C  C95  1  0.60469201  0.95078540  0.91954445  1  0  -0.064923  0  3.745442  0  0  -0.088521  0  3.993655  0  0  -0.088132  0  4.013731  0  0  -0.084715  -0.088763  0  3.980915  0
C  C96  1  0.62674112  0.98441117  0.39712226  1  0  -0.015163  0  3.611001  0  0  -0.090048  0  3.865049  0  0  -0.086813  0  3.877134  0  0  -0.050468  -0.092415  0  3.857775  0
C  C97  1  0.37325964  0.48441018  0.10287824  1  0  -0.01517  0  3.611016  0  0  -0.090019  0  3.865036  0  0  -0.086786  0  3.877122  0  0  -0.050464  -0.092395  0  3.857775  0
C  C98  1  0.37326131  0.01559081  0.60287829  1  0  -0.015168  0  3.610986  0  0  -0.090003  0  3.865033  0  0  -0.086768  0  3.877116  0  0  -0.050471  -0.09238  0  3.85777  0
C  C99  1  0.62673945  0.51558853  0.89712142  1  0  -0.015226  0  3.611054  0  0  -0.090053  0  3.86503  0  0  -0.08682  0  3.877114  0  0  -0.050463  -0.092429  0  3.85777  0
C  C100  1  0.95633381  0.66408679  0.45019927  1  0  -0.069306  0  3.766204  0  0  -0.084774  0  4.02455  0  0  -0.084534  0  4.042461  0  0  -0.08776  -0.085138  0  4.012996  0
C  C101  1  0.04365364  0.16408907  0.04980084  1  0  -0.069369  0  3.766207  0  0  -0.084821  0  4.024555  0  0  -0.084581  0  4.042466  0  0  -0.087725  -0.085184  0  4.013004  0
C  C102  1  0.04365030  0.33591301  0.54980075  1  0  -0.069378  0  3.766268  0  0  -0.084903  0  4.024621  0  0  -0.084666  0  4.042533  0  0  -0.087765  -0.085258  0  4.013061  0
C  C103  1  0.95635545  0.83591727  0.95019990  1  0  -0.069415  0  3.766246  0  0  -0.08493  0  4.024599  0  0  -0.084691  0  4.042509  0  0  -0.087765  -0.085285  0  4.013036  0
C  C104  1  0.42059146  0.02995028  0.42261227  1  0  -0.115618  0  3.666282  0  0  -0.15534  0  3.929269  0  0  -0.156505  0  3.942964  0  0  -0.160987  -0.153873  0  3.919488  0
C  C105  1  0.57941097  0.52994909  0.07738867  1  0  -0.115573  0  3.666268  0  0  -0.155238  0  3.929173  0  0  -0.1564  0  3.942864  0  0  -0.160949  -0.153771  0  3.919398  0
C  C106  1  0.57941097  0.97005061  0.57738987  1  0  -0.115578  0  3.666281  0  0  -0.155291  0  3.929249  0  0  -0.15645  0  3.942935  0  0  -0.160936  -0.153826  0  3.919476  0
C  C107  1  0.42059146  0.47004853  0.92261108  1  0  -0.115681  0  3.666316  0  0  -0.155317  0  3.929192  0  0  -0.15648  0  3.942886  0  0  -0.160982  -0.15385  0  3.919416  0
C  C108  1  0.46032881  0.06549450  0.48246627  1  0  -0.109782  0  3.690096  0  0  -0.148771  0  3.949517  0  0  -0.14982  0  3.964634  0  0  -0.172196  -0.147949  0  3.938765  0
C  C109  1  0.53967362  0.56549331  0.01753507  1  0  -0.109832  0  3.690161  0  0  -0.148837  0  3.949571  0  0  -0.149871  0  3.964684  0  0  -0.17225  -0.148013  0  3.938814  0
C  C110  1  0.53968195  0.93450530  0.51753690  1  0  -0.10987  0  3.690281  0  0  -0.148841  0  3.949663  0  0  -0.149882  0  3.964786  0  0  -0.172323  -0.148023  0  3.938911  0
C  C111  1  0.46032381  0.43450431  0.98246414  1  0  -0.109757  0  3.690125  0  0  -0.148785  0  3.949532  0  0  -0.149826  0  3.964652  0  0  -0.172278  -0.147958  0  3.938771  0
N  N112  1  0.92454393  0.27133030  0.33928816  1  0  -0.434326  0  3.27593  0  0  -0.357733  0  3.587212  0  0  -0.38099  0  3.59665  0  0  -0.352058  -0.341506  0  3.58048  0
N  N113  1  0.07544851  0.77132801  0.16071130  1  0  -0.434394  0  3.275975  0  0  -0.357778  0  3.58721  0  0  -0.381037  0  3.596649  0  0  -0.352116  -0.341551  0  3.580478  0
N  N114  1  0.07545184  0.72867168  0.66071180  1  0  -0.434314  0  3.275972  0  0  -0.357728  0  3.587246  0  0  -0.380987  0  3.596686  0  0  -0.352086  -0.341501  0  3.580512  0
N  N115  1  0.92455559  0.22867397  0.83928850  1  0  -0.434284  0  3.275906  0  0  -0.357681  0  3.58715  0  0  -0.380945  0  3.596598  0  0  -0.352081  -0.341456  0  3.580415  0
N  N116  1  0.76295871  0.10748771  0.38382102  1  0  0.054929  0  3.532797  0  0  0.175819  0  3.720379  0  0  0.166221  0  3.742223  0  0  -0.127415  0.181435  0  3.706488  0
N  N117  1  0.23703872  0.60748761  0.11617898  1  0  0.055024  0  3.532812  0  0  0.175857  0  3.720416  0  0  0.166266  0  3.742248  0  0  -0.127421  0.181474  0  3.706526  0
N  N118  1  0.23703706  0.89251317  0.61617933  1  0  0.055083  0  3.532781  0  0  0.17591  0  3.720384  0  0  0.166322  0  3.74221  0  0  -0.127404  0.181529  0  3.706493  0
N  N119  1  0.76296371  0.39251328  0.88382077  1  0  0.055055  0  3.532803  0  0  0.175901  0  3.72038  0  0  0.166316  0  3.7422  0  0  -0.127422  0.181518  0  3.706489  0
N  N120  1  0.87756511  0.19386485  0.42199299  1  0  -0.277436  0  2.838609  0  0  -0.272461  0  3.100825  0  0  -0.281825  0  3.115402  0  0  -0.220549  -0.26625  0  3.091277  0
N  N121  1  0.12243565  0.69386584  0.07800672  1  0  -0.277451  0  2.838744  0  0  -0.272465  0  3.100988  0  0  -0.281827  0  3.115557  0  0  -0.22053  -0.266257  0  3.091448  0
N  N122  1  0.12243399  0.80613604  0.57800707  1  0  -0.277509  0  2.838566  0  0  -0.272524  0  3.100809  0  0  -0.28189  0  3.115384  0  0  -0.220573  -0.266314  0  3.091265  0
N  N123  1  0.87756678  0.30613614  0.92199343  1  0  -0.277442  0  2.83866  0  0  -0.272458  0  3.100878  0  0  -0.281823  0  3.115451  0  0  -0.220534  -0.26625  0  3.091334  0
O  O124  1  0.96260786  0.60429856  0.27002596  1  0  -0.629185  0  2.092076  0  0  -0.554115  0  2.362467  0  0  -0.583456  0  2.347595  0  0  -0.304814  -0.533224  0  2.372107  0
O  O125  1  0.03739290  0.10429757  0.22997415  1  0  -0.62909  0  2.092455  0  0  -0.554025  0  2.36279  0  0  -0.583366  0  2.34792  0  0  -0.304726  -0.533135  0  2.372431  0
O  O126  1  0.03739623  0.39570124  0.72997504  1  0  -0.629056  0  2.092155  0  0  -0.55403  0  2.362595  0  0  -0.583362  0  2.347702  0  0  -0.304738  -0.533141  0  2.372238  0
O  O127  1  0.96261952  0.89570332  0.77002590  1  0  -0.629224  0  2.092198  0  0  -0.554175  0  2.362557  0  0  -0.583506  0  2.347661  0  0  -0.304834  -0.533279  0  2.372194  0
O  O128  1  0.83190172  0.82589858  0.28587728  1  0  -0.61758  0  2.044479  0  0  -0.547373  0  2.3149  0  0  -0.57582  0  2.299085  0  0  -0.306027  -0.527231  0  2.325467  0
O  O129  1  0.16808406  0.32589541  0.21412239  1  0  -0.617352  0  2.044474  0  0  -0.547297  0  2.314958  0  0  -0.575737  0  2.299126  0  0  -0.305952  -0.527154  0  2.325525  0
O  O130  1  0.16809072  0.17410558  0.71412298  1  0  -0.617518  0  2.044593  0  0  -0.547319  0  2.315023  0  0  -0.575758  0  2.299187  0  0  -0.305995  -0.527179  0  2.325595  0
O  O131  1  0.83191337  0.67410330  0.78587722  1  0  -0.617382  0  2.044602  0  0  -0.547292  0  2.315042  0  0  -0.575761  0  2.299274  0  0  -0.305931  -0.527148  0  2.325607  0
O  O132  1  0.69963871  0.36511075  0.22763048  1  0  -0.825764  0  1.863715  0  0  -0.768151  0  2.055696  0  0  -0.789168  0  2.026378  0  0  -0.582486  -0.753175  0  2.076603  0
O  O133  1  0.30035539  0.86510628  0.27236863  1  0  -0.82575  0  1.863745  0  0  -0.768168  0  2.0557  0  0  -0.789182  0  2.026372  0  0  -0.582508  -0.753193  0  2.076611  0
O  O134  1  0.30036372  0.63489341  0.77236847  1  0  -0.825747  0  1.863682  0  0  -0.76819  0  2.055717  0  0  -0.789197  0  2.026375  0  0  -0.582544  -0.753217  0  2.076623  0
O  O135  1  0.69964870  0.13489133  0.72763077  1  0  -0.825808  0  1.863761  0  0  -0.768222  0  2.055709  0  0  -0.789248  0  2.026401  0  0  -0.582548  -0.753248  0  2.076617  0
O  O136  1  0.47293020  0.58311272  0.27527496  1  0  -0.654468  0  2.042146  0  0  -0.584068  0  2.254501  0  0  -0.608957  0  2.244543  0  0  -0.309827  -0.566583  0  2.261218  0
O  O137  1  0.52706057  0.08311610  0.22472525  1  0  -0.654412  0  2.042005  0  0  -0.583986  0  2.254286  0  0  -0.608872  0  2.244323  0  0  -0.309812  -0.566502  0  2.261001  0
O  O138  1  0.52706557  0.41688489  0.72472460  1  0  -0.654407  0  2.042085  0  0  -0.58399  0  2.254398  0  0  -0.608882  0  2.244445  0  0  -0.309806  -0.566506  0  2.261113  0
O  O139  1  0.47294019  0.91688370  0.77527525  1  0  -0.654345  0  2.042058  0  0  -0.58393  0  2.25434  0  0  -0.608817  0  2.244376  0  0  -0.309781  -0.566446  0  2.261056  0
O  O140  1  0.32188333  0.43447159  0.33294200  1  0  -0.638399  0  2.027829  0  0  -0.579049  0  2.296294  0  0  -0.606467  0  2.284082  0  0  -0.318124  -0.559528  0  2.303618  0
O  O141  1  0.67810578  0.93447585  0.16705856  1  0  -0.638359  0  2.027656  0  0  -0.579056  0  2.296216  0  0  -0.606471  0  2.284  0  0  -0.31816  -0.55953  0  2.30352  0
O  O142  1  0.67811244  0.56552166  0.66705756  1  0  -0.638371  0  2.027826  0  0  -0.579032  0  2.296326  0  0  -0.606445  0  2.284107  0  0  -0.318149  -0.559509  0  2.303639  0
O  O143  1  0.32188666  0.06552067  0.83294289  1  0  -0.63837  0  2.027736  0  0  -0.579015  0  2.296204  0  0  -0.606431  0  2.283985  0  0  -0.318124  -0.559495  0  2.303522  0
