# generated using pymatgen
data_CoH24C22SN4O7
_symmetry_space_group_name_H-M   'P 1'
_cell_length_a   8.35705775
_cell_length_b   11.32699373
_cell_length_c   11.84767627
_cell_angle_alpha   103.67100835
_cell_angle_beta   90.00038609
_cell_angle_gamma   90.00025074
_symmetry_Int_Tables_number   1
_chemical_formula_structural   CoH24C22SN4O7
_chemical_formula_sum   'Co2 H48 C44 S2 N8 O14'
_cell_volume   1089.73152812
_cell_formula_units_Z   2
loop_
 _symmetry_equiv_pos_site_id
 _symmetry_equiv_pos_as_xyz
  1  'x, y, z'
loop_
 _atom_site_type_symbol
 _atom_site_label
 _atom_site_symmetry_multiplicity
 _atom_site_fract_x
 _atom_site_fract_y
 _atom_site_fract_z
 _atom_site_occupancy
 _atom_site_hle17_ddec_charge
 _atom_site_hle17_ddec_spin_density
 _atom_site_hle17_ddec_sum_bond_order
 _atom_site_hle17_magmom
 _atom_site_hse06_10hf_ddec_charge
 _atom_site_hse06_10hf_ddec_spin_density
 _atom_site_hse06_10hf_ddec_sum_bond_order
 _atom_site_hse06_10hf_magmom
 _atom_site_hse06_ddec_charge
 _atom_site_hse06_ddec_spin_density
 _atom_site_hse06_ddec_sum_bond_order
 _atom_site_hse06_magmom
 _atom_site_pbe_cm5_charge
 _atom_site_pbe_ddec_charge
 _atom_site_pbe_ddec_spin_density
 _atom_site_pbe_ddec_sum_bond_order
 _atom_site_pbe_magmom
Co  Co0  1  0.51886426  0.15653564  0.34870636  1  0.803602  -1.061142  2.229389  -0.984  0.798936  -1.013282  2.650713  -0.951  0.874672  -1.015826  2.571611  -0.962  0.613162  0.749864  -1.0075  2.703873  -0.937
Co  Co1  1  0.01887112  0.84346574  0.65129139  1  0.80361  -1.061137  2.229356  -0.984  0.798996  -1.013274  2.650632  -0.951  0.874748  -1.015825  2.571497  -0.962  0.613187  0.749946  -1.007495  2.703765  -0.937
H  H2  1  0.54856439  0.56160809  0.73427392  1  0.078533  -4e-06  0.984451  0.0  0.08859  1.4e-05  1.050879  0.0  0.0904  5e-06  1.051531  0.0  0.09314  0.087271  2.8e-05  1.050556  0.0
H  H3  1  0.04857826  0.43838982  0.26573162  1  0.078483  -4e-06  0.984452  0.0  0.088624  1.3e-05  1.050804  0.0  0.090443  5e-06  1.051458  0.0  0.093172  0.087299  2.8e-05  1.050494  0.0
H  H4  1  0.44519253  0.35734915  0.73246888  1  0.092022  4.5e-05  0.960163  0.0  0.102994  1.1e-05  1.020811  0.0  0.105573  7e-06  1.020393  0.0  0.099104  0.101013  1.4e-05  1.021341  0.0
H  H5  1  0.94520539  0.64264343  0.26753720  1  0.092026  4.5e-05  0.960174  0.0  0.103004  1.1e-05  1.020795  0.0  0.105593  7e-06  1.020358  0.0  0.099038  0.101015  1.4e-05  1.021332  0.0
H  H6  1  0.37096380  0.72231297  0.68786352  1  0.123852  0.00025  0.976292  0.0  0.132089  0.000138  1.036595  0.0  0.135456  0.000143  1.034411  0.0  0.105401  0.129476  0.000127  1.038396  0.0
H  H7  1  0.87096439  0.27768924  0.31214270  1  0.12391  0.00025  0.976189  0.0  0.132125  0.000138  1.036505  0.0  0.135489  0.000143  1.034322  0.0  0.105398  0.129518  0.000127  1.038305  0.0
H  H8  1  0.15842137  0.30492108  0.68708131  1  0.117048  4.9e-05  0.944601  0.0  0.128429  -1.4e-05  1.001329  0.0  0.131645  -7e-06  0.999676  0.0  0.108499  0.125886  -2.5e-05  1.002892  0.0
H  H9  1  0.65843378  0.69509371  0.31292258  1  0.117058  4.8e-05  0.944519  0.0  0.128414  -1.4e-05  1.001265  0.0  0.131672  -7e-06  0.999557  0.0  0.108479  0.125869  -2.5e-05  1.002823  0.0
H  H10  1  0.79079028  0.62680278  0.60063521  1  0.111255  4.3e-05  0.93718  0.0  0.119578  0.000154  1.000548  0.0  0.122407  0.000102  0.996135  0.0  0.141842  0.11716  0.000221  1.004237  0.0
H  H11  1  0.29079321  0.37319899  0.39935537  1  0.111313  4.3e-05  0.937224  0.0  0.119606  0.000154  1.000639  0.0  0.122437  0.000102  0.996223  0.0  0.141854  0.117191  0.000221  1.004329  0.0
H  H12  1  0.75455323  0.18649565  0.71066247  1  0.111173  -3e-05  0.966735  0.0  0.122765  -6e-06  1.026638  0.0  0.125858  1e-06  1.025088  0.0  0.104259  0.120248  -1.3e-05  1.028132  0.0
H  H13  1  0.25455858  0.81350323  0.28933322  1  0.111111  -2.9e-05  0.966825  0.0  0.122761  -6e-06  1.026649  0.0  0.125855  1e-06  1.025093  0.0  0.104247  0.120243  -1.3e-05  1.028139  0.0
H  H14  1  0.63428154  0.07140840  0.82975807  1  0.109722  1.2e-05  0.950609  0.0  0.120798  3.1e-05  1.013997  0.0  0.122519  2.4e-05  1.012742  0.0  0.115415  0.119264  3.5e-05  1.015118  0.0
H  H15  1  0.13428269  0.92859264  0.17024348  1  0.109679  1.2e-05  0.950605  0.0  0.120737  3.1e-05  1.014034  0.0  0.122456  2.4e-05  1.01278  0.0  0.115391  0.119202  3.5e-05  1.01516  0.0
H  H16  1  0.79250644  0.08527045  0.93090635  1  0.091099  -4e-06  0.918819  0.0  0.106961  1.9e-05  0.98067  0.0  0.107222  1.7e-05  0.981585  0.0  0.116933  0.106731  2.3e-05  0.980085  0.0
H  H17  1  0.29251007  0.91473318  0.06909478  1  0.091095  -3e-06  0.918806  0.0  0.106968  1.9e-05  0.980669  0.0  0.107229  1.7e-05  0.981584  0.0  0.116935  0.106738  2.3e-05  0.980082  0.0
H  H18  1  0.15122483  0.19301159  0.23826496  1  0.1175  0.000246  0.958166  0.0  0.129257  0.000159  1.016089  0.0  0.131835  0.000147  1.014954  0.0  0.110151  0.127138  0.000163  1.017206  0.0
H  H19  1  0.65121855  0.80698592  0.76174262  1  0.117533  0.000246  0.958295  0.0  0.129315  0.000159  1.01617  0.0  0.13189  0.000147  1.015036  0.0  0.110165  0.127193  0.000163  1.017286  0.0
H  H20  1  0.06415218  0.22734629  0.88797935  1  0.090764  2.7e-05  0.962225  0.0  0.101902  7e-06  1.022486  0.0  0.1045  6e-06  1.022229  0.0  0.098662  0.09992  8e-06  1.022901  0.0
H  H21  1  0.56415814  0.77265352  0.11202921  1  0.090717  2.7e-05  0.962142  0.0  0.101863  7e-06  1.022414  0.0  0.104464  6e-06  1.022153  0.0  0.098639  0.099882  8e-06  1.022829  0.0
H  H22  1  0.96914600  0.23591259  0.08688484  1  0.082442  0.0  0.976144  0.0  0.092308  2e-05  1.042691  0.0  0.094225  1.1e-05  1.042948  0.0  0.094834  0.090907  3.6e-05  1.042653  0.0
H  H23  1  0.46914676  0.76408556  0.91312513  1  0.082433  0.0  0.976202  0.0  0.092313  2e-05  1.042733  0.0  0.09423  1.1e-05  1.042991  0.0  0.094829  0.090913  3.6e-05  1.042683  0.0
H  H24  1  0.69214564  0.34985567  0.07460635  1  0.087663  3.8e-05  0.972902  0.0  0.096453  4.6e-05  1.039983  0.0  0.098629  3e-05  1.040248  0.0  0.096375  0.094952  6.9e-05  1.039793  0.0
H  H25  1  0.19214473  0.65014291  0.92539068  1  0.087598  3.9e-05  0.972953  0.0  0.096392  4.6e-05  1.040048  0.0  0.098568  3e-05  1.040304  0.0  0.09635  0.09489  6.9e-05  1.039854  0.0
H  H26  1  0.83594124  0.57066498  0.84323560  1  0.084968  2.9e-05  0.981065  0.0  0.092777  3.4e-05  1.050041  0.0  0.094726  1.7e-05  1.050685  0.0  0.095054  0.091443  5.8e-05  1.04958  0.0
H  H27  1  0.33595034  0.42933521  0.15675905  1  0.084969  3e-05  0.981153  0.0  0.092784  3.4e-05  1.050111  0.0  0.094731  1.7e-05  1.050761  0.0  0.095009  0.09145  5.8e-05  1.049654  0.0
H  H28  1  0.72943112  0.09480469  0.13570818  1  0.116738  -1.8e-05  0.95838  -0.001  0.122633  7.7e-05  1.025008  0.0  0.125415  5.6e-05  1.020859  0.0  0.141496  0.120309  0.000115  1.028434  0.0
H  H29  1  0.22942855  0.90519408  0.86428906  1  0.11671  -1.8e-05  0.958396  -0.001  0.122618  7.7e-05  1.02502  0.0  0.125401  5.6e-05  1.020869  0.0  0.141485  0.120291  0.000115  1.02844  0.0
H  H30  1  0.34917552  0.17886236  0.83283270  1  0.118267  8.8e-05  0.968153  0.0  0.124747  6.3e-05  1.032808  0.0  0.128232  5.8e-05  1.030699  0.0  0.104683  0.122089  6.8e-05  1.034514  0.0
H  H31  1  0.84918950  0.82113791  0.16716962  1  0.118323  8.8e-05  0.968122  0.0  0.124809  6.3e-05  1.03276  0.0  0.128293  5.8e-05  1.030669  0.0  0.104689  0.122147  6.8e-05  1.034473  0.0
H  H32  1  0.76806506  0.54948632  0.04022734  1  0.083682  2e-06  0.975371  0.0  0.093844  2e-06  1.036816  0.0  0.095589  1e-06  1.037648  0.0  0.095821  0.092582  4e-06  1.036262  0.0
H  H33  1  0.26806223  0.45051354  0.95976863  1  0.083718  1e-06  0.97535  0.0  0.093847  2e-06  1.036843  0.0  0.095585  1e-06  1.037683  0.0  0.095831  0.092599  4e-06  1.036271  0.0
H  H34  1  0.88065470  0.30367089  0.58697934  1  0.104863  -1.1e-05  0.930074  0.0  0.118466  -8e-06  0.990435  0.0  0.120336  -2e-06  0.988565  0.0  0.116574  0.11681  -1.7e-05  0.99204  0.0
H  H35  1  0.38067267  0.69633497  0.41301761  1  0.104793  -1.1e-05  0.930149  0.0  0.118472  -8e-06  0.990449  0.0  0.12034  -3e-06  0.988578  0.0  0.116532  0.11681  -1.7e-05  0.992057  0.0
H  H36  1  0.72222008  0.40783637  0.59576026  1  0.09753  1e-06  0.915243  0.0  0.112122  3.1e-05  0.978373  0.0  0.112822  2.6e-05  0.978552  0.0  0.117766  0.111517  3.9e-05  0.978357  0.0
H  H37  1  0.22223261  0.59216599  0.40423606  1  0.097396  2e-06  0.915374  0.0  0.112109  3.1e-05  0.978433  0.0  0.112791  2.5e-05  0.978636  0.0  0.117718  0.111516  3.9e-05  0.978406  0.0
H  H38  1  0.50672593  0.15423458  0.56484039  1  0.409524  0.000518  0.873663  0.001  0.381471  0.000291  0.949655  0.0  0.391768  0.000177  0.938731  0.0  0.30376  0.374133  0.00034  0.957355  0.0
H  H39  1  0.00674733  0.84577764  0.43515972  1  0.409447  0.000518  0.873738  0.001  0.381394  0.00029  0.949756  0.0  0.391677  0.000177  0.938851  0.0  0.303769  0.374051  0.00034  0.957462  0.0
H  H40  1  0.68816752  0.14727096  0.51899044  1  0.416383  -1.2e-05  0.889592  0.0  0.384034  -0.0  0.963606  0.0  0.39515  4.6e-05  0.947614  0.0  0.296212  0.376167  -3.2e-05  0.974913  0.0
H  H41  1  0.18817746  0.85272581  0.48101461  1  0.416441  -1.2e-05  0.889539  0.0  0.384087  -1e-06  0.963538  0.0  0.395203  4.6e-05  0.947547  0.0  0.29625  0.37622  -3.2e-05  0.974845  0.0
H  H42  1  0.44766695  0.95535921  0.39646418  1  0.419448  0.000217  0.890612  0.0  0.388509  0.000252  0.954676  0.0  0.399954  0.000244  0.938344  0.0  0.292611  0.380379  0.000243  0.966261  0.0
H  H43  1  0.94766810  0.04464153  0.60353530  1  0.419441  0.000217  0.890627  0.0  0.388517  0.000252  0.954665  0.0  0.399965  0.000245  0.938327  0.0  0.292602  0.380383  0.000243  0.966254  0.0
H  H44  1  0.61141440  0.94447875  0.32949259  1  0.411158  0.000131  0.873331  0.0  0.383281  2.6e-05  0.948938  0.0  0.393477  -2e-06  0.936791  0.0  0.298368  0.376157  4e-05  0.95612  0.0
H  H45  1  0.11143159  0.05551489  0.67050214  1  0.411168  0.000131  0.873169  0.0  0.38324  2.6e-05  0.948865  0.0  0.393453  -2e-06  0.936793  0.0  0.298361  0.376119  4e-05  0.956047  0.0
H  H46  1  0.27932503  0.16438685  0.50254653  1  0.409502  0.000324  0.882845  0.0  0.383609  -0.000142  0.950865  0.0  0.393546  -1.4e-05  0.936503  0.0  0.292151  0.37665  -0.000272  0.960874  0.0
H  H47  1  0.77933053  0.83561216  0.49745098  1  0.409535  0.000325  0.882806  0.0  0.383635  -0.000142  0.950831  0.0  0.393558  -1.4e-05  0.936489  0.0  0.292141  0.376672  -0.000272  0.960847  0.0
H  H48  1  0.19005604  0.11513827  0.38745167  1  0.419977  0.000243  0.889398  0.0  0.390547  -9.8e-05  0.951872  0.0  0.401375  2.1e-05  0.936162  0.0  0.287293  0.383  -0.000215  0.962742  0.0
H  H49  1  0.69006061  0.88485668  0.61254707  1  0.419928  0.000243  0.889471  0.0  0.390448  -9.8e-05  0.95199  0.0  0.401278  2e-05  0.936278  0.0  0.287259  0.3829  -0.000216  0.962863  0.0
C  C50  1  0.42349150  0.54132647  0.71171376  1  -0.083351  0.001485  3.793896  0.001  -0.098922  0.000578  4.048594  0.0  -0.101053  0.000348  4.071383  0.0  -0.101597  -0.097599  0.000876  4.03339  0.0
C  C51  1  0.92349879  0.45866870  0.28828099  1  -0.083373  0.001496  3.793713  0.001  -0.099068  0.000578  4.048439  0.0  -0.101216  0.00035  4.071238  0.0  -0.1017  -0.097739  0.000876  4.033229  0.0
C  C52  1  0.36426939  0.42482919  0.71192049  1  -0.058747  -0.000648  3.760051  -0.001  -0.07486  -0.000107  4.012543  0.0  -0.075865  -0.000102  4.033294  0.0  -0.093865  -0.074307  -9.6e-05  3.998993  0.0
C  C53  1  0.86427970  0.57517570  0.28808292  1  -0.058743  -0.000654  3.759561  -0.001  -0.074809  -0.000108  4.012017  0.0  -0.07582  -0.000102  4.032789  0.0  -0.093786  -0.074246  -9.6e-05  3.998451  0.0
C  C54  1  0.32607575  0.63201406  0.68733659  1  -0.150354  -0.000865  3.735756  -0.001  -0.171764  -0.000416  3.990514  -0.001  -0.174912  -0.000324  4.010094  0.0  -0.097385  -0.169675  -0.000489  3.977736  -0.001
C  C55  1  0.82608281  0.36798518  0.31266117  1  -0.150143  -0.00087  3.735764  -0.001  -0.171545  -0.000416  3.99054  -0.001  -0.174691  -0.000325  4.010119  0.0  -0.097158  -0.169458  -0.000489  3.977768  -0.001
C  C56  1  0.16457613  0.60359725  0.66340391  1  0.135048  0.003055  3.79189  0.003  0.135667  0.00141  4.04396  0.001  0.140124  0.001264  4.067075  0.001  0.086502  0.132653  0.001492  4.02864  0.001
C  C57  1  0.66458000  0.39640938  0.33659480  1  0.134881  0.003061  3.792037  0.003  0.135469  0.001411  4.044058  0.001  0.139927  0.001265  4.067168  0.001  0.086387  0.132453  0.001492  4.028737  0.001
C  C58  1  0.20449285  0.39482422  0.68701589  1  -0.139238  0.001347  3.740422  0.001  -0.157835  0.000342  3.994114  0.0  -0.160441  0.000256  4.012876  0.0  -0.093154  -0.156299  0.000457  3.982079  0.0
C  C59  1  0.70450238  0.60518443  0.31298936  1  -0.139252  0.00136  3.740005  0.001  -0.157869  0.000346  3.99364  0.0  -0.160509  0.000257  4.012393  0.0  -0.093129  -0.15633  0.000457  3.981597  0.0
C  C60  1  0.10689283  0.48559345  0.66229233  1  0.095129  0.000384  3.789498  0.0  0.0848  0.000414  4.031259  0.0  0.088274  0.000327  4.053677  0.0  0.091803  0.082513  0.000497  4.016227  0.0
C  C61  1  0.60689854  0.51441019  0.33770967  1  0.095135  0.000379  3.789531  0.0  0.084917  0.000414  4.031139  0.0  0.088393  0.000326  4.053562  0.0  0.091837  0.082631  0.000496  4.016106  0.0
C  C62  1  0.90904127  0.59952486  0.62251782  1  0.19847  0.01283  3.613865  0.008  0.135649  0.00555  3.893731  0.004  0.156274  0.003841  3.90174  0.003  0.162402  0.12112  0.007623  3.889331  0.005
C  C63  1  0.40904531  0.40047841  0.37747952  1  0.198403  0.012833  3.613701  0.008  0.135571  0.005552  3.8936  0.004  0.156196  0.003845  3.901611  0.003  0.162348  0.121036  0.007622  3.889199  0.005
C  C64  1  0.71870442  0.25473379  0.89386770  1  0.072059  0.000164  3.75602  0.0  0.092236  5.6e-05  3.999582  0.0  0.0917  2.7e-05  4.023776  0.0  -0.013528  0.092591  8.7e-05  3.98323  0.0
C  C65  1  0.21870871  0.74526947  0.10612965  1  0.071872  0.000195  3.756061  0.0  0.092049  5.6e-05  3.999669  0.0  0.091512  2.9e-05  4.023865  0.0  -0.013615  0.092404  8.7e-05  3.983314  0.0
C  C66  1  0.40880343  0.16021302  0.00675911  1  0.094908  0.000632  3.778632  0.0  0.084868  0.000697  4.020005  0.0  0.088395  0.000603  4.042108  0.0  0.091824  0.082545  0.000809  4.005165  0.0
C  C67  1  0.90880810  0.83978027  0.99323938  1  0.094768  0.000632  3.778562  0.0  0.084738  0.000695  4.01997  0.0  0.088262  0.000604  4.042077  0.0  0.091801  0.082407  0.000809  4.005133  0.0
C  C68  1  0.79855873  0.37994108  0.76225016  1  0.069224  0.000161  3.756425  0.0  0.089164  7.1e-05  4.000322  0.0  0.088541  3.4e-05  4.024722  0.0  -0.013927  0.089577  0.000106  3.98383  0.0
C  C69  1  0.29855773  0.62005983  0.23774618  1  0.069219  0.000192  3.756376  0.0  0.089089  7.2e-05  4.000451  0.0  0.088466  3.4e-05  4.024848  0.0  -0.013935  0.0895  0.000106  3.983955  0.0
C  C70  1  0.75687760  0.26700998  0.78225265  1  -0.16816  0.000351  3.699433  0.0  -0.194091  0.000109  3.942535  0.0  -0.197349  7.8e-05  3.962754  0.0  -0.094572  -0.192074  0.000143  3.929414  0.0
C  C71  1  0.25687580  0.73298711  0.21774687  1  -0.168048  0.000315  3.699553  0.0  -0.193991  0.000109  3.942623  0.0  -0.197248  7.8e-05  3.962841  0.0  -0.0945  -0.191966  0.000143  3.929491  0.0
C  C72  1  0.68235644  0.12904418  0.91032505  1  -0.042797  5.7e-05  3.638849  0.0  -0.109063  3.3e-05  3.888588  0.0  -0.104954  6e-06  3.898964  0.0  -0.046532  -0.111551  5.1e-05  3.881603  0.0
C  C73  1  0.18235765  0.87095800  0.08967527  1  -0.042729  5.5e-05  3.638755  0.0  -0.10899  3.2e-05  3.888518  0.0  -0.104881  6e-06  3.898896  0.0  -0.046512  -0.111475  5.1e-05  3.881535  0.0
C  C74  1  0.35580333  0.16425182  0.12155523  1  0.129781  0.004023  3.803798  0.003  0.130919  0.002687  4.055452  0.002  0.135794  0.002625  4.078155  0.002  0.086311  0.127578  0.002798  4.040457  0.002
C  C75  1  0.85579960  0.83574666  0.87844334  1  0.129959  0.004023  3.803866  0.003  0.131053  0.002689  4.0556  0.002  0.135928  0.002626  4.078309  0.002  0.08633  0.127725  0.002797  4.040586  0.002
C  C76  1  0.19536072  0.19068374  0.15146937  1  -0.143851  -0.00059  3.734914  -0.001  -0.165371  -0.000154  3.989486  0.0  -0.168549  -0.000121  4.009354  0.0  -0.093345  -0.163284  -0.000185  3.976618  -0.001
C  C77  1  0.69535774  0.80931579  0.84853464  1  -0.14402  -0.000591  3.734983  -0.001  -0.165549  -0.000153  3.989602  0.0  -0.168719  -0.000121  4.009457  0.0  -0.093367  -0.163466  -0.000185  3.976724  -0.001
C  C78  1  0.14830528  0.20904870  0.95211150  1  -0.065869  -0.000504  3.766329  -0.001  -0.08123  -5e-05  4.019307  0.0  -0.082574  -6.7e-05  4.03987  0.0  -0.094959  -0.080388  -1.6e-05  4.005756  0.0
C  C79  1  0.64831188  0.79094970  0.04789459  1  -0.065872  -0.000504  3.766227  -0.001  -0.081242  -5e-05  4.01922  0.0  -0.082588  -6.8e-05  4.039787  0.0  -0.095023  -0.0804  -1.6e-05  4.005668  0.0
C  C80  1  0.09383058  0.21285584  0.06549897  1  -0.080749  0.00137  3.785253  0.001  -0.097741  0.000549  4.042572  0.0  -0.099288  0.000324  4.064787  0.0  -0.100156  -0.096801  0.000858  4.027728  0.001
C  C81  1  0.59382838  0.78714139  0.93450830  1  -0.080617  0.001371  3.78504  0.001  -0.097627  0.000547  4.042356  0.0  -0.099173  0.000323  4.064568  0.0  -0.100094  -0.096685  0.000858  4.027512  0.001
C  C82  1  0.72182709  0.35729127  0.98685671  1  -0.125016  0.000105  3.749236  0.0  -0.147519  6.3e-05  3.995245  0.0  -0.1507  3.8e-05  4.017283  0.0  -0.096521  -0.145221  0.000102  3.980096  0.0
C  C83  1  0.22183226  0.64271109  0.01313792  1  -0.124849  6.9e-05  3.749125  0.0  -0.147351  6.4e-05  3.995105  0.0  -0.150527  3.7e-05  4.017148  0.0  -0.096453  -0.145054  0.000102  3.979955  0.0
C  C84  1  0.80293184  0.48162605  0.85621740  1  -0.127385  0.000113  3.750933  0.0  -0.149608  6.9e-05  3.997487  0.0  -0.15285  3.8e-05  4.019916  0.0  -0.097819  -0.147278  0.000118  3.982072  0.0
C  C85  1  0.30293531  0.51837580  0.14378085  1  -0.127345  7.7e-05  3.75119  0.0  -0.149538  6.7e-05  3.997721  0.0  -0.152782  3.9e-05  4.02015  0.0  -0.097759  -0.147213  0.000118  3.982317  0.0
C  C86  1  0.61017617  0.11815717  0.11219371  1  0.194584  0.011036  3.613226  0.008  0.129895  0.004043  3.896995  0.003  0.150649  0.002572  3.90473  0.002  0.159495  0.115326  0.005863  3.892704  0.004
C  C87  1  0.11017253  0.88184283  0.88780328  1  0.194595  0.011039  3.613228  0.008  0.129933  0.004046  3.896968  0.003  0.150689  0.002577  3.904699  0.002  0.159521  0.11537  0.005862  3.89268  0.004
C  C88  1  0.30730359  0.18286761  0.92068939  1  -0.139164  0.001345  3.738119  0.001  -0.158947  0.000498  3.994408  0.0  -0.161294  0.000385  4.012792  0.0  -0.094494  -0.157503  0.000656  3.982435  0.0
C  C89  1  0.80730946  0.81713247  0.07931523  1  -0.139214  0.001346  3.738082  0.001  -0.159  0.000499  3.994364  0.0  -0.161363  0.000385  4.012767  0.0  -0.094468  -0.157559  0.000656  3.9824  0.0
C  C90  1  0.76450619  0.46998149  0.96771365  1  -0.048858  -4e-06  3.782545  0.0  -0.055685  -1.5e-05  4.02224  0.0  -0.056677  -1.5e-05  4.04425  0.0  -0.088938  -0.054802  -1.1e-05  4.007073  0.0
C  C91  1  0.26450617  0.53001654  0.03228273  1  -0.048927  2.6e-05  3.782523  0.0  -0.055735  -1.4e-05  4.022237  0.0  -0.056721  -1.5e-05  4.044256  0.0  -0.088978  -0.05486  -1.1e-05  4.007058  0.0
C  C92  1  0.83281779  0.38970427  0.63902992  1  -0.042361  0.000155  3.642557  0.0  -0.108715  9.3e-05  3.893747  0.0  -0.104291  6.3e-05  3.903383  0.0  -0.045477  -0.111412  0.000118  3.88731  0.0
C  C93  1  0.33282997  0.61029955  0.36097143  1  -0.042203  0.000152  3.642239  0.0  -0.108741  9.3e-05  3.8936  0.0  -0.104307  6.4e-05  3.903241  0.0  -0.045373  -0.111437  0.000118  3.887132  0.0
S  S94  1  0.88803106  0.02553749  0.37706099  1  1.537524  1.5e-05  5.861703  -0.001  1.408783  -0.000836  6.406695  -0.001  1.464215  -0.000442  6.371638  -0.001  0.564348  1.370328  -0.00122  6.429456  -0.002
S  S95  1  0.38804193  0.97446024  0.62294093  1  1.537228  1.4e-05  5.861898  -0.001  1.408509  -0.00084  6.406877  -0.001  1.464012  -0.000451  6.371786  -0.001  0.564157  1.370068  -0.00122  6.429619  -0.002
N  N96  1  0.48623346  0.13771034  0.18528419  1  -0.354268  0.01724  3.310083  0.012  -0.325517  0.01006  3.625626  0.008  -0.355941  0.010029  3.637461  0.008  -0.359259  -0.306065  0.009205  3.618532  0.007
N  N97  1  0.98622683  0.86229241  0.81471506  1  -0.354373  0.017236  3.31016  0.012  -0.325633  0.010056  3.625725  0.008  -0.356057  0.010022  3.637555  0.008  -0.359318  -0.306192  0.009203  3.618632  0.007
N  N98  1  0.57011969  0.13052935  0.00467332  1  -0.113175  0.001685  3.551223  0.001  -0.025772  0.000988  3.774791  0.001  -0.042137  0.000539  3.797668  0.0  -0.241013  -0.015129  0.001435  3.759486  0.001
N  N99  1  0.07012426  0.86946773  0.99532284  1  -0.113059  0.001684  3.55097  0.001  -0.02564  0.000987  3.774533  0.001  -0.042004  0.000539  3.797409  0.0  -0.240972  -0.015002  0.001434  3.759234  0.001
N  N100  1  0.94564362  0.48635921  0.63506152  1  -0.115646  0.002016  3.556362  0.001  -0.029582  0.001363  3.781132  0.001  -0.045846  0.000821  3.80385  0.001  -0.242725  -0.019027  0.001896  3.765945  0.001
N  N101  1  0.44565293  0.51364515  0.36493369  1  -0.115666  0.002018  3.556147  0.001  -0.029626  0.001362  3.78098  0.001  -0.045889  0.000821  3.803693  0.001  -0.24281  -0.019072  0.001896  3.765792  0.001
N  N102  1  0.03604172  0.67275986  0.63910742  1  -0.349102  0.018606  3.321683  0.012  -0.320201  0.011036  3.636163  0.008  -0.350641  0.010695  3.648655  0.009  -0.35959  -0.300805  0.010435  3.628616  0.008
N  N103  1  0.53604667  0.32724342  0.36089420  1  -0.348994  0.018603  3.321413  0.012  -0.320066  0.011036  3.635897  0.008  -0.350506  0.010693  3.648397  0.009  -0.359509  -0.30065  0.010435  3.628335  0.008
O  O104  1  0.80103612  0.09075004  0.30192162  1  -0.721065  -0.011994  2.018183  -0.017  -0.668811  -0.013779  2.283391  -0.019  -0.694205  -0.011402  2.265052  -0.016  -0.341288  -0.649969  -0.016333  2.295269  -0.022
O  O105  1  0.30103664  0.90924545  0.69807604  1  -0.720823  -0.011994  2.017988  -0.017  -0.668804  -0.013777  2.283399  -0.019  -0.694211  -0.011399  2.265049  -0.016  -0.341243  -0.649958  -0.016334  2.295262  -0.022
O  O106  1  0.87357944  0.09796809  0.50136259  1  -0.741944  0.00079  2.005415  0.001  -0.671621  0.000493  2.241172  0.0  -0.69389  0.000479  2.222376  0.0  -0.354569  -0.655948  0.000461  2.254066  0.0
O  O107  1  0.37358385  0.90202777  0.49864222  1  -0.741883  0.00079  2.00553  0.001  -0.671508  0.00049  2.241242  0.0  -0.693766  0.00048  2.222417  0.0  -0.354558  -0.655845  0.000461  2.254136  0.0
O  O108  1  0.81399535  0.90214866  0.36834883  1  -0.763211  0.000415  1.943289  0.0  -0.693044  0.000158  2.174656  0.0  -0.715246  0.000199  2.157167  0.0  -0.357353  -0.67725  9.2e-05  2.186199  0.0
O  O109  1  0.31401476  0.09785235  0.63165434  1  -0.763252  0.000415  1.943293  0.0  -0.693019  0.000156  2.174635  0.0  -0.715339  0.000195  2.157196  0.0  -0.357303  -0.67725  9.2e-05  2.186197  0.0
O  O110  1  0.05866599  0.00756292  0.34425662  1  -0.715421  -0.002025  1.994419  -0.004  -0.652609  -0.002239  2.236002  -0.004  -0.674414  -0.001543  2.218708  -0.003  -0.34743  -0.636722  -0.003122  2.247184  -0.005
O  O111  1  0.55867397  0.99243506  0.65575573  1  -0.715317  -0.002026  1.994625  -0.004  -0.652428  -0.002238  2.236118  -0.004  -0.674257  -0.001541  2.218813  -0.003  -0.347342  -0.636548  -0.003122  2.247295  -0.005
O  O112  1  0.58092651  0.18630090  0.51476005  1  -0.768686  0.008203  2.054082  0.006  -0.7394  0.003875  2.293105  0.003  -0.770188  0.004058  2.264839  0.004  -0.565115  -0.717368  0.002857  2.312215  0.002
O  O113  1  0.08093629  0.81369624  0.48523955  1  -0.768664  0.008203  2.05406  0.006  -0.739385  0.003876  2.293072  0.003  -0.770179  0.004058  2.264816  0.004  -0.56516  -0.717358  0.002857  2.312188  0.002
O  O114  1  0.50218226  0.97853303  0.32881443  1  -0.761852  0.01176  2.012335  0.009  -0.733083  0.006628  2.237077  0.005  -0.764974  0.006641  2.207487  0.005  -0.567918  -0.710191  0.005777  2.255764  0.005
O  O115  1  0.00219449  0.02146281  0.67117778  1  -0.761868  0.011761  2.012209  0.009  -0.733047  0.00663  2.236955  0.005  -0.764948  0.006643  2.207438  0.005  -0.567922  -0.71014  0.005777  2.255599  0.005
O  O116  1  0.26928644  0.17901879  0.42407532  1  -0.815225  -0.023754  1.885649  -0.044  -0.778163  -0.022094  2.083901  -0.038  -0.803048  -0.01756  2.050162  -0.031  -0.57974  -0.758703  -0.026894  2.10656  -0.044
O  O117  1  0.76929028  0.82097835  0.57592088  1  -0.815214  -0.023755  1.885679  -0.044  -0.77812  -0.022095  2.08408  -0.038  -0.803006  -0.017561  2.05036  -0.031  -0.57971  -0.758667  -0.026896  2.106745  -0.044
