# generated using pymatgen
data_CaH4(C2O3)2
_symmetry_space_group_name_H-M   'P 1'
_cell_length_a   7.91722612
_cell_length_b   9.46901154
_cell_length_c   9.63705585
_cell_angle_alpha   118.12090497
_cell_angle_beta   114.25166330
_cell_angle_gamma   90.00804101
_symmetry_Int_Tables_number   1
_chemical_formula_structural   CaH4(C2O3)2
_chemical_formula_sum   'Ca4 H16 C16 O24'
_cell_volume   563.84364734
_cell_formula_units_Z   4
loop_
 _symmetry_equiv_pos_site_id
 _symmetry_equiv_pos_as_xyz
  1  'x, y, z'
loop_
 _atom_site_type_symbol
 _atom_site_label
 _atom_site_symmetry_multiplicity
 _atom_site_fract_x
 _atom_site_fract_y
 _atom_site_fract_z
 _atom_site_occupancy
 _atom_site_hle17_bader_spin_density
 _atom_site_hle17_ddec_charge
 _atom_site_hle17_ddec_spin_density
 _atom_site_hle17_ddec_sum_bond_order
 _atom_site_hle17_magmom
 _atom_site_hse06_10hf_bader_spin_density
 _atom_site_hse06_10hf_ddec_charge
 _atom_site_hse06_10hf_ddec_spin_density
 _atom_site_hse06_10hf_ddec_sum_bond_order
 _atom_site_hse06_10hf_magmom
 _atom_site_hse06_bader_spin_density
 _atom_site_hse06_ddec_charge
 _atom_site_hse06_ddec_spin_density
 _atom_site_hse06_ddec_sum_bond_order
 _atom_site_hse06_magmom
 _atom_site_pbe_bader_spin_density
 _atom_site_pbe_cm5_charge
 _atom_site_pbe_ddec_charge
 _atom_site_pbe_ddec_spin_density
 _atom_site_pbe_ddec_sum_bond_order
 _atom_site_pbe_magmom
Ca  Ca0  1  0.60695099  0.70100802  0.75029652  1  0  1.548673  0  1.076031  0  0  1.412377  0  1.421663  0  0  1.456682  0  1.377624  0  0  0.888449  1.378698  0  1.453007  0
Ca  Ca1  1  0.85666769  0.79899958  0.24968575  1  0  1.548788  0  1.076201  0  0  1.412363  0  1.421867  0  0  1.456627  0  1.377897  0  0  0.888384  1.378839  0  1.452875  0
Ca  Ca2  1  0.39304958  0.29899135  0.24970296  1  0  1.548679  0  1.076017  0  0  1.412369  0  1.421668  0  0  1.456669  0  1.377633  0  0  0.888445  1.378686  0  1.453015  0
Ca  Ca3  1  0.14333287  0.20099978  0.75031373  1  0  1.548798  0  1.076197  0  0  1.412393  0  1.421832  0  0  1.456645  0  1.377866  0  0  0.888393  1.378852  0  1.452868  0
H  H4  1  0.98055095  0.35413000  0.14939710  1  0  0.392184  0  0.905629  0  0  0.361639  0  0.985073  0  0  0.373479  0  0.971415  0  0  0.306177  0.353253  0  0.994682  0
H  H5  1  0.83109407  0.14590974  0.85054326  1  0  0.391831  0  0.907175  0  0  0.361919  0  0.985402  0  0  0.373708  0  0.971259  0  0  0.306217  0.353518  0  0.995061  0
H  H6  1  0.01944962  0.64586936  0.85060238  1  0  0.392187  0  0.905635  0  0  0.361643  0  0.985079  0  0  0.373484  0  0.971414  0  0  0.306168  0.353256  0  0.99469  0
H  H7  1  0.16890650  0.85408963  0.14945623  1  0  0.391864  0  0.907113  0  0  0.361968  0  0.985317  0  0  0.373758  0  0.97118  0  0  0.306232  0.353563  0  0.994983  0
H  H8  1  0.73313417  0.43859466  0.26524204  1  0  0.38682  0  0.897429  0  0  0.360724  0  0.971073  0  0  0.371698  0  0.958716  0  0  0.31218  0.352967  0  0.979881  0
H  H9  1  0.46791154  0.06151971  0.73486028  1  0  0.387499  0  0.895663  0  0  0.36095  0  0.970095  0  0  0.372059  0  0.957508  0  0  0.312483  0.353216  0  0.978776  0
H  H10  1  0.26686675  0.56140594  0.73475812  1  0  0.3868  0  0.897479  0  0  0.360704  0  0.971124  0  0  0.371678  0  0.958767  0  0  0.312181  0.352947  0  0.979932  0
H  H11  1  0.53208902  0.93847965  0.26513920  1  0  0.387496  0  0.895668  0  0  0.360953  0  0.970094  0  0  0.37206  0  0.957509  0  0  0.312481  0.353219  0  0.978776  0
H  H12  1  0.06773646  0.15071768  0.30808831  1  0  0.079919  0  0.926084  0  0  0.087244  0  0.98903  0  0  0.08911  0  0.987573  0  0  0.134307  0.085867  0  0.990155  0
H  H13  1  0.75964814  0.34935532  0.69187686  1  0  0.081024  0  0.925985  0  0  0.088257  0  0.989401  0  0  0.09013  0  0.987983  0  0  0.134808  0.08688  0  0.990629  0
H  H14  1  0.93226307  0.84928291  0.69191243  1  0  0.079904  0  0.926075  0  0  0.087267  0  0.989016  0  0  0.089133  0  0.987559  0  0  0.134301  0.085888  0  0.990142  0
H  H15  1  0.24035138  0.65064528  0.30812388  1  0  0.081052  0  0.925947  0  0  0.088291  0  0.989348  0  0  0.090164  0  0.98793  0  0  0.134847  0.086915  0  0.990576  0
H  H16  1  0.95200927  0.38560946  0.45543445  1  0  0.076039  0  0.932873  0  0  0.083905  0  0.996737  0  0  0.086571  0  0.993745  0  0  0.123543  0.081752  0  0.999288  0
H  H17  1  0.49642995  0.11435041  0.54451581  1  0  0.076091  0  0.933216  0  0  0.083731  0  0.996418  0  0  0.086305  0  0.993595  0  0  0.12366  0.081565  0  0.999082  0
H  H18  1  0.04799164  0.61439114  0.54456676  1  0  0.07602  0  0.932861  0  0  0.083897  0  0.996727  0  0  0.086562  0  0.993736  0  0  0.123542  0.081743  0  0.99928  0
H  H19  1  0.50357096  0.88565019  0.45548435  1  0  0.076106  0  0.933234  0  0  0.083736  0  0.996439  0  0  0.08631  0  0.993616  0  0  0.123657  0.081569  0  0.999104  0
C  C20  1  0.83058404  0.03363853  0.05122109  1  0  0.667135  0  3.827862  0  0  0.61042  0  4.133075  0  0  0.644328  0  4.124604  0  0  0.226642  0.5871  0  4.138454  0
C  C21  1  0.77929918  0.46636407  0.94869457  1  0  0.66827  0  3.824801  0  0  0.611408  0  4.130867  0  0  0.64537  0  4.122356  0  0  0.226755  0.588104  0  4.136298  0
C  C22  1  0.16941514  0.96636083  0.94877793  1  0  0.667015  0  3.827997  0  0  0.610379  0  4.13314  0  0  0.644287  0  4.124668  0  0  0.226613  0.587058  0  4.138517  0
C  C23  1  0.22070311  0.53363653  0.05130710  1  0  0.668338  0  3.824736  0  0  0.611434  0  4.130867  0  0  0.645403  0  4.122345  0  0  0.22675  0.588127  0  4.136295  0
C  C24  1  0.96209036  0.19121409  0.22689802  1  0  0.069776  0  3.658101  0  0  0.043798  0  3.910396  0  0  0.04618  0  3.916495  0  0  0.006361  0.041895  0  3.906536  0
C  C25  1  0.73513453  0.30881715  0.77300958  1  0  0.069061  0  3.65821  0  0  0.041132  0  3.912512  0  0  0.043451  0  3.91879  0  0  0.005966  0.039251  0  3.90886  0
C  C26  1  0.03790882  0.80878527  0.77310099  1  0  0.069857  0  3.658013  0  0  0.043741  0  3.91048  0  0  0.046121  0  3.916583  0  0  0.006352  0.041839  0  3.90662  0
C  C27  1  0.26486465  0.69118222  0.22698943  1  0  0.069033  0  3.658191  0  0  0.041106  0  3.912506  0  0  0.043425  0  3.918778  0  0  0.005947  0.039223  0  3.908854  0
C  C28  1  0.84925259  0.27674550  0.32846993  1  0  0.060114  0  3.639178  0  0  0.033097  0  3.892645  0  0  0.035063  0  3.897757  0  0  0.006703  0.031809  0  3.889051  0
C  C29  1  0.52071237  0.22325417  0.67146461  1  0  0.058768  0  3.638847  0  0  0.034886  0  3.888876  0  0  0.036785  0  3.894306  0  0  0.006928  0.033516  0  3.8855  0
C  C30  1  0.15074694  0.72325510  0.67152977  1  0  0.060163  0  3.639045  0  0  0.033131  0  3.892609  0  0  0.035097  0  3.897723  0  0  0.006708  0.031844  0  3.889015  0
C  C31  1  0.47928715  0.77674642  0.32853613  1  0  0.058689  0  3.638995  0  0  0.03484  0  3.889003  0  0  0.036737  0  3.894431  0  0  0.006967  0.033473  0  3.885624  0
C  C32  1  0.77685585  0.16456510  0.37589714  1  0  0.678672  0  3.842262  0  0  0.626216  0  4.143514  0  0  0.660238  0  4.134598  0  0  0.23975  0.602854  0  4.149212  0
C  C33  1  0.40092016  0.33542284  0.62405404  1  0  0.680524  0  3.837889  0  0  0.625759  0  4.141603  0  0  0.659731  0  4.132593  0  0  0.239458  0.602415  0  4.146983  0
C  C34  1  0.22314368  0.83543550  0.62410256  1  0  0.678656  0  3.842292  0  0  0.626199  0  4.143557  0  0  0.66022  0  4.134645  0  0  0.239738  0.602836  0  4.149259  0
C  C35  1  0.59907936  0.66457775  0.37594567  1  0  0.68063  0  3.837765  0  0  0.625848  0  4.141481  0  0  0.65982  0  4.132468  0  0  0.239467  0.602504  0  4.146865  0
O  O36  1  0.76461882  0.91915675  0.06387736  1  0  -0.73218  0  2.001089  0  0  -0.666397  0  2.251907  0  0  -0.695994  0  2.243472  0  0  -0.387047  -0.644514  0  2.256936  0
O  O37  1  0.70073351  0.58085586  0.93606634  1  0  -0.731916  0  1.998499  0  0  -0.665892  0  2.249396  0  0  -0.695545  0  2.240877  0  0  -0.387393  -0.644609  0  2.254705  0
O  O38  1  0.23538071  0.08084384  0.93612338  1  0  -0.732134  0  2.001118  0  0  -0.666357  0  2.251892  0  0  -0.695953  0  2.243458  0  0  -0.387006  -0.644471  0  2.256921  0
O  O39  1  0.29926567  0.41914351  0.06393371  1  0  -0.731951  0  1.998482  0  0  -0.665911  0  2.249394  0  0  -0.69556  0  2.240869  0  0  -0.387402  -0.644624  0  2.254702  0
O  O40  1  0.79086959  0.01653264  0.90226129  1  0  -0.631513  0  2.033398  0  0  -0.568254  0  2.264633  0  0  -0.594221  0  2.255514  0  0  -0.299404  -0.549983  0  2.2706  0
O  O41  1  0.88850140  0.48345168  0.09766009  1  0  -0.632319  0  2.03317  0  0  -0.568706  0  2.264817  0  0  -0.594664  0  2.255663  0  0  -0.299268  -0.55021  0  2.270652  0
O  O42  1  0.20913132  0.98346796  0.09773888  1  0  -0.631505  0  2.033506  0  0  -0.568275  0  2.264712  0  0  -0.59424  0  2.255594  0  0  -0.299411  -0.550001  0  2.270677  0
O  O43  1  0.11149951  0.51654892  0.90234112  1  0  -0.632324  0  2.033122  0  0  -0.568714  0  2.264808  0  0  -0.594669  0  2.255639  0  0  -0.299259  -0.550211  0  2.270636  0
O  O44  1  0.06502887  0.29897088  0.20960979  1  0  -0.610178  0  2.130768  0  0  -0.563182  0  2.3812  0  0  -0.580377  0  2.367908  0  0  -0.423705  -0.550679  0  2.390298  0
O  O45  1  0.85531795  0.20106578  0.79030372  1  0  -0.610088  0  2.131812  0  0  -0.563055  0  2.382756  0  0  -0.580264  0  2.369079  0  0  -0.42369  -0.55084  0  2.392131  0
O  O46  1  0.93497031  0.70102848  0.79038923  1  0  -0.61019  0  2.130748  0  0  -0.563159  0  2.381218  0  0  -0.580356  0  2.367922  0  0  -0.423689  -0.550657  0  2.390317  0
O  O47  1  0.14468158  0.79893482  0.20969702  1  0  -0.610106  0  2.131745  0  0  -0.56308  0  2.382666  0  0  -0.580291  0  2.368997  0  0  -0.423713  -0.550866  0  2.392042  0
O  O48  1  0.69349494  0.32163430  0.23036696  1  0  -0.578013  0  2.11274  0  0  -0.529692  0  2.34787  0  0  -0.546073  0  2.335331  0  0  -0.41341  -0.517855  0  2.356073  0
O  O49  1  0.46317262  0.17847925  0.76973678  1  0  -0.57894  0  2.111734  0  0  -0.530294  0  2.345525  0  0  -0.546716  0  2.332897  0  0  -0.413737  -0.518469  0  2.35379  0
O  O50  1  0.30650563  0.67836506  0.76963252  1  0  -0.578022  0  2.112765  0  0  -0.529679  0  2.347888  0  0  -0.54606  0  2.335348  0  0  -0.413409  -0.517839  0  2.356085  0
O  O51  1  0.53682829  0.82152135  0.23026443  1  0  -0.578925  0  2.111756  0  0  -0.530274  0  2.345506  0  0  -0.546717  0  2.332926  0  0  -0.413743  -0.518454  0  2.35377  0
O  O52  1  0.60183282  0.14007253  0.33681877  1  0  -0.657664  0  2.055977  0  0  -0.599374  0  2.298313  0  0  -0.626213  0  2.288939  0  0  -0.332423  -0.580385  0  2.304087  0
O  O53  1  0.26500612  0.35990234  0.66318552  1  0  -0.658412  0  2.053393  0  0  -0.599466  0  2.296605  0  0  -0.626205  0  2.287246  0  0  -0.332767  -0.580398  0  2.302292  0
O  O54  1  0.39816775  0.85992683  0.66318072  1  0  -0.657661  0  2.055938  0  0  -0.59938  0  2.298313  0  0  -0.626224  0  2.288939  0  0  -0.332421  -0.580393  0  2.304088  0
O  O55  1  0.73499479  0.64009826  0.33681465  1  0  -0.658471  0  2.053329  0  0  -0.59952  0  2.296563  0  0  -0.626259  0  2.287206  0  0  -0.332773  -0.580445  0  2.302228  0
O  O56  1  0.89631593  0.10139806  0.45140787  1  0  -0.749747  0  2.033715  0  0  -0.692805  0  2.298801  0  0  -0.720687  0  2.287771  0  0  -0.388195  -0.672826  0  2.30545  0
O  O57  1  0.44480816  0.39863772  0.54854936  1  0  -0.750214  0  2.033515  0  0  -0.692709  0  2.29971  0  0  -0.720536  0  2.288636  0  0  -0.387734  -0.672723  0  2.306149  0
O  O58  1  0.10368498  0.89860254  0.54859333  1  0  -0.74975  0  2.033748  0  0  -0.692801  0  2.298837  0  0  -0.720684  0  2.287806  0  0  -0.388193  -0.672823  0  2.305486  0
O  O59  1  0.55519275  0.60136288  0.45145080  1  0  -0.750251  0  2.033423  0  0  -0.692753  0  2.299643  0  0  -0.720579  0  2.288567  0  0  -0.387766  -0.672767  0  2.306082  0
