# generated using pymatgen
data_AlC24(Cl2O)6
_symmetry_space_group_name_H-M   'P 1'
_cell_length_a   4.02925789
_cell_length_b   29.05418860
_cell_length_c   29.05434461
_cell_angle_alpha   119.99123026
_cell_angle_beta   90.00320848
_cell_angle_gamma   90.00132315
_symmetry_Int_Tables_number   1
_chemical_formula_structural   AlC24(Cl2O)6
_chemical_formula_sum   'Al2 C48 Cl24 O12'
_cell_volume   2945.87219574
_cell_formula_units_Z   2
loop_
 _symmetry_equiv_pos_site_id
 _symmetry_equiv_pos_as_xyz
  1  'x, y, z'
loop_
 _atom_site_type_symbol
 _atom_site_label
 _atom_site_symmetry_multiplicity
 _atom_site_fract_x
 _atom_site_fract_y
 _atom_site_fract_z
 _atom_site_occupancy
 _atom_site_pbe_bader_charge
 _atom_site_pbe_bader_spin_density
 _atom_site_pbe_cm5_charge
 _atom_site_pbe_ddec_charge
 _atom_site_pbe_ddec_spin_density
 _atom_site_pbe_ddec_sum_bond_order
 _atom_site_pbe_magmom
Al  Al0  1  0.99999391  0.50002292  0.49997063  1  2.507699  0  0.420902  1.623733  0  2.533124  0
Al  Al1  1  0.99949360  0.16665704  0.83334187  1  2.508431  0  0.421011  1.623102  0  2.535078  0
C  C2  1  0.50001677  0.45941074  0.41872018  1  1.599978  0  0.274473  0.677829  0  4.077634  0
C  C3  1  0.49998838  0.45938117  0.54059318  1  1.607086  0  0.274827  0.677946  0  4.07776  0
C  C4  1  0.49998075  0.58127570  0.54061292  1  1.600361  0  0.274865  0.678223  0  4.077096  0
C  C5  1  0.49949365  0.20734556  0.79276373  1  1.609073  0  0.275376  0.678863  0  4.076463  0
C  C6  1  0.49945162  0.08540025  0.79266539  1  1.599589  0  0.275148  0.678724  0  4.076362  0
C  C7  1  0.49954466  0.20722260  0.91459660  1  1.600616  0  0.27533  0.678747  0  4.076003  0
C  C8  1  0.49972847  0.23729460  0.76281639  1  0.243452  0  -0.016695  -0.126538  0  3.943049  0
C  C9  1  0.60641072  0.21200646  0.70980627  1  0.132888  0  0.00798  0.06129  0  4.054241  0
C  C10  1  0.60893898  0.23979866  0.68186297  1  0.114933  0  0.012203  0.044905  0  4.018024  0
C  C11  1  0.49981139  0.29327881  0.70678667  1  0.1163  0  -0.009439  0.036082  0  4.093615  0
C  C12  1  0.39062006  0.31822823  0.76026489  1  0.098325  0  0.01192  0.044517  0  4.017534  0
C  C13  1  0.39310261  0.29030694  0.78807991  1  0.133133  0  0.007963  0.061368  0  4.054905  0
C  C14  1  0.49989503  0.32125684  0.67877522  1  -0.253282  0  -0.042145  -0.064771  0  4.110417  0
C  C15  1  0.49987985  0.34545122  0.65456182  1  -0.03336  0  -0.041314  -0.063332  0  4.109797  0
C  C16  1  0.49990393  0.37344006  0.62656159  1  0.115308  0  -0.009046  0.036259  0  4.092816  0
C  C17  1  0.39013435  0.34852667  0.57311230  1  0.100189  0  0.01145  0.044378  0  4.018046  0
C  C18  1  0.39280660  0.37644842  0.54529894  1  0.13519  0  0.008102  0.061152  0  4.054302  0
C  C19  1  0.50000422  0.42943349  0.57054467  1  0.241226  0  -0.016112  -0.125014  0  3.940571  0
C  C20  1  0.60716532  0.45468867  0.62353169  1  0.134896  0  0.007927  0.060984  0  4.054563  0
C  C21  1  0.60973477  0.42688602  0.65146416  1  0.099  0  0.011676  0.044447  0  4.017993  0
C  C22  1  0.49967926  0.02551351  0.76273197  1  0.136115  0  -0.016401  -0.125836  0  3.94148  0
C  C23  1  0.60633987  0.99780262  0.78804165  1  0.030106  0  0.00794  0.061131  0  4.054377  0
C  C24  1  0.60887886  0.94207408  0.76026845  1  0.195353  0  0.011799  0.044583  0  4.017716  0
C  C25  1  0.49981879  0.91351770  0.70678261  1  0.12418  0  -0.009303  0.036252  0  4.092455  0
C  C26  1  0.39067204  0.94203307  0.68180747  1  0.039648  0  0.012048  0.044787  0  4.018036  0
C  C27  1  0.39310173  0.99776266  0.70971527  1  0.184717  0  0.007847  0.061063  0  4.054907  0
C  C28  1  0.49991062  0.85753550  0.67881497  1  0.051023  0  -0.041918  -0.064678  0  4.109617  0
C  C29  1  0.49997153  0.80913412  0.65462378  1  -0.254056  0  -0.041383  -0.06343  0  4.109379  0
C  C30  1  0.50001124  0.75315290  0.62661936  1  0.191895  0  -0.009593  0.035765  0  4.092804  0
C  C31  1  0.39020698  0.72459113  0.65151040  1  0.069043  0  0.011726  0.044565  0  4.017602  0
C  C32  1  0.39282040  0.66886285  0.62356418  1  0.184145  0  0.008337  0.061559  0  4.054162  0
C  C33  1  0.49997400  0.64116523  0.57057934  1  0.134995  0  -0.017149  -0.126548  0  3.941835  0
C  C34  1  0.60716971  0.66891987  0.54534460  1  0.041713  0  0.00843  0.061604  0  4.054262  0
C  C35  1  0.60983020  0.72464761  0.57317304  1  0.183607  0  0.012088  0.045083  0  4.017726  0
C  C36  1  0.49981931  0.23715687  0.97448148  1  0.134516  0  -0.016571  -0.126125  0  3.942427  0
C  C37  1  0.60650008  0.29016857  0.00220155  1  0.188166  0  0.00773  0.060707  0  4.055092  0
C  C38  1  0.60896522  0.31810281  0.05792987  1  0.073324  0  0.012328  0.045196  0  4.017602  0
C  C39  1  0.49979484  0.29316175  0.08647459  1  0.076994  0  -0.009466  0.036026  0  4.09322  0
C  C40  1  0.39065573  0.23967974  0.05795060  1  0.190954  0  0.011798  0.044428  0  4.017798  0
C  C41  1  0.39315429  0.21188143  0.00222269  1  0.030291  0  0.008251  0.06184  0  4.054139  0
C  C42  1  0.49984769  0.32116553  0.14245408  1  0.067771  0  -0.041606  -0.064041  0  4.109878  0
C  C43  1  0.49986649  0.34540376  0.19085772  1  -0.254432  0  -0.041804  -0.064165  0  4.110199  0
C  C44  1  0.49992431  0.37342042  0.24684015  1  0.193002  0  -0.00898  0.036503  0  4.092515  0
C  C45  1  0.39011738  0.42686769  0.27535648  1  0.194207  0  0.011668  0.04455  0  4.018044  0
C  C46  1  0.39281334  0.45469285  0.33108581  1  0.030313  0  0.008121  0.06117  0  4.054702  0
C  C47  1  0.50005235  0.42945473  0.35883502  1  0.134294  0  -0.016695  -0.125991  0  3.941707  0
C  C48  1  0.60726594  0.37647270  0.33112811  1  0.185102  0  0.008452  0.061431  0  4.053847  0
C  C49  1  0.60982901  0.34853152  0.27539922  1  0.06993  0  0.011381  0.044265  0  4.018032  0
Cl  Cl50  1  0.73653284  0.14712661  0.67984644  1  -0.16047  0  0.020692  -0.017207  0  1.651263  0
Cl  Cl51  1  0.26294230  0.32029359  0.85296079  1  -0.160485  0  0.02073  -0.017209  0  1.65063  0
Cl  Cl52  1  0.25334519  0.38248066  0.79014656  1  -0.154952  0  0.015347  -0.031186  0  1.617373  0
Cl  Cl53  1  0.74630422  0.20988890  0.61761422  1  -0.168402  0  0.015323  -0.031228  0  1.61723  0
Cl  Cl54  1  0.25197141  0.28432036  0.54326121  1  -0.153994  0  0.01552  -0.031181  0  1.617162  0
Cl  Cl55  1  0.74787435  0.45674684  0.71567275  1  -0.15352  0  0.015448  -0.031207  0  1.617175  0
Cl  Cl56  1  0.73767680  0.51955196  0.65348213  1  -0.162444  0  0.020575  -0.017329  0  1.6515  0
Cl  Cl57  1  0.26235564  0.34648997  0.48043234  1  -0.162647  0  0.020639  -0.017249  0  1.651267  0
Cl  Cl58  1  0.73643578  0.03272804  0.85292517  1  -0.148098  0  0.020718  -0.017219  0  1.651653  0
Cl  Cl59  1  0.26292032  0.03264517  0.67970743  1  -0.145202  0  0.020646  -0.017285  0  1.650878  0
Cl  Cl60  1  0.25348512  0.90765470  0.61754626  1  -0.156172  0  0.015364  -0.031229  0  1.617546  0
Cl  Cl61  1  0.74620252  0.90774510  0.79020400  1  -0.153991  0  0.015364  -0.03124  0  1.617068  0
Cl  Cl62  1  0.25205783  0.75890191  0.71571631  1  -0.156344  0  0.015422  -0.031268  0  1.617045  0
Cl  Cl63  1  0.74800891  0.75902934  0.54334273  1  -0.153656  0  0.015495  -0.031223  0  1.61767  0
Cl  Cl64  1  0.73762745  0.63404511  0.48048089  1  -0.146834  0  0.020486  -0.01743  0  1.650888  0
Cl  Cl65  1  0.26238254  0.63391663  0.65348897  1  -0.146743  0  0.020628  -0.017274  0  1.651428  0
Cl  Cl66  1  0.73665972  0.32014392  0.96729055  1  -0.147497  0  0.020713  -0.017187  0  1.651508  0
Cl  Cl67  1  0.26310211  0.14699279  0.96732986  1  -0.148415  0  0.020505  -0.017559  0  1.65066  0
Cl  Cl68  1  0.25345610  0.20977689  0.09231502  1  -0.154244  0  0.015147  -0.031482  0  1.617251  0
Cl  Cl69  1  0.74629018  0.38235721  0.09227408  1  -0.154615  0  0.01543  -0.031166  0  1.617245  0
Cl  Cl70  1  0.25192882  0.45670489  0.24098162  1  -0.153692  0  0.015565  -0.03108  0  1.617489  0
Cl  Cl71  1  0.74802875  0.28432647  0.24108175  1  -0.155615  0  0.015479  -0.031193  0  1.617119  0
Cl  Cl72  1  0.73777329  0.34653748  0.36606272  1  -0.147362  0  0.020477  -0.017322  0  1.65117  0
Cl  Cl73  1  0.26237946  0.51956107  0.36596671  1  -0.147996  0  0.020699  -0.017196  0  1.650695  0
O  O74  1  0.73706660  0.55844922  0.54999232  1  -1.248799  0  -0.22978  -0.590328  0  2.419233  0
O  O75  1  0.73707240  0.49162132  0.44154136  1  -1.23976  0  -0.229392  -0.589748  0  2.419537  0
O  O76  1  0.73705231  0.44999774  0.50838485  1  -1.247231  0  -0.229797  -0.590302  0  2.419635  0
O  O77  1  0.26290915  0.55846522  0.50840136  1  -1.239134  0  -0.229677  -0.590154  0  2.419524  0
O  O78  1  0.26292431  0.49158944  0.54998242  1  -1.247819  0  -0.229738  -0.590148  0  2.419632  0
O  O79  1  0.26290235  0.45001986  0.44153439  1  -1.248065  0  -0.229775  -0.590199  0  2.419192  0
O  O80  1  0.73659122  0.17500331  0.89175235  1  -1.240081  0  -0.229915  -0.590076  0  2.417348  0
O  O81  1  0.73652199  0.21671613  0.82498618  1  -1.247841  0  -0.229729  -0.589953  0  2.417967  0
O  O82  1  0.73646053  0.10825128  0.78329022  1  -1.247255  0  -0.229627  -0.590004  0  2.417975  0
O  O83  1  0.26243776  0.21663079  0.89180651  1  -1.249031  0  -0.229931  -0.590246  0  2.419186  0
O  O84  1  0.26232671  0.10818813  0.82485837  1  -1.240863  0  -0.230216  -0.590608  0  2.419212  0
O  O85  1  0.26235377  0.17515093  0.78336235  1  -1.248676  0  -0.23031  -0.590672  0  2.419244  0
