# generated using pymatgen
data_Ba2P2H18C10N2O15
_symmetry_space_group_name_H-M   'P 1'
_cell_length_a   5.10741750
_cell_length_b   11.11139720
_cell_length_c   18.47266265
_cell_angle_alpha   101.65522413
_cell_angle_beta   90.00333079
_cell_angle_gamma   103.28142048
_symmetry_Int_Tables_number   1
_chemical_formula_structural   Ba2P2H18C10N2O15
_chemical_formula_sum   'Ba4 P4 H36 C20 N4 O30'
_cell_volume   998.06867211
_cell_formula_units_Z   2
loop_
 _symmetry_equiv_pos_site_id
 _symmetry_equiv_pos_as_xyz
  1  'x, y, z'
loop_
 _atom_site_type_symbol
 _atom_site_label
 _atom_site_symmetry_multiplicity
 _atom_site_fract_x
 _atom_site_fract_y
 _atom_site_fract_z
 _atom_site_occupancy
 _atom_site_hle17_bader_spin_density
 _atom_site_hle17_ddec_charge
 _atom_site_hle17_ddec_spin_density
 _atom_site_hle17_ddec_sum_bond_order
 _atom_site_hle17_magmom
 _atom_site_hse06_10hf_bader_spin_density
 _atom_site_hse06_10hf_ddec_charge
 _atom_site_hse06_10hf_ddec_spin_density
 _atom_site_hse06_10hf_ddec_sum_bond_order
 _atom_site_hse06_10hf_magmom
 _atom_site_hse06_bader_spin_density
 _atom_site_hse06_ddec_charge
 _atom_site_hse06_ddec_spin_density
 _atom_site_hse06_ddec_sum_bond_order
 _atom_site_hse06_magmom
 _atom_site_pbe_bader_spin_density
 _atom_site_pbe_cm5_charge
 _atom_site_pbe_ddec_charge
 _atom_site_pbe_ddec_spin_density
 _atom_site_pbe_ddec_sum_bond_order
 _atom_site_pbe_magmom
Ba  Ba0  1  0.19709973  0.10144329  0.61167518  1  0  1.667853  0  1.129321  0  0  1.525348  0  1.52324  0  0  1.565137  0  1.479524  0  0  0.987749  1.495755  0  1.554539  0
Ba  Ba1  1  0.09557181  0.89849465  0.88826188  1  0  1.667341  0  1.131143  0  0  1.524932  0  1.524828  0  0  1.564828  0  1.481002  0  0  0.988411  1.495604  0  1.555958  0
Ba  Ba2  1  0.80289615  0.89856325  0.38832523  1  0  1.667796  0  1.129466  0  0  1.525278  0  1.523393  0  0  1.565066  0  1.479677  0  0  0.98776  1.495685  0  1.554691  0
Ba  Ba3  1  0.90441659  0.10149301  0.11173793  1  0  1.667262  0  1.131207  0  0  1.524881  0  1.524809  0  0  1.564778  0  1.480983  0  0  0.988369  1.495558  0  1.55594  0
P  P4  1  0.49018770  0.17217979  0.44736683  1  0  1.488153  0  4.876568  0  0  1.334792  0  5.378991  0  0  1.385978  0  5.337818  0  0  0.347508  1.299065  0  5.406752  0
P  P5  1  0.31846104  0.82806754  0.05256135  1  0  1.488481  0  4.877197  0  0  1.335513  0  5.379756  0  0  1.386654  0  5.338462  0  0  0.347014  1.299861  0  5.407549  0
P  P6  1  0.50982283  0.82782862  0.55263217  1  0  1.48826  0  4.876451  0  0  1.334877  0  5.378915  0  0  1.386067  0  5.337731  0  0  0.347435  1.299156  0  5.406675  0
P  P7  1  0.68153113  0.17192765  0.94743664  1  0  1.488451  0  4.877371  0  0  1.335426  0  5.379964  0  0  1.38657  0  5.338658  0  0  0.347012  1.299773  0  5.407761  0
H  H8  1  0.82521652  0.25739631  0.54346666  1  0  0.435318  0  0.873211  0  0  0.39966  0  0.942519  0  0  0.413383  0  0.923188  0  0  0.312943  0.390034  0  0.956055  0
H  H9  1  0.56782338  0.74266328  0.95649142  1  0  0.435348  0  0.873334  0  0  0.399481  0  0.943004  0  0  0.413174  0  0.923714  0  0  0.312615  0.389862  0  0.956534  0
H  H10  1  0.17478518  0.74261402  0.45653420  1  0  0.435239  0  0.873303  0  0  0.399636  0  0.942524  0  0  0.413358  0  0.923195  0  0  0.312909  0.390016  0  0.956051  0
H  H11  1  0.43219473  0.25733289  0.04350993  1  0  0.43539  0  0.873231  0  0  0.399513  0  0.942924  0  0  0.413206  0  0.923634  0  0  0.312589  0.389894  0  0.956453  0
H  H12  1  0.35581132  0.05451179  0.78665610  1  0  0.429163  0  0.867046  0  0  0.401413  0  0.925658  0  0  0.410985  0  0.911747  0  0  0.305716  0.39463  0  0.935499  0
H  H13  1  0.30180064  0.94576808  0.71350918  1  0  0.427095  0  0.869855  0  0  0.399993  0  0.927568  0  0  0.409522  0  0.913722  0  0  0.305197  0.393225  0  0.937395  0
H  H14  1  0.64417840  0.94548633  0.21335089  1  0  0.429218  0  0.866966  0  0  0.401469  0  0.925574  0  0  0.411043  0  0.911661  0  0  0.30575  0.394686  0  0.935416  0
H  H15  1  0.69821235  0.05424132  0.28649373  1  0  0.42715  0  0.869796  0  0  0.40003  0  0.927541  0  0  0.409561  0  0.913691  0  0  0.305194  0.393262  0  0.937369  0
H  H16  1  0.73535838  0.33063801  0.35493314  1  0  0.274463  0  0.855981  0  0  0.253367  0  0.92435  0  0  0.26206  0  0.916891  0  0  0.322333  0.246806  0  0.930271  0
H  H17  1  0.40526226  0.66955414  0.14495905  1  0  0.273631  0  0.856225  0  0  0.252924  0  0.924012  0  0  0.261618  0  0.916584  0  0  0.322473  0.246636  0  0.92953  0
H  H18  1  0.26461028  0.66935714  0.64506106  1  0  0.274509  0  0.855978  0  0  0.253419  0  0.924351  0  0  0.262108  0  0.916889  0  0  0.322338  0.246872  0  0.930258  0
H  H19  1  0.59474452  0.33044679  0.85504557  1  0  0.273646  0  0.856175  0  0  0.252979  0  0.923931  0  0  0.261674  0  0.916498  0  0  0.322471  0.246687  0  0.929455  0
H  H20  1  0.24699075  0.33853174  0.44025001  1  0  0.160565  0  0.926254  0  0  0.169194  0  0.98552  0  0  0.172694  0  0.983704  0  0  0.128153  0.166599  0  0.987098  0
H  H21  1  0.90896801  0.66207877  0.05984487  1  0  0.160202  0  0.925973  0  0  0.16937  0  0.985209  0  0  0.172866  0  0.983318  0  0  0.127914  0.166807  0  0.986735  0
H  H22  1  0.75299783  0.66147193  0.55974627  1  0  0.160573  0  0.92635  0  0  0.169234  0  0.985543  0  0  0.17274  0  0.98371  0  0  0.128191  0.166636  0  0.987142  0
H  H23  1  0.09104378  0.33791651  0.94016125  1  0  0.160214  0  0.925869  0  0  0.16937  0  0.985093  0  0  0.172864  0  0.983196  0  0  0.127906  0.166806  0  0.986619  0
H  H24  1  0.58547847  0.40056892  0.47813523  1  0  0.140194  0  0.938648  0  0  0.148139  0  1.004319  0  0  0.15079  0  1.00351  0  0  0.124129  0.146114  0  1.005164  0
H  H25  1  0.18484544  0.59966239  0.02175553  1  0  0.13945  0  0.939292  0  0  0.148149  0  1.004411  0  0  0.15079  0  1.003543  0  0  0.124395  0.146139  0  1.005297  0
H  H26  1  0.41450802  0.59944233  0.52186411  1  0  0.140264  0  0.938589  0  0  0.148176  0  1.004283  0  0  0.150826  0  1.003475  0  0  0.124175  0.146156  0  1.005125  0
H  H27  1  0.81514251  0.40032435  0.97824687  1  0  0.139469  0  0.93933  0  0  0.148229  0  1.004365  0  0  0.150821  0  1.003549  0  0  0.124407  0.146237  0  1.005233  0
H  H28  1  0.43528470  0.52889388  0.38265984  1  0  0.13543  0  0.950221  0  0  0.144016  0  1.013208  0  0  0.147804  0  1.010575  0  0  0.124542  0.141263  0  1.015187  0
H  H29  1  0.90704317  0.47136608  0.11699585  1  0  0.136411  0  0.95069  0  0  0.145539  0  1.013402  0  0  0.149342  0  1.01073  0  0  0.124996  0.142842  0  1.015347  0
H  H30  1  0.56472737  0.47110978  0.61733536  1  0  0.135393  0  0.950214  0  0  0.144026  0  1.01318  0  0  0.147815  0  1.010541  0  0  0.124534  0.141259  0  1.015179  0
H  H31  1  0.09298236  0.52862534  0.88300332  1  0  0.136348  0  0.950677  0  0  0.145488  0  1.013366  0  0  0.149297  0  1.010704  0  0  0.12497  0.142788  0  1.015312  0
H  H32  1  0.62294566  0.50033158  0.30200629  1  0  0.127977  0  0.902793  0  0  0.142423  0  0.957702  0  0  0.145018  0  0.956099  0  0  0.128233  0.140522  0  0.959009  0
H  H33  1  0.12262817  0.49964163  0.19773687  1  0  0.127635  0  0.903041  0  0  0.142274  0  0.958284  0  0  0.144845  0  0.956715  0  0  0.128308  0.140435  0  0.959491  0
H  H34  1  0.37707241  0.49966450  0.69798693  1  0  0.127946  0  0.902909  0  0  0.142409  0  0.957822  0  0  0.144999  0  0.956225  0  0  0.128246  0.14051  0  0.959128  0
H  H35  1  0.87737104  0.50034414  0.80226380  1  0  0.127555  0  0.902958  0  0  0.142151  0  0.958289  0  0  0.144741  0  0.956696  0  0  0.128281  0.140311  0  0.959494  0
H  H36  1  0.21243955  0.31921121  0.28611193  1  0  0.134413  0  0.923703  0  0  0.145755  0  0.985077  0  0  0.149226  0  0.982399  0  0  0.128691  0.143219  0  0.987224  0
H  H37  1  0.89353600  0.68118190  0.21373219  1  0  0.135539  0  0.92404  0  0  0.14709  0  0.985134  0  0  0.150578  0  0.982415  0  0  0.12979  0.144545  0  0.987293  0
H  H38  1  0.78752791  0.68079722  0.71388816  1  0  0.134472  0  0.923656  0  0  0.145778  0  0.98508  0  0  0.149241  0  0.982403  0  0  0.128729  0.143241  0  0.987228  0
H  H39  1  0.10646064  0.31881047  0.78626763  1  0  0.135455  0  0.923991  0  0  0.147024  0  0.985097  0  0  0.150518  0  0.982371  0  0  0.12973  0.144474  0  0.98726  0
H  H40  1  0.26600241  0.18397549  0.31474538  1  0  0.131043  0  0.910184  0  0  0.147157  0  0.963837  0  0  0.15024  0  0.961475  0  0  0.141533  0.144929  0  0.965619  0
H  H41  1  0.08376122  0.81645674  0.18538021  1  0  0.131  0  0.91047  0  0  0.147335  0  0.963904  0  0  0.150428  0  0.961523  0  0  0.141473  0.145139  0  0.965657  0
H  H42  1  0.73397096  0.81603301  0.68526122  1  0  0.131115  0  0.910187  0  0  0.14727  0  0.963767  0  0  0.150356  0  0.961401  0  0  0.141507  0.14504  0  0.965552  0
H  H43  1  0.91622115  0.18353843  0.81461615  1  0  0.130983  0  0.910481  0  0  0.147347  0  0.963878  0  0  0.150443  0  0.961499  0  0  0.141493  0.14515  0  0.965628  0
C  C44  1  0.45502192  0.32888592  0.43540416  1  0  -0.345642  0  3.476239  0  0  -0.383571  0  3.720639  0  0  -0.388754  0  3.7252  0  0  -0.068551  -0.379937  0  3.717879  0
C  C45  1  0.12656294  0.67144365  0.06455441  1  0  -0.345637  0  3.477184  0  0  -0.385682  0  3.723609  0  0  -0.390732  0  3.727996  0  0  -0.06945  -0.382029  0  3.720749  0
C  C46  1  0.54497781  0.67112439  0.56459506  1  0  -0.345821  0  3.476318  0  0  -0.383731  0  3.720776  0  0  -0.388912  0  3.725338  0  0  -0.068734  -0.38012  0  3.718051  0
C  C47  1  0.87343764  0.32854877  0.93545029  1  0  -0.345734  0  3.477298  0  0  -0.385815  0  3.723728  0  0  -0.390817  0  3.728123  0  0  -0.069501  -0.382178  0  3.720861  0
C  C48  1  0.60519292  0.49110011  0.35998397  1  0  -0.186486  0  3.519492  0  0  -0.246725  0  3.77153  0  0  -0.248111  0  3.775167  0  0  -0.061219  -0.245722  0  3.769103  0
C  C49  1  0.11461887  0.50907384  0.13978697  1  0  -0.18745  0  3.520505  0  0  -0.249326  0  3.774941  0  0  -0.250933  0  3.779061  0  0  -0.062587  -0.248216  0  3.77219  0
C  C50  1  0.39482105  0.50890734  0.64001330  1  0  -0.186339  0  3.519648  0  0  -0.24665  0  3.771699  0  0  -0.248065  0  3.775395  0  0  -0.061229  -0.24561  0  3.769209  0
C  C51  1  0.88540661  0.49092140  0.86021590  1  0  -0.187288  0  3.520406  0  0  -0.249181  0  3.774857  0  0  -0.250797  0  3.778949  0  0  -0.06255  -0.248068  0  3.772102  0
C  C52  1  0.87284768  0.55795688  0.40241655  1  0  0.686432  0  3.870054  0  0  0.63794  0  4.176925  0  0  0.670759  0  4.169373  0  0  0.219991  0.61566  0  4.18134  0
C  C53  1  0.31551368  0.44223597  0.09741714  1  0  0.688387  0  3.871188  0  0  0.639724  0  4.178929  0  0  0.672583  0  4.171298  0  0  0.221289  0.617484  0  4.183331  0
C  C54  1  0.12716535  0.44204872  0.59758375  1  0  0.686491  0  3.870092  0  0  0.638046  0  4.17691  0  0  0.670867  0  4.169348  0  0  0.219985  0.615766  0  4.181334  0
C  C55  1  0.68452923  0.55777062  0.90258761  1  0  0.688286  0  3.871098  0  0  0.639708  0  4.178678  0  0  0.672573  0  4.17105  0  0  0.221374  0.617468  0  4.183083  0
C  C56  1  0.36839623  0.27197643  0.29859764  1  0  -0.177554  0  3.512818  0  0  -0.236508  0  3.760863  0  0  -0.237579  0  3.763994  0  0  -0.051498  -0.2359  0  3.758999  0
C  C57  1  0.09706994  0.72816645  0.20134707  1  0  -0.178467  0  3.512196  0  0  -0.237702  0  3.760505  0  0  -0.238717  0  3.763473  0  0  -0.052641  -0.237112  0  3.758759  0
C  C58  1  0.63157717  0.72802821  0.70140147  1  0  -0.177846  0  3.51298  0  0  -0.236834  0  3.761048  0  0  -0.237899  0  3.764163  0  0  -0.051581  -0.236222  0  3.759177  0
C  C59  1  0.90292270  0.27182968  0.79865048  1  0  -0.178385  0  3.512154  0  0  -0.23766  0  3.760417  0  0  -0.238688  0  3.76341  0  0  -0.052592  -0.237059  0  3.758669  0
C  C60  1  0.53457114  0.23872364  0.23183222  1  0  0.672632  0  3.944839  0  0  0.628343  0  4.246477  0  0  0.661653  0  4.238586  0  0  0.207193  0.605777  0  4.250997  0
C  C61  1  0.29608359  0.76087101  0.26817725  1  0  0.673516  0  3.947899  0  0  0.629142  0  4.249854  0  0  0.662438  0  4.241925  0  0  0.20848  0.606564  0  4.254372  0
C  C62  1  0.46539180  0.76126400  0.76816596  1  0  0.672801  0  3.94498  0  0  0.628616  0  4.246467  0  0  0.661929  0  4.238567  0  0  0.207256  0.606045  0  4.250995  0
C  C63  1  0.70390406  0.23913080  0.73182260  1  0  0.673541  0  3.947774  0  0  0.629263  0  4.249589  0  0  0.662562  0  4.241658  0  0  0.20854  0.606677  0  4.254117  0
N  N64  1  0.54899819  0.35361791  0.36188262  1  0  -0.002877  0  3.441044  0  0  0.076038  0  3.648013  0  0  0.065701  0  3.667481  0  0  -0.345439  0.082934  0  3.635441  0
N  N65  1  0.19594328  0.64658259  0.13801186  1  0  -0.002671  0  3.438996  0  0  0.076681  0  3.646832  0  0  0.066326  0  3.666136  0  0  -0.345342  0.083522  0  3.634257  0
N  N66  1  0.45099038  0.64638576  0.63811366  1  0  -0.002789  0  3.441129  0  0  0.076115  0  3.648161  0  0  0.0658  0  3.667578  0  0  -0.3453  0.083006  0  3.635586  0
N  N67  1  0.80406357  0.35341455  0.86199177  1  0  -0.002581  0  3.438974  0  0  0.076735  0  3.646752  0  0  0.066374  0  3.66608  0  0  -0.345304  0.083569  0  3.63419  0
O  O68  1  0.21675356  0.08719890  0.45409303  1  0  -0.932813  0  1.927927  0  0  -0.854236  0  2.198287  0  0  -0.881658  0  2.179273  0  0  -0.448776  -0.834555  0  2.210854  0
O  O69  1  0.13033302  0.91319702  0.04590266  1  0  -0.932003  0  1.929584  0  0  -0.853335  0  2.19957  0  0  -0.880789  0  2.180634  0  0  -0.447722  -0.833765  0  2.212242  0
O  O70  1  0.78327321  0.91280283  0.54589924  1  0  -0.93288  0  1.927972  0  0  -0.854283  0  2.198304  0  0  -0.881694  0  2.179264  0  0  -0.448763  -0.834597  0  2.21087  0
O  O71  1  0.86966859  0.08678964  0.95409216  1  0  -0.932079  0  1.929456  0  0  -0.853424  0  2.199499  0  0  -0.880876  0  2.180553  0  0  -0.447814  -0.833852  0  2.212169  0
O  O72  1  0.66545553  0.12768873  0.38610549  1  0  -0.896894  0  1.910459  0  0  -0.815644  0  2.158314  0  0  -0.842234  0  2.1396  0  0  -0.404411  -0.796512  0  2.170841  0
O  O73  1  0.53844418  0.87232426  0.11378724  1  0  -0.897437  0  1.91066  0  0  -0.815799  0  2.158266  0  0  -0.842434  0  2.13952  0  0  -0.405079  -0.796872  0  2.170713  0
O  O74  1  0.33457655  0.87231972  0.61389677  1  0  -0.896954  0  1.910463  0  0  -0.815654  0  2.158217  0  0  -0.842259  0  2.139534  0  0  -0.404363  -0.79653  0  2.170767  0
O  O75  1  0.46155835  0.12766815  0.88621529  1  0  -0.89743  0  1.910853  0  0  -0.815746  0  2.158438  0  0  -0.84238  0  2.139688  0  0  -0.405058  -0.796821  0  2.170889  0
O  O76  1  0.63076376  0.19916113  0.52744436  1  0  -0.826792  0  2.104179  0  0  -0.748794  0  2.349981  0  0  -0.772195  0  2.322334  0  0  -0.400815  -0.732169  0  2.368805  0
O  O77  1  0.43162533  0.80094872  0.97244629  1  0  -0.826728  0  2.105063  0  0  -0.748739  0  2.350952  0  0  -0.77222  0  2.323492  0  0  -0.400322  -0.732091  0  2.369699  0
O  O78  1  0.36923288  0.80085867  0.47255978  1  0  -0.826689  0  2.104262  0  0  -0.748749  0  2.350035  0  0  -0.77215  0  2.32239  0  0  -0.400719  -0.732118  0  2.368854  0
O  O79  1  0.56838265  0.19903892  0.02755297  1  0  -0.826663  0  2.10505  0  0  -0.748667  0  2.350959  0  0  -0.772146  0  2.323494  0  0  -0.40026  -0.73202  0  2.36971  0
O  O80  1  0.91049503  0.67832591  0.42307690  1  0  -0.671401  0  2.031885  0  0  -0.606278  0  2.266034  0  0  -0.634201  0  2.256341  0  0  -0.344072  -0.586488  0  2.272192  0
O  O81  1  0.23261660  0.32184371  0.07682997  1  0  -0.671296  0  2.030643  0  0  -0.605739  0  2.264924  0  0  -0.633685  0  2.255234  0  0  -0.343581  -0.586197  0  2.271046  0
O  O82  1  0.08952475  0.32168534  0.57692244  1  0  -0.6714  0  2.031977  0  0  -0.6063  0  2.266186  0  0  -0.634216  0  2.256489  0  0  -0.344048  -0.586515  0  2.272343  0
O  O83  1  0.76739598  0.67816096  0.92317184  1  0  -0.671197  0  2.03074  0  0  -0.605657  0  2.264948  0  0  -0.633606  0  2.255254  0  0  -0.343593  -0.586108  0  2.271047  0
O  O84  1  0.03275398  0.49239684  0.41291295  1  0  -0.606969  0  1.926271  0  0  -0.560618  0  2.151396  0  0  -0.583261  0  2.142807  0  0  -0.314789  -0.544756  0  2.157078  0
O  O85  1  0.54097505  0.50774357  0.08691768  1  0  -0.608018  0  1.928021  0  0  -0.561553  0  2.153602  0  0  -0.584084  0  2.144769  0  0  -0.315337  -0.545881  0  2.159292  0
O  O86  1  0.96724482  0.50761162  0.58708931  1  0  -0.607058  0  1.926132  0  0  -0.560726  0  2.15125  0  0  -0.58337  0  2.142659  0  0  -0.314793  -0.544853  0  2.156909  0
O  O87  1  0.45906800  0.49225550  0.91308943  1  0  -0.607993  0  1.927646  0  0  -0.561551  0  2.153163  0  0  -0.584088  0  2.144329  0  0  -0.315413  -0.545873  0  2.158843  0
O  O88  1  0.40799532  0.15677653  0.17777418  1  0  -0.720538  0  1.994715  0  0  -0.662449  0  2.239385  0  0  -0.689448  0  2.230932  0  0  -0.389389  -0.643462  0  2.244623  0
O  O89  1  0.25109312  0.84254365  0.32233778  1  0  -0.72193  0  1.994344  0  0  -0.6637  0  2.23878  0  0  -0.69076  0  2.230469  0  0  -0.389957  -0.644593  0  2.243889  0
O  O90  1  0.59198416  0.84321676  0.82222250  1  0  -0.72062  0  1.994779  0  0  -0.662598  0  2.239451  0  0  -0.689602  0  2.230991  0  0  -0.389409  -0.643612  0  2.244694  0
O  O91  1  0.74888705  0.15746279  0.67765288  1  0  -0.721964  0  1.994337  0  0  -0.66381  0  2.238804  0  0  -0.690873  0  2.230489  0  0  -0.389918  -0.644703  0  2.243918  0
O  O92  1  0.78450741  0.28969012  0.23595781  1  0  -0.675663  0  1.905216  0  0  -0.626683  0  2.134854  0  0  -0.651665  0  2.126064  0  0  -0.348298  -0.609179  0  2.140425  0
O  O93  1  0.49492764  0.70981777  0.26401298  1  0  -0.675439  0  1.90881  0  0  -0.626525  0  2.138497  0  0  -0.651473  0  2.129709  0  0  -0.348446  -0.608972  0  2.144021  0
O  O94  1  0.21546439  0.71029566  0.76404285  1  0  -0.675736  0  1.905265  0  0  -0.626787  0  2.13488  0  0  -0.651763  0  2.12608  0  0  -0.348368  -0.609288  0  2.14046  0
O  O95  1  0.50507025  0.29018886  0.73599502  1  0  -0.675414  0  1.908622  0  0  -0.626545  0  2.138252  0  0  -0.651492  0  2.129462  0  0  -0.348526  -0.608997  0  2.143781  0
O  O96  1  0.21518170  0.00021195  0.74999503  1  0  -0.876924  0  1.772039  0  0  -0.822093  0  1.934635  0  0  -0.842458  0  1.907086  0  0  -0.603312  -0.807538  0  1.953874  0
O  O97  1  0.78481622  0.99979084  0.25000710  1  0  -0.877008  0  1.77197  0  0  -0.822166  0  1.934572  0  0  -0.842532  0  1.907019  0  0  -0.603345  -0.807609  0  1.953805  0
