# generated using pymatgen
data_Zn3H43C50N3O14
_symmetry_space_group_name_H-M   'P 1'
_cell_length_a   9.50390949
_cell_length_b   10.94027519
_cell_length_c   25.69775409
_cell_angle_alpha   93.40504817
_cell_angle_beta   89.98331499
_cell_angle_gamma   115.82905108
_symmetry_Int_Tables_number   1
_chemical_formula_structural   Zn3H43C50N3O14
_chemical_formula_sum   'Zn6 H86 C100 N6 O28'
_cell_volume   2399.78290745
_cell_formula_units_Z   2
loop_
 _symmetry_equiv_pos_site_id
 _symmetry_equiv_pos_as_xyz
  1  'x, y, z'
loop_
 _atom_site_type_symbol
 _atom_site_label
 _atom_site_symmetry_multiplicity
 _atom_site_fract_x
 _atom_site_fract_y
 _atom_site_fract_z
 _atom_site_occupancy
 _atom_site_pbe_bader_charge
 _atom_site_pbe_bader_spin_density
 _atom_site_pbe_cm5_charge
 _atom_site_pbe_ddec_charge
 _atom_site_pbe_ddec_spin_density
 _atom_site_pbe_ddec_sum_bond_order
 _atom_site_pbe_magmom
Zn  Zn0  1  0.46110846  0.83069644  0.52931780  1  1.332688  0  0.698721  0.959566  0  2.212418  0
Zn  Zn1  1  0.63047807  0.16903966  0.97057892  1  1.332009  0  0.698254  0.960084  0  2.210996  0
Zn  Zn2  1  0.53893983  0.16929430  0.47064450  1  1.332082  0  0.69857  0.959425  0  2.212271  0
Zn  Zn3  1  0.36950176  0.83099928  0.02939443  1  1.332506  0  0.698478  0.960453  0  2.21066  0
Zn  Zn4  1  0.49998726  0.49998790  0.49998529  1  1.413693  0  0.69835  1.013971  0  2.265567  0
Zn  Zn5  1  0.00000643  0.50001232  0.99999612  1  1.41225  0  0.698158  1.013573  0  2.264907  0
H  H6  1  0.01946729  0.23441130  0.50282483  1  0.119056  0  0.10665  0.10935  0  1.024726  0
H  H7  1  0.78497189  0.76566293  0.99731370  1  0.120882  0  0.106772  0.109877  0  1.024416  0
H  H8  1  0.98057961  0.76557458  0.49714244  1  0.118767  0  0.106525  0.109112  0  1.024883  0
H  H9  1  0.21497902  0.23432034  0.00264146  1  0.119682  0  0.106709  0.109755  0  1.024654  0
H  H10  1  0.21224978  0.01461770  0.58798701  1  0.096972  0  0.110962  0.122591  0  0.992694  0
H  H11  1  0.19780610  0.98476866  0.91174595  1  0.105122  0  0.110921  0.122519  0  0.992422  0
H  H12  1  0.78780646  0.98539101  0.41199160  1  0.097729  0  0.110877  0.12249  0  0.992589  0
H  H13  1  0.80214809  0.01520856  0.08821026  1  0.105581  0  0.110861  0.122364  0  0.992587  0
H  H14  1  0.73028118  0.94118155  0.60754465  1  0.086105  0  0.107618  0.109036  0  1.042095  0
H  H15  1  0.78933154  0.05813039  0.89245287  1  0.087744  0  0.106296  0.10766  0  1.043012  0
H  H16  1  0.26974067  0.05876267  0.39239925  1  0.085555  0  0.107412  0.108769  0  1.041983  0
H  H17  1  0.21069517  0.94195594  0.10753500  1  0.087398  0  0.106139  0.107273  0  1.042918  0
H  H18  1  0.18647937  0.96408384  0.67345198  1  0.035789  0  0.098419  0.092952  0  1.032129  0
H  H19  1  0.22306021  0.03558467  0.82618288  1  0.061394  0  0.098869  0.094195  0  1.03096  0
H  H20  1  0.81360810  0.03574557  0.32646754  1  0.035615  0  0.098547  0.093055  0  1.032499  0
H  H21  1  0.77678270  0.96429639  0.17376060  1  0.060757  0  0.098894  0.094192  0  1.030689  0
H  H22  1  0.14254528  0.80759656  0.74297363  1  0.050406  0  0.094959  0.085794  0  1.043903  0
H  H23  1  0.33456320  0.19114480  0.75636177  1  0.030821  0  0.095482  0.086856  0  1.041331  0
H  H24  1  0.85753073  0.19220364  0.25692821  1  0.050098  0  0.095147  0.085937  0  1.043214  0
H  H25  1  0.66533377  0.80874126  0.24357869  1  0.03172  0  0.095485  0.086867  0  1.041303  0
H  H26  1  0.65757970  0.58870271  0.69326352  1  0.073669  0  0.100022  0.100671  0  1.024637  0
H  H27  1  0.07059226  0.41107782  0.80656504  1  0.086052  0  0.098978  0.100177  0  1.026542  0
H  H28  1  0.34234557  0.41147946  0.30678185  1  0.074026  0  0.099939  0.100789  0  1.024128  0
H  H29  1  0.92956840  0.58901546  0.19341674  1  0.084909  0  0.099023  0.100284  0  1.026617  0
H  H30  1  0.70393500  0.74080200  0.62248166  1  0.08607  0  0.101721  0.107229  0  1.029216  0
H  H31  1  0.96458035  0.25892320  0.87750916  1  0.08967  0  0.100392  0.106753  0  1.030092  0
H  H32  1  0.29601718  0.25927000  0.37752929  1  0.085381  0  0.101624  0.107188  0  1.029189  0
H  H33  1  0.03554781  0.74116612  0.12247565  1  0.090607  0  0.100461  0.106794  0  1.030516  0
H  H34  1  0.03079463  0.76538529  0.82098980  1  0.073147  0  0.098423  0.097684  0  1.026314  0
H  H35  1  0.25958534  0.23262649  0.67782160  1  0.057118  0  0.097745  0.097746  0  1.027643  0
H  H36  1  0.96950020  0.23454724  0.17893713  1  0.073203  0  0.09841  0.097979  0  1.026312  0
H  H37  1  0.73994554  0.76723867  0.32208734  1  0.056683  0  0.097584  0.097526  0  1.027542  0
H  H38  1  0.97289676  0.62783029  0.89797043  1  0.13564  0  0.103853  0.10901  0  1.042347  0
H  H39  1  0.33891223  0.37089308  0.60095462  1  0.11341  0  0.103667  0.108133  0  1.043876  0
H  H40  1  0.02751003  0.37211360  0.10195905  1  0.088859  0  0.103744  0.108893  0  1.042235  0
H  H41  1  0.66053089  0.62899433  0.39895320  1  0.113688  0  0.103619  0.108422  0  1.043258  0
H  H42  1  0.63526424  0.28199517  0.80737479  1  0.090433  0  0.101044  0.098921  0  1.03657  0
H  H43  1  0.36696168  0.72059627  0.69370239  1  0.079799  0  0.105432  0.108762  0  1.025721  0
H  H44  1  0.36424481  0.71819632  0.19268168  1  0.092613  0  0.10126  0.099307  0  1.035789  0
H  H45  1  0.63371806  0.27952926  0.30633680  1  0.089895  0  0.105657  0.108971  0  1.026228  0
H  H46  1  0.68679163  0.41953589  0.73029490  1  0.039692  0  0.097902  0.091849  0  1.046945  0
H  H47  1  0.27662900  0.58150195  0.77021239  1  0.08122  0  0.098325  0.093485  0  1.04376  0
H  H48  1  0.31281432  0.58058852  0.26973576  1  0.053007  0  0.09776  0.091722  0  1.047212  0
H  H49  1  0.72402238  0.41860054  0.22981118  1  0.058066  0  0.098451  0.093633  0  1.044342  0
H  H50  1  0.95578741  0.42431720  0.44544781  1  0.083362  0  0.111753  0.131682  0  0.992831  0
H  H51  1  0.53241995  0.57629145  0.05450878  1  0.072419  0  0.111531  0.131353  0  0.993325  0
H  H52  1  0.04417593  0.57566573  0.55459647  1  0.08409  0  0.111832  0.131807  0  0.99297  0
H  H53  1  0.46762441  0.42373140  0.94551641  1  0.074182  0  0.111425  0.131304  0  0.993294  0
H  H54  1  0.93738342  0.44123855  0.37742316  1  0.045762  0  0.102053  0.118027  0  1.001109  0
H  H55  1  0.49705660  0.55920417  0.12253923  1  0.053627  0  0.10207  0.117977  0  1.001698  0
H  H56  1  0.06244411  0.55872114  0.62262652  1  0.044742  0  0.101935  0.117924  0  1.001022  0
H  H57  1  0.50299137  0.44082169  0.87748485  1  0.054137  0  0.102044  0.117875  0  1.001963  0
H  H58  1  0.96078690  0.57802923  0.42343199  1  0.079094  0  0.102656  0.122111  0  1.004628  0
H  H59  1  0.38291590  0.42269963  0.07650158  1  0.091548  0  0.102781  0.121937  0  1.004234  0
H  H60  1  0.03915503  0.42195720  0.57662325  1  0.077346  0  0.102643  0.121991  0  1.004886  0
H  H61  1  0.61713105  0.57732419  0.92352246  1  0.091291  0  0.102899  0.122155  0  1.004092  0
H  H62  1  0.21024244  0.73718342  0.37940430  1  0.058343  0  0.103433  0.11639  0  1.016044  0
H  H63  1  0.47213367  0.26239623  0.11996077  1  0.056629  0  0.103877  0.116571  0  1.017306  0
H  H64  1  0.78965460  0.26278057  0.62062561  1  0.058241  0  0.103315  0.116192  0  1.015796  0
H  H65  1  0.52793122  0.73762770  0.88006561  1  0.060661  0  0.104021  0.116632  0  1.017512  0
H  H66  1  0.18691499  0.60296867  0.33255196  1  0.040942  0  0.101793  0.111003  0  1.019935  0
H  H67  1  0.58167597  0.39594893  0.16714125  1  0.044084  0  0.103667  0.114359  0  1.015232  0
H  H68  1  0.81290562  0.39701500  0.66746354  1  0.040256  0  0.101791  0.111175  0  1.019899  0
H  H69  1  0.41845881  0.60408009  0.83288405  1  0.045054  0  0.103715  0.114488  0  1.015147  0
H  H70  1  0.36229033  0.68279377  0.37302044  1  0.069217  0  0.115238  0.141134  0  0.984496  0
H  H71  1  0.67867048  0.31718250  0.12688189  1  0.082782  0  0.115244  0.140094  0  0.985802  0
H  H72  1  0.63757587  0.31714224  0.62697274  1  0.068138  0  0.115102  0.140923  0  0.984397  0
H  H73  1  0.32139140  0.68283330  0.87312020  1  0.083479  0  0.115226  0.140136  0  0.985806  0
H  H74  1  0.17879353  0.43646540  0.46851239  1  0.122366  0  0.125235  0.056982  0  1.018033  0
H  H75  1  0.74312639  0.56390518  0.03146233  1  0.117181  0  0.125141  0.057015  0  1.020155  0
H  H76  1  0.82117308  0.56347360  0.53147773  1  0.123761  0  0.125291  0.05692  0  1.018193  0
H  H77  1  0.25687717  0.43611814  0.96855041  1  0.116996  0  0.125166  0.057073  0  1.019924  0
H  H78  1  0.71133436  0.03748236  0.75727045  1  0.365687  0  0.289213  0.227408  0  0.960253  0
H  H79  1  0.28843560  0.96203098  0.24355451  1  0.368463  0  0.28907  0.226434  0  0.960992  0
H  H80  1  0.38502857  0.87949600  0.78675898  1  0.012773  0  0.087189  0.08624  0  1.012037  0
H  H81  1  0.53696566  0.12831320  0.71629880  1  -0.02269  0  0.072232  0.057299  0  1.028938  0
H  H82  1  0.61355366  0.12084483  0.21306843  1  -0.015224  0  0.087231  0.086267  0  1.011426  0
H  H83  1  0.46443350  0.87173818  0.28370507  1  -0.022704  0  0.072274  0.057223  0  1.029443  0
H  H84  1  0.49071944  0.05467462  0.80844343  1  0.012729  0  0.078147  0.07182  0  1.033215  0
H  H85  1  0.42722845  0.95624470  0.69125388  1  0.032191  0  0.092726  0.098659  0  1.01114  0
H  H86  1  0.50785344  0.94567695  0.19137368  1  0.012814  0  0.078218  0.07205  0  1.03322  0
H  H87  1  0.57449475  0.04392417  0.30858877  1  0.025044  0  0.092715  0.09844  0  1.012193  0
H  H88  1  0.55631557  0.93377383  0.82700855  1  0.055924  0  0.098582  0.112984  0  1.001003  0
H  H89  1  0.62234980  0.04711648  0.67261381  1  0.047585  0  0.098755  0.11336  0  1.001495  0
H  H90  1  0.44097684  0.06628630  0.17346856  1  0.063107  0  0.09836  0.11247  0  1.000974  0
H  H91  1  0.38009871  0.95288124  0.32786340  1  0.053134  0  0.098741  0.11353  0  1.001232  0
C  C92  1  0.00631719  0.16167880  0.53169286  1  -0.034052  0  -0.074694  -0.098282  0  3.937016  0
C  C93  1  0.84472258  0.83826040  0.96838855  1  -0.015225  0  -0.073955  -0.098559  0  3.936841  0
C  C94  1  0.99372985  0.83829681  0.46827227  1  -0.032811  0  -0.074484  -0.097773  0  3.936974  0
C  C95  1  0.15525897  0.16175675  0.03157426  1  -0.01567  0  -0.073903  -0.098597  0  3.936929  0
C  C96  1  0.13227630  0.13524018  0.54494616  1  -0.037322  0  -0.016989  -0.035518  0  3.985352  0
C  C97  1  0.99709900  0.86456340  0.95502427  1  -0.084467  0  -0.017218  -0.036204  0  3.984916  0
C  C98  1  0.86777291  0.86472929  0.45501769  1  -0.036001  0  -0.017083  -0.035878  0  3.985534  0
C  C99  1  0.00287408  0.13542843  0.04494079  1  -0.083428  0  -0.017005  -0.035572  0  3.984544  0
C  C100  1  0.11347286  0.03725906  0.58044690  1  -0.013912  0  -0.070714  -0.120613  0  3.884972  0
C  C101  1  0.07639311  0.96229667  0.91938849  1  -0.020474  0  -0.070392  -0.118334  0  3.882767  0
C  C102  1  0.88657734  0.96271659  0.41951900  1  -0.013657  0  -0.070663  -0.120169  0  3.885527  0
C  C103  1  0.92357095  0.03770027  0.08057744  1  -0.022436  0  -0.070344  -0.118226  0  3.88281  0
C  C104  1  0.96964709  0.96695225  0.60425702  1  0.003681  0  -0.004094  0.071451  0  3.988673  0
C  C105  1  0.00303303  0.03250317  0.89556179  1  0.004847  0  -0.004488  0.069037  0  3.988557  0
C  C106  1  0.03038408  0.03298747  0.39570081  1  8.2e-05  0  -0.004137  0.07079  0  3.988724  0
C  C107  1  0.99693708  0.96750793  0.10440247  1  0.005313  0  -0.004464  0.068456  0  3.989064  0
C  C108  1  0.84402082  0.99455923  0.59020799  1  -0.07268  0  -0.075782  -0.132098  0  3.906359  0
C  C109  1  0.84986558  0.00502812  0.90975088  1  -0.079893  0  -0.075297  -0.130256  0  3.906993  0
C  C110  1  0.15602223  0.00539163  0.40974850  1  -0.071734  0  -0.075345  -0.130888  0  3.905397  0
C  C111  1  0.15013394  0.99502912  0.09022243  1  -0.078473  0  -0.075213  -0.129728  0  3.906633  0
C  C112  1  0.86091223  0.08932528  0.55357643  1  0.011735  0  -0.023255  -0.054893  0  4.023208  0
C  C113  1  0.77189196  0.91057950  0.94650177  1  0.03989  0  -0.023844  -0.054384  0  4.021862  0
C  C114  1  0.13913170  0.91064202  0.44638426  1  0.003833  0  -0.023595  -0.055618  0  4.023701  0
C  C115  1  0.22810664  0.08946330  0.05346659  1  0.039844  0  -0.023931  -0.054598  0  4.022187  0
C  C116  1  0.94760937  0.86657255  0.64326689  1  -0.006128  0  -0.006635  0.067767  0  3.987148  0
C  C117  1  0.08136029  0.13260553  0.85640285  1  -0.016635  0  -0.008075  0.067718  0  3.989346  0
C  C118  1  0.05241545  0.13336921  0.35669098  1  -0.011865  0  -0.006535  0.068306  0  3.986748  0
C  C119  1  0.91863417  0.86738905  0.14355486  1  -0.015312  0  -0.008163  0.067912  0  3.989603  0
C  C120  1  0.07049326  0.88081294  0.67724977  1  -0.015833  0  -0.091771  -0.127561  0  3.994885  0
C  C121  1  0.18976818  0.11833325  0.82231772  1  -0.035933  0  -0.090408  -0.126079  0  3.991393  0
C  C122  1  0.92956399  0.11907378  0.32267979  1  -0.008396  0  -0.092095  -0.128439  0  3.995259  0
C  C123  1  0.81016299  0.88159798  0.17763295  1  -0.033251  0  -0.090291  -0.125849  0  3.991251  0
C  C124  1  0.04515609  0.79314001  0.71693884  1  -0.081439  0  -0.092993  -0.128097  0  4.003977  0
C  C125  1  0.25189844  0.20578088  0.78249909  1  0.006468  0  -0.093559  -0.128994  0  4.000389  0
C  C126  1  0.95489406  0.20673045  0.28299081  1  -0.083004  0  -0.093313  -0.128052  0  4.003942  0
C  C127  1  0.74805435  0.79414521  0.21744992  1  0.002188  0  -0.093786  -0.129156  0  3.999736  0
C  C128  1  0.89599848  0.68729856  0.72432048  1  0.004465  0  -0.011554  0.054855  0  4.005272  0
C  C129  1  0.20884688  0.31160946  0.77513979  1  -0.05706  0  -0.012156  0.055529  0  4.005567  0
C  C130  1  0.10401808  0.31267714  0.27564699  1  0.006375  0  -0.011461  0.054869  0  4.005498  0
C  C131  1  0.79119159  0.68836796  0.22481992  1  -0.062042  0  -0.011755  0.055987  0  4.005545  0
C  C132  1  0.77491552  0.66936924  0.68882737  1  -0.031222  0  -0.086937  -0.114343  0  3.963723  0
C  C133  1  0.10614342  0.32978155  0.81080153  1  -0.032164  0  -0.090989  -0.122737  0  3.975727  0
C  C134  1  0.22505014  0.33070445  0.31117544  1  -0.02998  0  -0.086931  -0.114436  0  3.96344  0
C  C135  1  0.89394991  0.67026131  0.18916644  1  -0.02451  0  -0.091275  -0.123376  0  3.976323  0
C  C136  1  0.80033322  0.75699499  0.64915102  1  -0.064581  0  -0.086606  -0.110564  0  3.948833  0
C  C137  1  0.04392415  0.24223177  0.85056099  1  -0.101699  0  -0.090582  -0.119198  0  3.959411  0
C  C138  1  0.19964616  0.24302835  0.35083837  1  -0.064969  0  -0.086509  -0.110707  0  3.948771  0
C  C139  1  0.95614491  0.75781515  0.14940744  1  -0.104303  0  -0.090548  -0.118968  0  3.959922  0
C  C140  1  0.86581375  0.60228327  0.76928628  1  -0.015258  0  -0.001103  0.081632  0  3.991854  0
C  C141  1  0.26409534  0.39695750  0.73021994  1  -0.014022  0  -0.002501  0.079388  0  3.995539  0
C  C142  1  0.13418469  0.39771929  0.23069182  1  -0.015838  0  -0.001002  0.081614  0  3.991539  0
C  C143  1  0.73595528  0.60301688  0.26973972  1  -0.015158  0  -0.002709  0.078954  0  3.996555  0
C  C144  1  0.94633665  0.65852034  0.81726251  1  -0.044101  0  -0.092193  -0.135556  0  3.964019  0
C  C145  1  0.28474435  0.34003062  0.68187352  1  -0.083467  0  -0.094135  -0.139566  0  3.970473  0
C  C146  1  0.05383592  0.34144961  0.18268655  1  -0.045265  0  -0.092026  -0.135883  0  3.963922  0
C  C147  1  0.71498091  0.65987602  0.31805177  1  -0.082978  0  -0.09369  -0.138653  0  3.970312  0
C  C148  1  0.91304237  0.58245437  0.86084334  1  -0.091257  0  -0.082265  -0.0771  0  3.966297  0
C  C149  1  0.32770752  0.41659304  0.63843090  1  -0.035442  0  -0.082426  -0.07552  0  3.96779  0
C  C150  1  0.08715098  0.41753816  0.13911043  1  -0.042833  0  -0.082368  -0.076961  0  3.965824  0
C  C151  1  0.67198857  0.58332891  0.36149624  1  -0.032626  0  -0.082267  -0.075864  0  3.967544  0
C  C152  1  0.80100650  0.44620820  0.85762171  1  -0.062901  0  -0.021965  -0.050238  0  3.987493  0
C  C153  1  0.35616831  0.55382511  0.64219407  1  0.007816  0  -0.020137  -0.050217  0  3.984377  0
C  C154  1  0.19896592  0.55385585  0.14236924  1  -0.064085  0  -0.021847  -0.050015  0  3.987067  0
C  C155  1  0.64384847  0.44616995  0.35777455  1  0.006732  0  -0.020519  -0.050613  0  3.985559  0
C  C156  1  0.72234445  0.38792795  0.80980361  1  -0.017743  0  -0.085112  -0.08991  0  3.99294  0
C  C157  1  0.34099031  0.61312329  0.69047271  1  -0.02481  0  -0.081079  -0.083924  0  3.978673  0
C  C158  1  0.27737977  0.61218892  0.19021483  1  -0.019918  0  -0.085336  -0.090524  0  3.992393  0
C  C159  1  0.65939881  0.38693452  0.30953211  1  -0.0332  0  -0.081017  -0.083531  0  3.979659  0
C  C160  1  0.75247340  0.46555059  0.76665398  1  -0.032189  0  -0.094947  -0.145203  0  3.990027  0
C  C161  1  0.29238789  0.53480080  0.73343593  1  -0.08668  0  -0.09399  -0.144197  0  3.983021  0
C  C162  1  0.24729757  0.53452935  0.23335558  1  -0.044095  0  -0.094905  -0.144907  0  3.989291  0
C  C163  1  0.70802073  0.46524975  0.26656486  1  -0.066392  0  -0.094437  -0.144999  0  3.984045  0
C  C164  1  0.28448384  0.20702883  0.51859126  1  1.575205  0  0.216503  0.588882  0  4.193312  0
C  C165  1  0.07749990  0.79291386  0.98135757  1  1.561499  0  0.216916  0.590612  0  4.190865  0
C  C166  1  0.71554854  0.79294064  0.48137298  1  1.574841  0  0.21675  0.588993  0  4.193119  0
C  C167  1  0.92247469  0.20708729  0.01861155  1  1.563178  0  0.216745  0.589905  0  4.191524  0
C  C168  1  0.72053978  0.10475993  0.53543137  1  1.53603  0  0.215129  0.586793  0  4.180861  0
C  C169  1  0.61610709  0.89527273  0.96468035  1  1.545406  0  0.214745  0.584897  0  4.18188  0
C  C170  1  0.27951599  0.89522052  0.46452762  1  1.542828  0  0.215468  0.587354  0  4.180007  0
C  C171  1  0.38389323  0.10476510  0.03529064  1  1.546315  0  0.214476  0.584821  0  4.181911  0
C  C172  1  0.75868596  0.36842140  0.90526707  1  1.536965  0  0.212523  0.58272  0  4.1821  0
C  C173  1  0.39075190  0.63173356  0.59457478  1  1.526139  0  0.21309  0.5818  0  4.182375  0
C  C174  1  0.24132026  0.63162613  0.09471695  1  1.536956  0  0.212677  0.583093  0  4.181693  0
C  C175  1  0.60922374  0.36826339  0.40539115  1  1.525844  0  0.213136  0.582321  0  4.18327  0
C  C176  1  0.99521735  0.49554177  0.41444329  1  0.261262  0  -0.131782  -0.27346  0  3.89167  0
C  C177  1  0.50020964  0.50496280  0.08547825  1  0.260338  0  -0.13099  -0.271963  0  3.892599  0
C  C178  1  0.00469824  0.50442566  0.58559564  1  0.264608  0  -0.131583  -0.273338  0  3.892173  0
C  C179  1  0.49983634  0.49505699  0.91454649  1  0.258375  0  -0.130981  -0.271938  0  3.892561  0
C  C180  1  0.23567115  0.64922073  0.37144695  1  0.30034  0  -0.131954  -0.267266  0  3.883202  0
C  C181  1  0.58547357  0.35043143  0.12824752  1  0.289671  0  -0.13058  -0.265626  0  3.880229  0
C  C182  1  0.76419931  0.35073849  0.62856653  1  0.301607  0  -0.131572  -0.266906  0  3.882101  0
C  C183  1  0.41459947  0.64959825  0.87177041  1  0.283797  0  -0.130715  -0.265683  0  3.880214  0
C  C184  1  0.24744530  0.51005208  0.44036580  1  1.393399  0  0.176706  0.312115  0  4.069934  0
C  C185  1  0.73757740  0.49002069  0.05951127  1  1.400076  0  0.176756  0.311054  0  4.072385  0
C  C186  1  0.75249117  0.48989397  0.55962329  1  1.39294  0  0.176509  0.311785  0  4.069952  0
C  C187  1  0.26246194  0.51000474  0.94050269  1  1.399324  0  0.176696  0.311441  0  4.072095  0
C  C188  1  0.50357735  0.96197640  0.79463834  1  0.272265  0  -0.149399  -0.211115  0  4.001846  0
C  C189  1  0.54418159  0.03101238  0.70557870  1  0.297282  0  -0.148755  -0.208998  0  4.001272  0
C  C190  1  0.49496952  0.03814698  0.20550717  1  0.30096  0  -0.149191  -0.210712  0  4.001928  0
C  C191  1  0.45724817  0.96895527  0.29460999  1  0.295207  0  -0.149036  -0.209108  0  4.000861  0
N  N192  1  0.16394890  0.55049923  0.41016727  1  -1.209433  0  -0.280122  0.031104  0  3.73616  0
N  N193  1  0.61346506  0.44962519  0.08967623  1  -1.235315  0  -0.281115  0.030349  0  3.739715  0
N  N194  1  0.83594955  0.44944446  0.58983889  1  -1.209701  0  -0.280519  0.030873  0  3.736135  0
N  N195  1  0.38658499  0.55039852  0.91034508  1  -1.234145  0  -0.281167  0.029817  0  3.739904  0
N  N196  1  0.59608266  0.97763288  0.74824842  1  -1.055402  0  -0.504081  -0.292073  0  3.474788  0
N  N197  1  0.40383148  0.02211768  0.25224326  1  -1.061375  0  -0.503698  -0.290888  0  3.475131  0
O  O198  1  0.58791101  0.03175378  0.55375403  1  -1.194069  0  -0.324124  -0.566907  0  2.340199  0
O  O199  1  0.55671688  0.96815473  0.94625538  1  -1.188843  0  -0.323695  -0.565749  0  2.340138  0
O  O200  1  0.41214562  0.96823889  0.44620559  1  -1.194558  0  -0.324247  -0.567264  0  2.339733  0
O  O201  1  0.44327607  0.03187888  0.05371203  1  -1.189149  0  -0.323638  -0.565535  0  2.340344  0
O  O202  1  0.67555573  0.23858964  0.89965643  1  -1.158304  0  -0.314702  -0.543534  0  2.277115  0
O  O203  1  0.43644483  0.76131934  0.60018807  1  -1.150233  0  -0.312474  -0.538404  0  2.274731  0
O  O204  1  0.32442707  0.76145943  0.10031633  1  -1.159201  0  -0.314869  -0.543924  0  2.277222  0
O  O205  1  0.56352551  0.23867751  0.39977552  1  -1.15016  0  -0.31234  -0.538489  0  2.275175  0
O  O206  1  0.38240268  0.15680811  0.52278868  1  -1.164909  0  -0.312348  -0.549937  0  2.408216  0
O  O207  1  0.22578071  0.84319934  0.97706280  1  -1.152981  0  -0.312973  -0.551835  0  2.406429  0
O  O208  1  0.61764574  0.84318078  0.47717787  1  -1.166034  0  -0.31264  -0.550128  0  2.408337  0
O  O209  1  0.77419278  0.15679541  0.02289920  1  -1.152881  0  -0.312696  -0.551285  0  2.406841  0
O  O210  1  0.74082363  0.19170243  0.50123211  1  -1.144732  0  -0.31321  -0.535339  0  2.276115  0
O  O211  1  0.54913212  0.80855972  0.99896111  1  -1.153105  0  -0.313048  -0.534511  0  2.274827  0
O  O212  1  0.25922935  0.80828925  0.49872827  1  -1.144046  0  -0.313366  -0.535535  0  2.275948  0
O  O213  1  0.45087122  0.19149465  0.00101642  1  -1.154325  0  -0.312895  -0.534467  0  2.274509  0
O  O214  1  0.30526484  0.31002618  0.49380502  1  -1.193425  0  -0.314685  -0.575545  0  2.378824  0
O  O215  1  0.99530750  0.69004767  0.00626573  1  -1.193236  0  -0.314436  -0.57635  0  2.377812  0
O  O216  1  0.69474085  0.68994042  0.50616383  1  -1.192938  0  -0.314516  -0.575463  0  2.378712  0
O  O217  1  0.00467855  0.30997218  0.99371310  1  -1.194834  0  -0.314558  -0.57626  0  2.378004  0
O  O218  1  0.39298362  0.54996042  0.43797384  1  -1.173761  0  -0.298954  -0.46706  0  2.388391  0
O  O219  1  0.84286709  0.44980680  0.06184098  1  -1.159896  0  -0.298768  -0.466622  0  2.392088  0
O  O220  1  0.60695237  0.44999516  0.56200025  1  -1.175255  0  -0.298748  -0.4666  0  2.388079  0
O  O221  1  0.15719219  0.55023743  0.93816049  1  -1.159954  0  -0.298657  -0.466792  0  2.39249  0
O  O222  1  0.79830225  0.43040010  0.95009540  1  -1.199185  0  -0.318878  -0.597586  0  2.390383  0
O  O223  1  0.36807601  0.56984306  0.54969707  1  -1.198935  0  -0.319449  -0.598777  0  2.392245  0
O  O224  1  0.20173197  0.56961509  0.04989267  1  -1.198906  0  -0.318853  -0.597822  0  2.390526  0
O  O225  1  0.63189083  0.43014473  0.45026869  1  -1.19773  0  -0.319464  -0.599137  0  2.392603  0
