# generated using pymatgen
data_KH17C22(NO4)2
_symmetry_space_group_name_H-M   'P 1'
_cell_length_a   4.61970277
_cell_length_b   12.58516251
_cell_length_c   16.89338516
_cell_angle_alpha   93.41807502
_cell_angle_beta   92.57297559
_cell_angle_gamma   91.61492197
_symmetry_Int_Tables_number   1
_chemical_formula_structural   KH17C22(NO4)2
_chemical_formula_sum   'K2 H34 C44 N4 O16'
_cell_volume   978.97182023
_cell_formula_units_Z   2
loop_
 _symmetry_equiv_pos_site_id
 _symmetry_equiv_pos_as_xyz
  1  'x, y, z'
loop_
 _atom_site_type_symbol
 _atom_site_label
 _atom_site_symmetry_multiplicity
 _atom_site_fract_x
 _atom_site_fract_y
 _atom_site_fract_z
 _atom_site_occupancy
 _atom_site_hle17_bader_spin_density
 _atom_site_hle17_ddec_charge
 _atom_site_hle17_ddec_spin_density
 _atom_site_hle17_ddec_sum_bond_order
 _atom_site_hle17_magmom
 _atom_site_hse06_10hf_bader_spin_density
 _atom_site_hse06_10hf_ddec_charge
 _atom_site_hse06_10hf_ddec_spin_density
 _atom_site_hse06_10hf_ddec_sum_bond_order
 _atom_site_hse06_10hf_magmom
 _atom_site_hse06_bader_spin_density
 _atom_site_hse06_ddec_charge
 _atom_site_hse06_ddec_spin_density
 _atom_site_hse06_ddec_sum_bond_order
 _atom_site_hse06_magmom
 _atom_site_pbe_bader_spin_density
 _atom_site_pbe_cm5_charge
 _atom_site_pbe_ddec_charge
 _atom_site_pbe_ddec_spin_density
 _atom_site_pbe_ddec_sum_bond_order
 _atom_site_pbe_magmom
K  K0  1  0.23634715  0.94639217  0.41234972  1  0  0.930852  0  0.478737  0  0  0.886542  0  0.66521  0  0  0.90169  0  0.64168  0  0  0.802277  0.875064  0  0.682181  0
K  K1  1  0.76365027  0.05360869  0.58765042  1  0  0.930851  0  0.478749  0  0  0.886534  0  0.66522  0  0  0.90168  0  0.641697  0  0  0.802286  0.87506  0  0.682188  0
H  H2  1  0.40467902  0.83783118  0.59482259  1  0  0.384452  0  0.926767  0  0  0.350816  0  1.01088  0  0  0.364422  0  0.994477  0  0  0.290568  0.341334  0  1.019801  0
H  H3  1  0.59531852  0.16217128  0.40517762  1  0  0.384494  0  0.926747  0  0  0.350859  0  1.010852  0  0  0.364466  0  0.994418  0  0  0.290582  0.341378  0  1.019769  0
H  H4  1  0.53784292  0.95174224  0.07500483  1  0  0.125636  0  0.960021  0  0  0.129285  0  1.029464  0  0  0.133955  0  1.025261  0  0  0.1147  0.125894  0  1.032486  0
H  H5  1  0.46215871  0.04825704  0.92499528  1  0  0.125602  0  0.959981  0  0  0.129233  0  1.029489  0  0  0.133947  0  1.025233  0  0  0.114707  0.125851  0  1.032509  0
H  H6  1  0.39171318  0.89757373  0.20764235  1  0  0.124923  0  0.916961  0  0  0.134827  0  0.972377  0  0  0.13922  0  0.968979  0  0  0.126354  0.131611  0  0.974965  0
H  H7  1  0.60828622  0.10242474  0.79235711  1  0  0.12491  0  0.916977  0  0  0.134808  0  0.972387  0  0  0.139199  0  0.968991  0  0  0.12635  0.131591  0  0.974975  0
H  H8  1  0.22224508  0.46630015  0.17043648  1  0  0.119947  0  0.931732  0  0  0.128567  0  0.991345  0  0  0.132824  0  0.987968  0  0  0.117126  0.125384  0  0.994026  0
H  H9  1  0.77775434  0.53369832  0.82956358  1  0  0.119992  0  0.931701  0  0  0.128592  0  0.991329  0  0  0.132847  0  0.987954  0  0  0.117128  0.125409  0  0.99401  0
H  H10  1  0.38339249  0.52388486  0.04196314  1  0  0.105498  0  0.975739  0  0  0.111554  0  1.043671  0  0  0.115842  0  1.039838  0  0  0.106507  0.108409  0  1.046593  0
H  H11  1  0.61661572  0.47611522  0.95803767  1  0  0.10541  0  0.975887  0  0  0.111522  0  1.043732  0  0  0.115811  0  1.039896  0  0  0.106498  0.108376  0  1.046655  0
H  H12  1  0.46297478  0.50248612  0.36642957  1  0  0.088776  0  0.915338  0  0  0.103049  0  0.977397  0  0  0.104413  0  0.975527  0  0  0.11502  0.101981  0  0.978883  0
H  H13  1  0.53702686  0.49751316  0.63357055  1  0  0.088772  0  0.915346  0  0  0.103042  0  0.977403  0  0  0.104405  0  0.975535  0  0  0.115017  0.101974  0  0.978888  0
H  H14  1  0.35726962  0.63371714  0.39525522  1  0  0.079082  0  0.971286  0  0  0.093621  0  1.036542  0  0  0.094571  0  1.036391  0  0  0.113599  0.092792  0  1.036877  0
H  H15  1  0.64272984  0.36628213  0.60474428  1  0  0.079087  0  0.971256  0  0  0.093623  0  1.036525  0  0  0.094573  0  1.036373  0  0  0.1136  0.092794  0  1.03686  0
H  H16  1  0.65641814  0.56512895  0.50206211  1  0  0.080594  0  0.945735  0  0  0.100133  0  1.00541  0  0  0.100976  0  1.00563  0  0  0.098078  0.099469  0  1.005324  0
H  H17  1  0.34358145  0.43487191  0.49793805  1  0  0.080589  0  0.945725  0  0  0.10013  0  1.005405  0  0  0.100974  0  1.005625  0  0  0.098077  0.099467  0  1.00532  0
H  H18  1  0.93215492  0.53072195  0.43680517  1  0  0.076502  0  0.955331  0  0  0.092739  0  1.018817  0  0  0.093856  0  1.019054  0  0  0.094174  0.09187  0  1.018735  0
H  H19  1  0.06784684  0.46927892  0.56319501  1  0  0.076467  0  0.95535  0  0  0.09272  0  1.018826  0  0  0.093841  0  1.019063  0  0  0.094165  0.091851  0  1.018744  0
H  H20  1  0.99987379  0.73004190  0.41498410  1  0  0.082727  0  0.976721  0  0  0.09335  0  1.049165  0  0  0.095873  0  1.047349  0  0  0.092724  0.091528  0  1.050533  0
H  H21  1  0.00012362  0.26995896  0.58501545  1  0  0.082768  0  0.976705  0  0  0.093387  0  1.049132  0  0  0.09591  0  1.047316  0  0  0.092734  0.091564  0  1.050501  0
H  H22  1  0.09818599  0.69157682  0.51063837  1  0  0.115907  0  0.941194  0  0  0.134126  0  0.996287  0  0  0.136546  0  0.995514  0  0  0.107822  0.132406  0  0.996872  0
H  H23  1  0.90181148  0.30842484  0.48936121  1  0  0.11596  0  0.941202  0  0  0.134155  0  0.996296  0  0  0.136575  0  0.995526  0  0  0.107834  0.132437  0  0.996881  0
H  H24  1  0.42941320  0.80785768  0.85804753  1  0  0.073644  0  0.956079  0  0  0.086915  0  1.022211  0  0  0.087761  0  1.02156  0  0  0.106863  0.086224  0  1.022797  0
H  H25  1  0.57058855  0.19214318  0.14195206  1  0  0.073659  0  0.956077  0  0  0.086942  0  1.022206  0  0  0.087791  0  1.021551  0  0  0.106861  0.086251  0  1.022793  0
H  H26  1  0.16418390  0.90841717  0.85857359  1  0  0.085526  0  0.948396  0  0  0.098553  0  1.012815  0  0  0.099742  0  1.012053  0  0  0.111353  0.097603  0  1.013532  0
H  H27  1  0.83581125  0.09158210  0.14142704  1  0  0.085534  0  0.948391  0  0  0.098568  0  1.012814  0  0  0.099755  0  1.01205  0  0  0.111359  0.097617  0  1.013535  0
H  H28  1  0.02494412  0.67631355  0.80175445  1  0  0.072858  0  0.962732  0  0  0.087415  0  1.02998  0  0  0.088702  0  1.029465  0  0  0.090651  0.08647  0  1.030356  0
H  H29  1  0.97505757  0.32368652  0.19824510  1  0  0.072884  0  0.962746  0  0  0.087443  0  1.029965  0  0  0.088729  0  1.029451  0  0  0.090647  0.086498  0  1.030342  0
H  H30  1  0.80318505  0.78783987  0.78973100  1  0  0.069872  0  0.94912  0  0  0.087815  0  1.011142  0  0  0.088897  0  1.01085  0  0  0.092333  0.086953  0  1.01149  0
H  H31  1  0.19681448  0.21216020  0.21026912  1  0  0.06989  0  0.949135  0  0  0.087807  0  1.011159  0  0  0.08889  0  1.010871  0  0  0.092329  0.086946  0  1.011508  0
H  H32  1  0.38649521  0.75091706  0.71218013  1  0  0.112854  0  0.921466  0  0  0.12986  0  0.974824  0  0  0.131944  0  0.97436  0  0  0.106957  0.128334  0  0.975343  0
H  H33  1  0.61350456  0.24908619  0.28782014  1  0  0.112866  0  0.921556  0  0  0.129875  0  0.974893  0  0  0.131957  0  0.974434  0  0  0.106988  0.128348  0  0.975412  0
H  H34  1  0.04479968  0.72247878  0.66630231  1  0  0.127935  0  0.912814  0  0  0.142755  0  0.969146  0  0  0.145253  0  0.968131  0  0  0.112495  0.140968  0  0.970004  0
H  H35  1  0.95520201  0.27752129  0.33369784  1  0  0.127934  0  0.912796  0  0  0.142746  0  0.96914  0  0  0.145246  0  0.968123  0  0  0.11249  0.140958  0  0.969996  0
C  C36  1  0.89983862  0.85185637  0.97673668  1  0  0.514091  0  3.776987  0  0  0.46522  0  4.066223  0  0  0.49518  0  4.065127  0  0  0.253318  0.445074  0  4.066441  0
C  C37  1  0.10016723  0.14814132  0.02326281  1  0  0.514124  0  3.777044  0  0  0.465237  0  4.066262  0  0  0.495198  0  4.065163  0  0  0.253302  0.44509  0  4.066483  0
C  C38  1  0.81853471  0.82035444  0.05605391  1  0  -0.071998  0  3.74452  0  0  -0.062919  0  3.990926  0  0  -0.069871  0  4.013006  0  0  -0.000139  -0.058425  0  3.976046  0
C  C39  1  0.18146915  0.17964563  0.94394626  1  0  -0.072076  0  3.744334  0  0  -0.062905  0  3.990743  0  0  -0.069856  0  4.012832  0  0  -0.000126  -0.058413  0  3.975869  0
C  C40  1  0.62711602  0.88084135  0.09959861  1  0  -0.034766  0  3.632782  0  0  -0.065782  0  3.896734  0  0  -0.064678  0  3.912205  0  0  -0.058519  -0.066344  0  3.886293  0
C  C41  1  0.37288989  0.11915713  0.90040092  1  0  -0.034591  0  3.632553  0  0  -0.065728  0  3.896679  0  0  -0.064657  0  3.912118  0  0  -0.05855  -0.066299  0  3.886243  0
C  C42  1  0.54256277  0.84967256  0.17401049  1  0  -0.01717  0  3.628796  0  0  -0.043239  0  3.884933  0  0  -0.040981  0  3.899829  0  0  -0.048185  -0.044672  0  3.874814  0
C  C43  1  0.45744103  0.15032672  0.82598905  1  0  -0.01723  0  3.62882  0  0  -0.043227  0  3.884957  0  0  -0.040971  0  3.899867  0  0  -0.048147  -0.04466  0  3.87484  0
C  C44  1  0.64552656  0.75684143  0.20439646  1  0  -0.080723  0  3.74996  0  0  -0.07314  0  3.997431  0  0  -0.080427  0  4.019331  0  0  0.000952  -0.068422  0  3.982684  0
C  C45  1  0.35447502  0.24315704  0.79560362  1  0  -0.080711  0  3.749947  0  0  -0.073118  0  3.997394  0  0  -0.080404  0  4.019283  0  0  0.000941  -0.068399  0  3.982646  0
C  C46  1  0.54432316  0.72123318  0.28061324  1  0  0.516207  0  3.789404  0  0  0.471761  0  4.075273  0  0  0.501535  0  4.074798  0  0  0.256587  0.451708  0  4.07509  0
C  C47  1  0.45567841  0.27876530  0.71938624  1  0  0.516361  0  3.789247  0  0  0.47187  0  4.075149  0  0  0.501653  0  4.074654  0  0  0.256637  0.451816  0  4.074968  0
C  C48  1  0.84642177  0.56193294  0.26605652  1  0  0.503868  0  3.79047  0  0  0.45738  0  4.075865  0  0  0.486267  0  4.075803  0  0  0.250607  0.437936  0  4.075466  0
C  C49  1  0.15357764  0.43806553  0.73394353  1  0  0.50391  0  3.79045  0  0  0.457471  0  4.075776  0  0  0.486354  0  4.075721  0  0  0.25063  0.438027  0  4.075377  0
C  C50  1  0.94617872  0.59891841  0.19026597  1  0  -0.07671  0  3.756892  0  0  -0.068354  0  4.005006  0  0  -0.074725  0  4.02653  0  0  -0.00476  -0.064239  0  3.990511  0
C  C51  1  0.05382070  0.40108007  0.80973408  1  0  -0.076628  0  3.756986  0  0  -0.068335  0  4.00512  0  0  -0.074707  0  4.026649  0  0  -0.004753  -0.064219  0  3.990626  0
C  C52  1  0.13988201  0.53905143  0.14716874  1  0  -0.037156  0  3.66403  0  0  -0.068422  0  3.928896  0  0  -0.067436  0  3.945248  0  0  -0.063959  -0.06893  0  3.917815  0
C  C53  1  0.86011961  0.46094785  0.85283078  1  0  -0.037246  0  3.663944  0  0  -0.0685  0  3.928809  0  0  -0.067514  0  3.945163  0  0  -0.063976  -0.069005  0  3.917721  0
C  C54  1  0.23061413  0.57199952  0.07417490  1  0  -0.042183  0  3.683069  0  0  -0.069716  0  3.942811  0  0  -0.069574  0  3.961035  0  0  -0.066961  -0.069668  0  3.930385  0
C  C55  1  0.76939187  0.42799976  0.92582644  1  0  -0.042108  0  3.683091  0  0  -0.069638  0  3.942718  0  0  -0.069493  0  3.960938  0  0  -0.06694  -0.069589  0  3.930293  0
C  C56  1  0.12728777  0.66436261  0.04340554  1  0  -0.078698  0  3.75665  0  0  -0.067592  0  3.998816  0  0  -0.074786  0  4.022105  0  0  -0.00382  -0.062894  0  3.983063  0
C  C57  1  0.87272038  0.33563667  0.95659523  1  0  -0.078669  0  3.756619  0  0  -0.067543  0  3.998736  0  0  -0.074733  0  4.022031  0  0  -0.003795  -0.062845  0  3.982984  0
C  C58  1  0.22649163  0.69867208  0.96656284  1  0  0.500114  0  3.808885  0  0  0.453902  0  4.095595  0  0  0.482906  0  4.096578  0  0  0.246177  0.434396  0  4.094396  0
C  C59  1  0.77351462  0.30133039  0.03343924  1  0  0.500103  0  3.809026  0  0  0.453912  0  4.095679  0  0  0.4829  0  4.096688  0  0  0.246195  0.434406  0  4.094482  0
C  C60  1  0.93040922  0.72673415  0.08641647  1  0  0.029097  0  3.789568  0  0  0.03005  0  4.020515  0  0  0.030226  0  4.04589  0  0  0.005205  0.030007  0  4.003241  0
C  C61  1  0.06959246  0.27326592  0.91358308  1  0  0.02912  0  3.789489  0  0  0.029998  0  4.020502  0  0  0.030173  0  4.045876  0  0  0.005191  0.029956  0  4.003227  0
C  C62  1  0.84081612  0.69413923  0.16097908  1  0  0.029029  0  3.788575  0  0  0.030491  0  4.021114  0  0  0.030858  0  4.04628  0  0  0.005116  0.030343  0  4.003979  0
C  C63  1  0.15918109  0.30585924  0.83901917  1  0  0.028975  0  3.788619  0  0  0.030478  0  4.021155  0  0  0.030845  0  4.046321  0  0  0.005103  0.030328  0  4.004021  0
C  C64  1  0.54106094  0.58488581  0.38049129  1  0  0.008756  0  3.602334  0  0  -0.056856  0  3.868989  0  0  -0.050888  0  3.878554  0  0  -0.064318  -0.060769  0  3.862417  0
C  C65  1  0.45893858  0.41511426  0.61950825  1  0  0.008836  0  3.602211  0  0  -0.056779  0  3.868896  0  0  -0.05081  0  3.87846  0  0  -0.064284  -0.060691  0  3.862322  0
C  C66  1  0.76720188  0.58943603  0.44958535  1  0  -0.106701  0  3.680555  0  0  -0.151828  0  3.944596  0  0  -0.152876  0  3.957095  0  0  -0.164478  -0.150875  0  3.935908  0
C  C67  1  0.23279771  0.41056483  0.55041480  1  0  -0.106648  0  3.680544  0  0  -0.15181  0  3.944596  0  0  -0.152861  0  3.957097  0  0  -0.16449  -0.150858  0  3.935909  0
C  C68  1  0.91136604  0.69895620  0.46855701  1  0  -0.278772  0  3.680221  0  0  -0.318896  0  3.933561  0  0  -0.324626  0  3.941422  0  0  -0.175513  -0.314866  0  3.928038  0
C  C69  1  0.08863137  0.30104466  0.53144253  1  0  -0.278918  0  3.680331  0  0  -0.318984  0  3.933613  0  0  -0.324716  0  3.941475  0  0  -0.175527  -0.314955  0  3.928091  0
C  C70  1  0.72133668  0.78285915  0.50612246  1  0  0.712583  0  3.846968  0  0  0.670687  0  4.148431  0  0  0.703298  0  4.140607  0  0  0.200753  0.64857  0  4.152975  0
C  C71  1  0.27866068  0.21714092  0.49387764  1  0  0.712634  0  3.847059  0  0  0.670734  0  4.148507  0  0  0.703346  0  4.140682  0  0  0.200778  0.648616  0  4.153051  0
C  C72  1  0.19766038  0.82290525  0.86038423  1  0  0.009448  0  3.615996  0  0  -0.055425  0  3.880771  0  0  -0.049528  0  3.890444  0  0  -0.066621  -0.059278  0  3.874128  0
C  C73  1  0.80233914  0.17709482  0.13961530  1  0  0.009374  0  3.616005  0  0  -0.05557  0  3.880849  0  0  -0.049668  0  3.890513  0  0  -0.066666  -0.059423  0  3.874208  0
C  C74  1  0.02798573  0.76163655  0.79179450  1  0  -0.095868  0  3.681459  0  0  -0.142415  0  3.946873  0  0  -0.143031  0  3.958971  0  0  -0.164911  -0.1417  0  3.938397  0
C  C75  1  0.97201380  0.23836352  0.20820562  1  0  -0.095984  0  3.681576  0  0  -0.14246  0  3.946947  0  0  -0.14308  0  3.95904  0  0  -0.164919  -0.141741  0  3.938459  0
C  C76  1  0.16005304  0.77592194  0.71200695  1  0  -0.275099  0  3.671606  0  0  -0.309456  0  3.919114  0  0  -0.31564  0  3.928006  0  0  -0.159335  -0.305215  0  3.912969  0
C  C77  1  0.83994655  0.22407893  0.28799321  1  0  -0.275088  0  3.671731  0  0  -0.309447  0  3.919216  0  0  -0.315631  0  3.928104  0  0  -0.159359  -0.305205  0  3.913074  0
C  C78  1  0.14518942  0.88744360  0.68345235  1  0  0.70952  0  3.776648  0  0  0.666325  0  4.077802  0  0  0.698181  0  4.070091  0  0  0.218068  0.6446  0  4.082526  0
C  C79  1  0.85480373  0.11255805  0.31654778  1  0  0.709396  0  3.776687  0  0  0.666205  0  4.077834  0  0  0.698057  0  4.070129  0  0  0.218006  0.644478  0  4.082559  0
N  N80  1  0.10719590  0.79074866  0.93821034  1  0  -0.269975  0  3.348034  0  0  -0.188802  0  3.582515  0  0  -0.21478  0  3.601036  0  0  -0.239608  -0.171221  0  3.569398  0
N  N81  1  0.89280783  0.20924982  0.06178917  1  0  -0.269887  0  3.347816  0  0  -0.188687  0  3.582271  0  0  -0.214665  0  3.600802  0  0  -0.239559  -0.171104  0  3.569153  0
N  N82  1  0.64941590  0.62536856  0.30664663  1  0  -0.275583  0  3.34206  0  0  -0.192164  0  3.57325  0  0  -0.21823  0  3.592096  0  0  -0.239794  -0.17455  0  3.559992  0
N  N83  1  0.35058357  0.37463072  0.69335346  1  0  -0.275792  0  3.341963  0  0  -0.19237  0  3.57316  0  0  -0.218439  0  3.592001  0  0  -0.239869  -0.174757  0  3.559903  0
O  O84  1  0.79215045  0.92779668  0.94459536  1  0  -0.480435  0  1.941965  0  0  -0.437515  0  2.161226  0  0  -0.457053  0  2.156157  0  0  -0.25699  -0.424181  0  2.164388  0
O  O85  1  0.20784900  0.07220259  0.05540354  1  0  -0.480446  0  1.942163  0  0  -0.437544  0  2.161454  0  0  -0.457074  0  2.156376  0  0  -0.256993  -0.424207  0  2.164617  0
O  O86  1  0.36881101  0.77240435  0.31957617  1  0  -0.541426  0  1.969315  0  0  -0.506558  0  2.201847  0  0  -0.525828  0  2.195448  0  0  -0.332434  -0.493283  0  2.205928  0
O  O87  1  0.63118628  0.22759491  0.68042330  1  0  -0.541432  0  1.969337  0  0  -0.506553  0  2.201895  0  0  -0.525824  0  2.195489  0  0  -0.33243  -0.493278  0  2.205977  0
O  O88  1  0.92734154  0.47844510  0.29334523  1  0  -0.471869  0  1.925616  0  0  -0.429722  0  2.139101  0  0  -0.448198  0  2.133977  0  0  -0.251969  -0.417148  0  2.142382  0
O  O89  1  0.07265793  0.52155417  0.70665485  1  0  -0.471941  0  1.92549  0  0  -0.429791  0  2.13893  0  0  -0.448266  0  2.133808  0  0  -0.251995  -0.417217  0  2.142211  0
O  O90  1  0.40714603  0.64908348  0.92839725  1  0  -0.497296  0  1.906961  0  0  -0.456325  0  2.123225  0  0  -0.476006  0  2.119936  0  0  -0.273083  -0.44279  0  2.125147  0
O  O91  1  0.59286427  0.35091581  0.07160236  1  0  -0.497323  0  1.90711  0  0  -0.456369  0  2.12336  0  0  -0.476044  0  2.120079  0  0  -0.273095  -0.442834  0  2.125283  0
O  O92  1  0.74222990  0.87715800  0.48419072  1  0  -0.773648  0  1.963971  0  0  -0.732161  0  2.211305  0  0  -0.755149  0  2.200238  0  0  -0.516992  -0.715901  0  2.218448  0
O  O93  1  0.25776323  0.12284365  0.51580822  1  0  -0.773651  0  1.964085  0  0  -0.732172  0  2.211427  0  0  -0.75516  0  2.200361  0  0  -0.516999  -0.715913  0  2.21857  0
O  O94  1  0.55515650  0.75320537  0.56027514  1  0  -0.628176  0  1.964262  0  0  -0.571944  0  2.183939  0  0  -0.59804  0  2.17432  0  0  -0.326006  -0.553842  0  2.189346  0
O  O95  1  0.44484314  0.24679629  0.43972506  1  0  -0.628214  0  1.964269  0  0  -0.571967  0  2.183919  0  0  -0.598063  0  2.17429  0  0  -0.326018  -0.553865  0  2.189327  0
O  O96  1  0.29096633  0.90628651  0.61937798  1  0  -0.643491  0  2.112853  0  0  -0.596663  0  2.349451  0  0  -0.619823  0  2.332861  0  0  -0.388581  -0.580386  0  2.358701  0
O  O97  1  0.70903108  0.09371435  0.38062156  1  0  -0.643463  0  2.1129  0  0  -0.596635  0  2.349484  0  0  -0.619792  0  2.332875  0  0  -0.388549  -0.580356  0  2.358736  0
O  O98  1  0.99982272  0.95767975  0.71535709  1  0  -0.61255  0  1.878245  0  0  -0.571834  0  2.091872  0  0  -0.592764  0  2.083291  0  0  -0.369415  -0.557325  0  2.09748  0
O  O99  1  0.00016812  0.04232031  0.28464175  1  0  -0.612459  0  1.878182  0  0  -0.571765  0  2.091833  0  0  -0.592695  0  2.083255  0  0  -0.369388  -0.557256  0  2.097441  0
