# generated using pymatgen
data_H8AuC11S2N3
_symmetry_space_group_name_H-M   'P 1'
_cell_length_a   9.83502810
_cell_length_b   10.51724710
_cell_length_c   12.67188941
_cell_angle_alpha   79.88190337
_cell_angle_beta   78.76332615
_cell_angle_gamma   73.08907626
_symmetry_Int_Tables_number   1
_chemical_formula_structural   H8AuC11S2N3
_chemical_formula_sum   'H32 Au4 C44 S8 N12'
_cell_volume   1220.09962583
_cell_formula_units_Z   4
loop_
 _symmetry_equiv_pos_site_id
 _symmetry_equiv_pos_as_xyz
  1  'x, y, z'
loop_
 _atom_site_type_symbol
 _atom_site_label
 _atom_site_symmetry_multiplicity
 _atom_site_fract_x
 _atom_site_fract_y
 _atom_site_fract_z
 _atom_site_occupancy
 _atom_site_pbe_bader_spin_density
 _atom_site_pbe_cm5_charge
 _atom_site_pbe_ddec_charge
 _atom_site_pbe_ddec_spin_density
 _atom_site_pbe_ddec_sum_bond_order
 _atom_site_pbe_magmom
H  H0  1  0.63865092  0.97171855  0.51440213  1  0  0.10462  0.125695  0  1.036145  0
H  H1  1  0.36134158  0.02829375  0.48559976  1  0  0.104628  0.125752  0  1.036105  0
H  H2  1  0.85930097  0.03389155  0.53340454  1  0  0.100933  0.103055  0  0.999506  0
H  H3  1  0.14069281  0.96611977  0.46659570  1  0  0.100946  0.10307  0  0.999532  0
H  H4  1  0.96642734  0.94750820  0.70652831  1  0  0.101274  0.111289  0  1.009249  0
H  H5  1  0.03357304  0.05249413  0.29346819  1  0  0.101263  0.111257  0  1.009287  0
H  H6  1  0.84018698  0.81214867  0.85474462  1  0  0.10993  0.079549  0  0.984375  0
H  H7  1  0.15981761  0.18784964  0.14525097  1  0  0.109948  0.079528  0  0.984458  0
H  H8  1  0.17283402  0.21737899  0.68650983  1  0  0.095708  0.064946  0  1.051198  0
H  H9  1  0.82716359  0.78262229  0.31349198  1  0  0.095679  0.064946  0  1.051186  0
H  H10  1  0.04091897  0.15073756  0.86909996  1  0  0.098754  0.106595  0  1.053018  0
H  H11  1  0.95907914  0.84926177  0.13089888  1  0  0.098734  0.10652  0  1.053071  0
H  H12  1  0.13024497  0.91323815  0.96047259  1  0  0.105485  0.105159  0  1.028428  0
H  H13  1  0.86975183  0.08676219  0.03952632  1  0  0.105494  0.10515  0  1.02845  0
H  H14  1  0.59967465  0.57186128  0.87343528  1  0  0.109869  0.132286  0  0.991276  0
H  H15  1  0.40032561  0.42812689  0.12657344  1  0  0.109908  0.13231  0  0.991091  0
H  H16  1  0.58575347  0.66760297  0.04482143  1  0  0.100565  0.097177  0  1.035693  0
H  H17  1  0.41424737  0.33238318  0.95518906  1  0  0.100547  0.097221  0  1.035664  0
H  H18  1  0.77174685  0.55161266  0.16723014  1  0  0.096993  0.10476  0  1.032783  0
H  H19  1  0.22826016  0.44837351  0.83277543  1  0  0.096994  0.104749  0  1.032675  0
H  H20  1  0.96170574  0.34971397  0.11180330  1  0  0.105055  0.072491  0  1.015737  0
H  H21  1  0.03830578  0.65027822  0.88819678  1  0  0.105063  0.072471  0  1.015746  0
H  H22  1  0.59247796  0.39315004  0.67980801  1  0  0.083467  0.103236  0  1.082595  0
H  H23  1  0.40752275  0.60685124  0.32019253  1  0  0.083472  0.103201  0  1.082674  0
H  H24  1  0.42556479  0.24911615  0.69690507  1  0  0.098088  0.096886  0  1.033968  0
H  H25  1  0.57444084  0.75088216  0.30309036  1  0  0.098099  0.096905  0  1.03401  0
H  H26  1  0.43762723  0.05625779  0.84830010  1  0  0.100362  0.098893  0  1.06046  0
H  H27  1  0.56237896  0.94373851  0.15169552  1  0  0.100364  0.098866  0  1.060404  0
H  H28  1  0.61943519  0.01605572  0.97225083  1  0  0.108384  0.073458  0  1.017639  0
H  H29  1  0.38056528  0.98394259  0.02774778  1  0  0.108381  0.073452  0  1.017641  0
H  H30  1  0.34524154  0.75922839  0.86654108  1  0  0.108413  0.130078  0  0.995531  0
H  H31  1  0.65475913  0.24077294  0.13345630  1  0  0.108389  0.130024  0  0.995536  0
Au  Au32  1  0.35140806  0.52102396  0.53608370  1  0  0.20567  0.017391  0  3.291145  0
Au  Au33  1  0.64858689  0.47897937  0.46391667  1  0  0.20565  0.017331  0  3.291157  0
Au  Au34  1  0.03431275  0.59562217  0.55000502  1  0  0.20938  0.054137  0  3.186098  0
Au  Au35  1  0.96568261  0.40438715  0.44999446  1  0  0.209378  0.054132  0  3.18606  0
C  C36  1  0.30199479  0.86098801  0.82927558  1  0  -0.084023  -0.196891  0  3.953583  0
C  C37  1  0.69800304  0.13901233  0.17072238  1  0  -0.084001  -0.196806  0  3.953821  0
C  C38  1  0.62734619  0.86140098  0.67599189  1  0  0.209341  0.311312  0  4.021365  0
C  C39  1  0.37265186  0.13860234  0.32400641  1  0  0.209329  0.31125  0  4.021336  0
C  C40  1  0.68631609  0.93981171  0.58867069  1  0  -0.081483  -0.17687  0  3.909932  0
C  C41  1  0.31367851  0.06019663  0.41132826  1  0  -0.081477  -0.176919  0  3.910135  0
C  C42  1  0.81067868  0.97159826  0.59921378  1  0  -0.071958  -0.017926  0  3.963113  0
C  C43  1  0.18931936  0.02840507  0.40078453  1  0  -0.072002  -0.017978  0  3.963064  0
C  C44  1  0.86962987  0.92437881  0.69503955  1  0  -0.089702  -0.137224  0  3.981371  0
C  C45  1  0.13036891  0.07562555  0.30495613  1  0  -0.089629  -0.137115  0  3.981258  0
C  C46  1  0.79968017  0.84862226  0.77751580  1  0  0.038163  0.094498  0  4.013723  0
C  C47  1  0.20032227  0.15138008  0.22247958  1  0  0.038101  0.094463  0  4.013695  0
C  C48  1  0.36654844  0.90937677  0.72827504  1  0  0.207159  0.30295  0  4.050528  0
C  C49  1  0.63345035  0.09062758  0.27172143  1  0  0.207117  0.303014  0  4.050527  0
C  C50  1  0.20641014  0.11645966  0.72909193  1  0  0.037309  0.096982  0  3.985726  0
C  C51  1  0.79358659  0.88354467  0.27090644  1  0  0.037354  0.096961  0  3.985725  0
C  C52  1  0.13247625  0.07855637  0.83015895  1  0  -0.088051  -0.131228  0  3.941057  0
C  C53  1  0.86751790  0.92144600  0.16983930  1  0  -0.088046  -0.131108  0  3.940927  0
C  C54  1  0.18115500  0.94802301  0.88066406  1  0  -0.071511  -0.020851  0  3.951927  0
C  C55  1  0.81884014  0.05198333  0.11933507  1  0  -0.0715  -0.020873  0  3.952101  0
C  C56  1  0.49280579  0.73109378  0.61473174  1  0  0.129405  0.201564  0  4.016616  0
C  C57  1  0.50718962  0.26891156  0.38526669  1  0  0.129395  0.201581  0  4.016526  0
C  C58  1  0.78596308  0.41055062  0.90762664  1  0  0.208156  0.306019  0  4.040115  0
C  C59  1  0.21404459  0.58944058  0.09237576  1  0  0.208133  0.305951  0  4.039838  0
C  C60  1  0.67516434  0.52445328  0.93021493  1  0  -0.080675  -0.191584  0  3.947127  0
C  C61  1  0.32483429  0.47553695  0.06979140  1  0  -0.080654  -0.191477  0  3.946996  0
C  C62  1  0.66893947  0.57735703  0.02495702  1  0  -0.072518  -0.017413  0  3.958998  0
C  C63  1  0.33106552  0.42262908  0.97505281  1  0  -0.072592  -0.017547  0  3.959084  0
C  C64  1  0.77214156  0.51403407  0.09228889  1  0  -0.087192  -0.131915  0  3.96741  0
C  C65  1  0.22786226  0.48595612  0.90771662  1  0  -0.087151  -0.131931  0  3.967422  0
C  C66  1  0.87865521  0.40064927  0.06129013  1  0  0.042587  0.101135  0  3.983245  0
C  C67  1  0.12135481  0.59934091  0.93871204  1  0  0.042558  0.101181  0  3.983343  0
C  C68  1  0.69524675  0.27413068  0.81529459  1  0  0.214309  0.313032  0  4.032868  0
C  C69  1  0.30475245  0.72586859  0.18470725  1  0  0.214269  0.31301  0  4.032893  0
C  C70  1  0.59576399  0.30777832  0.74292479  1  0  -0.090434  -0.192408  0  3.948585  0
C  C71  1  0.40423858  0.69221995  0.25707507  1  0  -0.090403  -0.192309  0  3.948589  0
C  C72  1  0.50230295  0.22786423  0.75343342  1  0  -0.070753  -0.011727  0  3.94452  0
C  C73  1  0.49770169  0.77213404  0.24656533  1  0  -0.070803  -0.011877  0  3.944608  0
C  C74  1  0.50883067  0.12123484  0.83708333  1  0  -0.090189  -0.135189  0  3.976487  0
C  C75  1  0.49117476  0.87876047  0.16291254  1  0  -0.090147  -0.135031  0  3.976264  0
C  C76  1  0.60994887  0.09864623  0.90617035  1  0  0.037117  0.085874  0  4.007019  0
C  C77  1  0.39005188  0.90135108  0.09382835  1  0  0.037115  0.085825  0  4.006962  0
C  C78  1  0.88089757  0.38490242  0.71702636  1  0  0.130612  0.189939  0  4.012318  0
C  C79  1  0.11910314  0.61509886  0.28297417  1  0  0.130631  0.189959  0  4.012231  0
S  S80  1  0.65621727  0.65669383  0.54431943  1  0  -0.153237  -0.182961  0  2.972121  0
S  S81  1  0.34377623  0.34331458  0.45567573  1  0  -0.153209  -0.182963  0  2.972083  0
S  S82  1  0.32681157  0.70375568  0.62236295  1  0  -0.163722  -0.192469  0  2.850768  0
S  S83  1  0.67318550  0.29624760  0.37763946  1  0  -0.163706  -0.192433  0  2.850752  0
S  S84  1  0.96261972  0.50638133  0.72360221  1  0  -0.140051  -0.168947  0  2.907379  0
S  S85  1  0.03737631  0.49362195  0.27640037  1  0  -0.140013  -0.168898  0  2.907412  0
S  S86  1  0.90490697  0.28789767  0.61585615  1  0  -0.135543  -0.161238  0  2.922866  0
S  S87  1  0.09509453  0.71210457  0.38414570  1  0  -0.135568  -0.161275  0  2.922945  0
N  N88  1  0.67948639  0.81739064  0.76906634  1  0  -0.320544  -0.333683  0  3.334388  0
N  N89  1  0.32051634  0.18261067  0.23092992  1  0  -0.320523  -0.333612  0  3.334155  0
N  N90  1  0.49564199  0.82788446  0.67206980  1  0  -0.233265  -0.162509  0  3.649098  0
N  N91  1  0.50435682  0.17211986  0.32792825  1  0  -0.233274  -0.162597  0  3.649252  0
N  N92  1  0.88649381  0.34842437  0.97014476  1  0  -0.311779  -0.319272  0  3.312639  0
N  N93  1  0.11351140  0.65157188  0.02985496  1  0  -0.311747  -0.319226  0  3.312242  0
N  N94  1  0.79305029  0.35406108  0.80976049  1  0  -0.230349  -0.157798  0  3.647291  0
N  N95  1  0.20695307  0.64593816  0.19024070  1  0  -0.23033  -0.1578  0  3.647178  0
N  N96  1  0.70277698  0.17332521  0.89574073  1  0  -0.315279  -0.321957  0  3.335347  0
N  N97  1  0.29722434  0.82667008  0.10425895  1  0  -0.315286  -0.321952  0  3.335417  0
N  N98  1  0.32170570  0.03334190  0.67831369  1  0  -0.314865  -0.318314  0  3.327457  0
N  N99  1  0.67829292  0.96665940  0.32168638  1  0  -0.314864  -0.318364  0  3.327326  0
