# generated using pymatgen
data_LaH10C7NO9
_symmetry_space_group_name_H-M   'P 1'
_cell_length_a   7.27648190
_cell_length_b   9.88558969
_cell_length_c   15.96350000
_cell_angle_alpha   103.59233488
_cell_angle_beta   90.00000000
_cell_angle_gamma   90.00000000
_symmetry_Int_Tables_number   1
_chemical_formula_structural   LaH10C7NO9
_chemical_formula_sum   'La4 H40 C28 N4 O36'
_cell_volume   1116.13067040
_cell_formula_units_Z   4
loop_
 _symmetry_equiv_pos_site_id
 _symmetry_equiv_pos_as_xyz
  1  'x, y, z'
loop_
 _atom_site_type_symbol
 _atom_site_label
 _atom_site_symmetry_multiplicity
 _atom_site_fract_x
 _atom_site_fract_y
 _atom_site_fract_z
 _atom_site_occupancy
 _atom_site_hle17_bader_spin_density
 _atom_site_hle17_ddec_charge
 _atom_site_hle17_ddec_spin_density
 _atom_site_hle17_ddec_sum_bond_order
 _atom_site_hle17_magmom
 _atom_site_hse06_10hf_bader_spin_density
 _atom_site_hse06_10hf_ddec_charge
 _atom_site_hse06_10hf_ddec_spin_density
 _atom_site_hse06_10hf_ddec_sum_bond_order
 _atom_site_hse06_10hf_magmom
 _atom_site_hse06_bader_spin_density
 _atom_site_hse06_ddec_charge
 _atom_site_hse06_ddec_spin_density
 _atom_site_hse06_ddec_sum_bond_order
 _atom_site_hse06_magmom
 _atom_site_pbe_bader_charge
 _atom_site_pbe_bader_spin_density
 _atom_site_pbe_cm5_charge
 _atom_site_pbe_ddec_charge
 _atom_site_pbe_ddec_spin_density
 _atom_site_pbe_ddec_sum_bond_order
 _atom_site_pbe_magmom
La  La0  1  0.86204708  0.99049420  0.24024110  1  0  2.110946  0  1.742841  0  0  1.977303  0  2.244908  0  0  2.070496  0  2.153004  0  2.258478  0  1.384607  1.9077  0  2.309262  0
La  La1  1  0.36204309  0.50949562  0.25975927  1  0  2.111067  0  1.742582  0  0  1.977366  0  2.24473  0  0  2.070566  0  2.152811  0  2.258489  0  1.384614  1.907759  0  2.309101  0
La  La2  1  0.13796502  0.00948826  0.75975653  1  0  2.110975  0  1.742502  0  0  1.977326  0  2.244606  0  0  2.070522  0  2.152691  0  2.258539  0  1.384571  1.907705  0  2.309003  0
La  La3  1  0.63794703  0.49049309  0.74024680  1  0  2.111074  0  1.74254  0  0  1.97733  0  2.244787  0  0  2.07053  0  2.152878  0  2.258568  0  1.384604  1.90772  0  2.309159  0
H  H4  1  0.32453046  0.95251411  0.22212749  1  0  0.446489  0  0.83769  0  0  0.423002  0  0.887393  0  0  0.434354  0  0.870835  0  0.647328  0  0.311764  0.414738  0  0.899477  0
H  H5  1  0.82452483  0.54748299  0.27786516  1  0  0.446537  0  0.837608  0  0  0.423065  0  0.887294  0  0  0.434416  0  0.870738  0  0.647434  0  0.311806  0.414805  0  0.899371  0
H  H6  1  0.67546516  0.04749020  0.77787959  1  0  0.446484  0  0.837662  0  0  0.423024  0  0.887348  0  0  0.434376  0  0.87079  0  0.647345  0  0.31179  0.414766  0  0.899421  0
H  H7  1  0.17545704  0.45252340  0.72212718  1  0  0.446437  0  0.83769  0  0  0.422991  0  0.887372  0  0  0.434341  0  0.870817  0  0.647242  0  0.31178  0.414736  0  0.899437  0
H  H8  1  0.19832661  0.83918682  0.16605860  1  0  0.417102  0  0.866969  0  0  0.386931  0  0.943918  0  0  0.396734  0  0.929521  0  0.613155  0  0.30891  0.379873  0  0.954276  0
H  H9  1  0.69832648  0.66082485  0.33393116  1  0  0.416983  0  0.867064  0  0  0.386792  0  0.944111  0  0  0.396596  0  0.929711  0  0.6131  0  0.308838  0.379729  0  0.954479  0
H  H10  1  0.80168962  0.16080604  0.83394869  1  0  0.417145  0  0.86688  0  0  0.386971  0  0.943858  0  0  0.396771  0  0.929464  0  0.613173  0  0.308919  0.379914  0  0.954217  0
H  H11  1  0.30166501  0.33919716  0.66605719  1  0  0.417183  0  0.866929  0  0  0.387018  0  0.943808  0  0  0.396817  0  0.929416  0  0.61325  0  0.308964  0.379961  0  0.954167  0
H  H12  1  0.08844521  0.18381535  0.40644444  1  0  0.440617  0  0.852621  0  0  0.410152  0  0.915192  0  0  0.421693  0  0.898356  0  0.640209  0  0.297905  0.401873  0  0.92723  0
H  H13  1  0.58844096  0.31618264  0.09356006  1  0  0.440723  0  0.852481  0  0  0.410282  0  0.915025  0  0  0.421805  0  0.898203  0  0.640243  0  0.297983  0.402003  0  0.927069  0
H  H14  1  0.91156002  0.81617335  0.59355660  1  0  0.44064  0  0.852558  0  0  0.41019  0  0.915127  0  0  0.421713  0  0.898304  0  0.640243  0  0.297932  0.401918  0  0.927164  0
H  H15  1  0.41155740  0.68381647  0.90644439  1  0  0.44057  0  0.852686  0  0  0.410121  0  0.915246  0  0  0.421645  0  0.898422  0  0.640207  0  0.297891  0.40184  0  0.927292  0
H  H16  1  0.12172091  0.22371037  0.31351592  1  0  0.43415  0  0.864919  0  0  0.403136  0  0.928494  0  0  0.415089  0  0.911174  0  0.660031  0  0.301807  0.39458  0  0.94085  0
H  H17  1  0.62172490  0.27629283  0.18648558  1  0  0.434124  0  0.864994  0  0  0.403111  0  0.928564  0  0  0.415063  0  0.911246  0  0.660076  0  0.301808  0.394555  0  0.940919  0
H  H18  1  0.87827471  0.77628770  0.68648650  1  0  0.434126  0  0.864985  0  0  0.403098  0  0.928574  0  0  0.415063  0  0.911244  0  0.660223  0  0.301782  0.394542  0  0.940929  0
H  H19  1  0.37827484  0.72370004  0.81351482  1  0  0.434232  0  0.864841  0  0  0.40317  0  0.928478  0  0  0.415142  0  0.911145  0  0.660225  0  0.301835  0.394615  0  0.940832  0
H  H20  1  0.50518644  0.84883639  0.29506779  1  0  0.418472  0  0.898251  0  0  0.384768  0  0.967563  0  0  0.396749  0  0.950562  0  0.648087  0  0.296447  0.37622  0  0.979658  0
H  H21  1  0.00519619  0.65116487  0.20492797  1  0  0.418413  0  0.898321  0  0  0.384738  0  0.967601  0  0  0.396721  0  0.950596  0  0.648051  0  0.296448  0.376188  0  0.9797  0
H  H22  1  0.49482154  0.15116272  0.70492851  1  0  0.418416  0  0.89828  0  0  0.384712  0  0.96761  0  0  0.396696  0  0.950606  0  0.648073  0  0.296413  0.376163  0  0.979708  0
H  H23  1  0.99480080  0.34884360  0.79507157  1  0  0.41838  0  0.898345  0  0  0.384656  0  0.967694  0  0  0.396639  0  0.950691  0  0.647896  0  0.296435  0.376106  0  0.979791  0
H  H24  1  0.52125602  0.79999846  0.19625037  1  0  0.417963  0  0.894501  0  0  0.387548  0  0.958729  0  0  0.399762  0  0.941153  0  0.643988  0  0.301184  0.378859  0  0.971183  0
H  H25  1  0.02126165  0.69999449  0.30374857  1  0  0.417995  0  0.894478  0  0  0.387619  0  0.958627  0  0  0.399837  0  0.941048  0  0.643856  0  0.30125  0.378931  0  0.971078  0
H  H26  1  0.47874372  0.19999961  0.80374828  1  0  0.417866  0  0.894642  0  0  0.387495  0  0.958802  0  0  0.399709  0  0.941226  0  0.643988  0  0.301182  0.378808  0  0.971251  0
H  H27  1  0.97873672  0.30001191  0.69625318  1  0  0.417985  0  0.894536  0  0  0.38761  0  0.958647  0  0  0.399821  0  0.941078  0  0.643885  0  0.301265  0.378923  0  0.971099  0
H  H28  1  0.70454102  0.99591324  0.04707417  1  0  0.427168  0  0.821159  0  0  0.411328  0  0.874754  0  0  0.420043  0  0.864919  0  0.618442  0  0.326831  0.404874  0  0.882214  0
H  H29  1  0.20453840  0.50409844  0.45293690  1  0  0.427202  0  0.821128  0  0  0.411427  0  0.874601  0  0  0.420133  0  0.864784  0  0.618326  0  0.326969  0.404983  0  0.88205  0
H  H30  1  0.29546284  0.00410044  0.95293490  1  0  0.427143  0  0.821038  0  0  0.411355  0  0.874558  0  0  0.420063  0  0.864734  0  0.618392  0  0.326916  0.404909  0  0.88201  0
H  H31  1  0.79545171  0.49592045  0.54707356  1  0  0.427254  0  0.821086  0  0  0.411423  0  0.874639  0  0  0.420139  0  0.864813  0  0.618501  0  0.326905  0.40497  0  0.882095  0
H  H32  1  0.57034155  0.88246315  0.06653538  1  0  0.427754  0  0.848098  0  0  0.396794  0  0.920632  0  0  0.408443  0  0.903432  0  0.622851  0  0.302334  0.388374  0  0.933056  0
H  H33  1  0.07033894  0.61754541  0.43347335  1  0  0.427897  0  0.848012  0  0  0.396955  0  0.92042  0  0  0.408607  0  0.903214  0  0.622632  0  0.302417  0.388536  0  0.932843  0
H  H34  1  0.42965956  0.11754637  0.93346933  1  0  0.427882  0  0.848082  0  0  0.396935  0  0.920464  0  0  0.408587  0  0.903261  0  0.622629  0  0.302412  0.388516  0  0.932886  0
H  H35  1  0.92965256  0.38246723  0.56652930  1  0  0.427786  0  0.848009  0  0  0.396834  0  0.920561  0  0  0.408486  0  0.903351  0  0.622766  0  0.302343  0.388414  0  0.932987  0
H  H36  1  0.74666715  0.00237285  0.59525873  1  0  0.135216  0  0.95183  0  0  0.142188  0  1.017655  0  0  0.146633  0  1.014892  0  0.121515  0  0.115621  0.138956  0  1.019937  0
H  H37  1  0.24666728  0.49763348  0.90474511  1  0  0.135143  0  0.951846  0  0  0.142111  0  1.017696  0  0  0.146555  0  1.014935  0  0.121559  0  0.115598  0.13888  0  1.019974  0
H  H38  1  0.25334358  0.99764084  0.40474596  1  0  0.13529  0  0.951824  0  0  0.142235  0  1.017692  0  0  0.14668  0  1.014928  0  0.121506  0  0.115614  0.139003  0  1.019975  0
H  H39  1  0.75333246  0.50237708  0.09525912  1  0  0.135175  0  0.951759  0  0  0.142132  0  1.017626  0  0  0.146576  0  1.014864  0  0.121238  0  0.115623  0.138902  0  1.019906  0
H  H40  1  0.48749795  0.34340063  0.51277600  1  0  0.126037  0  0.942438  0  0  0.132611  0  1.009181  0  0  0.137482  0  1.005621  0  0.108152  0  0.115312  0.129081  0  1.01203  0
H  H41  1  0.98750469  0.15658904  0.98722102  1  0  0.125965  0  0.94252  0  0  0.13256  0  1.009249  0  0  0.13743  0  1.005692  0  0.108073  0  0.115295  0.12903  0  1.012097  0
H  H42  1  0.51249492  0.65659640  0.48721937  1  0  0.125996  0  0.942498  0  0  0.132569  0  1.009258  0  0  0.137435  0  1.005709  0  0.108178  0  0.115315  0.12904  0  1.012101  0
H  H43  1  0.01249780  0.84340799  0.01277748  1  0  0.125984  0  0.942524  0  0  0.132565  0  1.009248  0  0  0.137434  0  1.005693  0  0.107964  0  0.115301  0.129034  0  1.012099  0
C  C44  1  0.75853690  0.00220321  0.46009012  1  0  0.111448  0  3.778746  0  0  0.115624  0  4.03008  0  0  0.118594  0  4.050511  0  0.535552  0  0.10662  0.11363  0  4.016105  0
C  C45  1  0.25852878  0.49779375  0.03991047  1  0  0.111527  0  3.77828  0  0  0.115659  0  4.029658  0  0  0.118638  0  4.050102  0  0.535272  0  0.106608  0.113659  0  4.015677  0
C  C46  1  0.24147384  0.99779278  0.53990949  1  0  0.111464  0  3.778699  0  0  0.1157  0  4.029894  0  0  0.118668  0  4.050333  0  0.535746  0  0.106602  0.113705  0  4.015916  0
C  C47  1  0.74146546  0.50221161  0.96009175  1  0  0.111471  0  3.778545  0  0  0.115714  0  4.029757  0  0  0.118692  0  4.050179  0  0.53528  0  0.106624  0.113717  0  4.01578  0
C  C48  1  0.70958329  0.05629679  0.54553767  1  0  -0.215986  0  3.617952  0  0  -0.249907  0  3.877417  0  0  -0.257919  0  3.894827  0  -0.032077  0  -0.088835  -0.244874  0  3.866192  0
C  C49  1  0.20956968  0.44370121  0.95446307  1  0  -0.2158  0  3.617828  0  0  -0.249728  0  3.877312  0  0  -0.257739  0  3.894725  0  -0.032172  0  -0.08876  -0.244688  0  3.866078  0
C  C50  1  0.29042469  0.94370961  0.45446220  1  0  -0.216052  0  3.618004  0  0  -0.24997  0  3.877467  0  0  -0.257985  0  3.894879  0  -0.032359  0  -0.088785  -0.24493  0  3.866245  0
C  C51  1  0.79041769  0.55630519  0.04554055  1  0  -0.215775  0  3.617778  0  0  -0.249697  0  3.877176  0  0  -0.257711  0  3.894583  0  -0.031581  0  -0.08874  -0.244661  0  3.865948  0
C  C52  1  0.61632669  0.18565223  0.56805358  1  0  0.412114  0  3.88128  0  0  0.398311  0  4.147993  0  0  0.4167  0  4.160186  0  0.67964  0  0.098166  0.385752  0  4.139303  0
C  C53  1  0.11631720  0.31434681  0.93194480  1  0  0.411907  0  3.88137  0  0  0.398138  0  4.148057  0  0  0.416523  0  4.160254  0  0.67947  0  0.098146  0.385578  0  4.139355  0
C  C54  1  0.38368679  0.81435937  0.43194767  1  0  0.412199  0  3.880986  0  0  0.398318  0  4.147817  0  0  0.416711  0  4.160002  0  0.679419  0  0.098157  0.385746  0  4.139139  0
C  C55  1  0.88368116  0.68565126  0.06805322  1  0  0.412086  0  3.881259  0  0  0.398294  0  4.147959  0  0  0.416682  0  4.160151  0  0.679396  0  0.098142  0.385735  0  4.139268  0
C  C56  1  0.56675740  0.24731602  0.49988929  1  0  -0.24117  0  3.697194  0  0  -0.275502  0  3.961431  0  0  -0.283419  0  3.977754  0  -0.121736  0  -0.091789  -0.27032  0  3.950683  0
C  C57  1  0.06676166  0.25267781  0.00011147  1  0  -0.240996  0  3.697194  0  0  -0.27535  0  3.961475  0  0  -0.283266  0  3.977802  0  -0.121712  0  -0.091749  -0.270169  0  3.95072  0
C  C58  1  0.43324371  0.75267997  0.50010405  1  0  -0.241017  0  3.697153  0  0  -0.275319  0  3.961439  0  0  -0.283236  0  3.977755  0  -0.121886  0  -0.091751  -0.270133  0  3.950694  0
C  C59  1  0.93323258  0.74732442  0.99988842  1  0  -0.241201  0  3.697193  0  0  -0.275502  0  3.961483  0  0  -0.283421  0  3.977809  0  -0.12157  0  -0.091749  -0.270322  0  3.950733  0
C  C60  1  0.62031900  0.18529838  0.41656224  1  0  0.115467  0  3.795299  0  0  0.118235  0  4.044439  0  0  0.121816  0  4.062513  0  0.571255  0  0.108758  0.115858  0  4.032024  0
C  C61  1  0.12031776  0.31469337  0.08343947  1  0  0.115403  0  3.795254  0  0  0.118111  0  4.044518  0  0  0.121691  0  4.062592  0  0.571182  0  0.10872  0.115735  0  4.032099  0
C  C62  1  0.37969448  0.81469032  0.58343380  1  0  0.115239  0  3.795327  0  0  0.117957  0  4.044596  0  0  0.121538  0  4.062663  0  0.571333  0  0.108623  0.11558  0  4.032179  0
C  C63  1  0.87968473  0.68529950  0.91656030  1  0  0.115687  0  3.795105  0  0  0.118288  0  4.0444  0  0  0.121878  0  4.062481  0  0.571176  0  0.108757  0.11591  0  4.031983  0
C  C64  1  0.86681999  0.86848834  0.43059359  1  0  0.629758  0  3.878353  0  0  0.576566  0  4.181491  0  0  0.609834  0  4.173812  0  1.570881  0  0.221144  0.553894  0  4.185941  0
C  C65  1  0.36681463  0.63151397  0.06940859  1  0  0.629593  0  3.878414  0  0  0.576449  0  4.181502  0  0  0.609682  0  4.17387  0  1.571019  0  0.221155  0.553798  0  4.185925  0
C  C66  1  0.13318936  0.13151598  0.56940785  1  0  0.629774  0  3.878203  0  0  0.576646  0  4.181235  0  0  0.609913  0  4.173552  0  1.571176  0  0.221251  0.553977  0  4.185684  0
C  C67  1  0.63318649  0.36848618  0.93059287  1  0  0.629466  0  3.878533  0  0  0.576253  0  4.181678  0  0  0.609519  0  4.174001  0  1.57122  0  0.221102  0.553584  0  4.186122  0
C  C68  1  0.57590193  0.25072438  0.34270750  1  0  0.668796  0  3.853784  0  0  0.621139  0  4.14596  0  0  0.657216  0  4.136211  0  1.572186  0  0.240041  0.596293  0  4.152027  0
C  C69  1  0.07589519  0.24927153  0.15729607  1  0  0.668878  0  3.854081  0  0  0.621214  0  4.146299  0  0  0.657296  0  4.136544  0  1.57156  0  0.240052  0.596367  0  4.152366  0
C  C70  1  0.42411292  0.74927681  0.65728973  1  0  0.669003  0  3.853966  0  0  0.621301  0  4.146206  0  0  0.657385  0  4.136443  0  1.57139  0  0.240087  0.596456  0  4.152273  0
C  C71  1  0.92411554  0.75072133  0.84270370  1  0  0.668591  0  3.854084  0  0  0.621154  0  4.146002  0  0  0.657209  0  4.136286  0  1.571678  0  0.240087  0.59631  0  4.152065  0
N  N72  1  0.71773421  0.06616907  0.39638526  1  0  -0.426213  0  3.262123  0  0  -0.386688  0  3.520331  0  0  -0.406999  0  3.544118  0  -1.275294  0  -0.396005  -0.372017  0  3.503359  0
N  N73  1  0.21773434  0.43382476  0.10361863  1  0  -0.426191  0  3.261722  0  0  -0.386612  0  3.519939  0  0  -0.406921  0  3.543725  0  -1.274863  0  -0.396005  -0.371939  0  3.502969  0
N  N74  1  0.28227102  0.93382692  0.60361434  1  0  -0.426135  0  3.261866  0  0  -0.386601  0  3.520069  0  0  -0.406912  0  3.543856  0  -1.275238  0  -0.395937  -0.371927  0  3.503095  0
N  N75  1  0.78226540  0.56617123  0.89638285  1  0  -0.426324  0  3.261982  0  0  -0.386761  0  3.520212  0  0  -0.407076  0  3.543996  0  -1.275136  0  -0.396058  -0.372085  0  3.503238  0
O  O76  1  0.19970228  0.93674510  0.19716711  1  0  -0.865553  0  1.848923  0  0  -0.818694  0  2.037979  0  0  -0.8413  0  2.004174  0  -1.257234  0  -0.628208  -0.802254  0  2.061853  0
O  O77  1  0.69969527  0.56326137  0.30282315  1  0  -0.865477  0  1.848881  0  0  -0.81862  0  2.038045  0  0  -0.841215  0  2.004218  0  -1.257297  0  -0.628158  -0.802178  0  2.061922  0
O  O78  1  0.80030158  0.06325193  0.80283578  1  0  -0.865636  0  1.848719  0  0  -0.818782  0  2.037834  0  0  -0.841386  0  2.00404  0  -1.257246  0  -0.628235  -0.802345  0  2.061706  0
O  O79  1  0.30028797  0.43675231  0.69715961  1  0  -0.865623  0  1.848806  0  0  -0.818763  0  2.037855  0  0  -0.841377  0  2.004084  0  -1.257293  0  -0.628285  -0.802325  0  2.061729  0
O  O80  1  0.07671015  0.15195783  0.34306909  1  0  -0.898401  0  1.851042  0  0  -0.850232  0  2.041434  0  0  -0.876437  0  2.007811  0  -1.298209  0  -0.635412  -0.831025  0  2.064885  0
O  O81  1  0.57670177  0.34803288  0.15692996  1  0  -0.898468  0  1.850995  0  0  -0.850347  0  2.041374  0  0  -0.876551  0  2.007845  0  -1.298312  0  -0.635504  -0.831146  0  2.064823  0
O  O82  1  0.92329784  0.84802879  0.65692978  1  0  -0.898376  0  1.851009  0  0  -0.850221  0  2.041368  0  0  -0.876451  0  2.00783  0  -1.298448  0  -0.635419  -0.831025  0  2.0648  0
O  O83  1  0.42330621  0.65195999  0.84307420  1  0  -0.898413  0  1.851053  0  0  -0.85023  0  2.041497  0  0  -0.876448  0  2.007891  0  -1.298273  0  -0.635409  -0.831025  0  2.064943  0
O  O84  1  0.55028516  0.88409188  0.24384824  1  0  -0.901219  0  1.939865  0  0  -0.850805  0  2.14245  0  0  -0.879616  0  2.110355  0  -1.305258  0  -0.637199  -0.829745  0  2.16462  0
O  O85  1  0.05028529  0.61590731  0.25614973  1  0  -0.901184  0  1.939996  0  0  -0.850813  0  2.142445  0  0  -0.879626  0  2.110344  0  -1.305006  0  -0.637194  -0.829773  0  2.164659  0
O  O86  1  0.44971870  0.11591140  0.75615493  1  0  -0.901058  0  1.939959  0  0  -0.850696  0  2.142462  0  0  -0.879506  0  2.110371  0  -1.305213  0  -0.637131  -0.829629  0  2.164617  0
O  O87  1  0.94971033  0.38409700  0.74384670  1  0  -0.901096  0  1.940008  0  0  -0.850682  0  2.142526  0  0  -0.87949  0  2.110429  0  -1.304917  0  -0.637225  -0.829642  0  2.164732  0
O  O88  1  0.64739253  0.96310553  0.09371182  1  0  -0.834522  0  1.816351  0  0  -0.788395  0  1.995105  0  0  -0.809545  0  1.966245  0  -1.23123  0  -0.58704  -0.773149  0  2.015646  0
O  O89  1  0.14739128  0.53690094  0.40629724  1  0  -0.834698  0  1.816173  0  0  -0.788644  0  1.994915  0  0  -0.809787  0  1.966047  0  -1.230966  0  -0.587262  -0.773406  0  2.015457  0
O  O90  1  0.35260859  0.03690607  0.90629319  1  0  -0.834621  0  1.816147  0  0  -0.788561  0  1.994854  0  0  -0.809705  0  1.965988  0  -1.230976  0  -0.5872  -0.773321  0  2.015391  0
O  O91  1  0.85259334  0.46310858  0.59370809  1  0  -0.834665  0  1.816204  0  0  -0.788554  0  1.995046  0  0  -0.809696  0  1.966173  0  -1.231234  0  -0.587117  -0.773312  0  2.015598  0
O  O92  1  0.91868709  0.84363903  0.35107214  1  0  -0.698348  0  2.07317  0  0  -0.636765  0  2.319643  0  0  -0.668832  0  2.310633  0  -1.203134  0  -0.359077  -0.613859  0  2.325069  0
O  O93  1  0.41869135  0.65636224  0.14893491  1  0  -0.698413  0  2.073067  0  0  -0.636791  0  2.319486  0  0  -0.66885  0  2.310509  0  -1.203064  0  -0.359093  -0.613894  0  2.324908  0
O  O94  1  0.08130577  0.15637049  0.64892944  1  0  -0.698402  0  2.072984  0  0  -0.636911  0  2.319505  0  0  -0.66896  0  2.310476  0  -1.203107  0  -0.359155  -0.614004  0  2.324932  0
O  O95  1  0.58130977  0.34363583  0.85107690  1  0  -0.698227  0  2.0734  0  0  -0.636599  0  2.319816  0  0  -0.668678  0  2.310844  0  -1.203475  0  -0.359067  -0.613695  0  2.325236  0
O  O96  1  0.90068801  0.78852554  0.47960213  1  0  -0.608056  0  1.945119  0  0  -0.549815  0  2.159357  0  0  -0.573594  0  2.149291  0  -1.190736  0  -0.298261  -0.533151  0  2.166092  0
O  O97  1  0.40068677  0.71146428  0.02040325  1  0  -0.607835  0  1.945317  0  0  -0.549656  0  2.159604  0  0  -0.57342  0  2.149557  0  -1.190877  0  -0.29821  -0.532999  0  2.166329  0
O  O98  1  0.09931997  0.21146837  0.52039905  1  0  -0.607983  0  1.945195  0  0  -0.549802  0  2.159456  0  0  -0.573587  0  2.149397  0  -1.19097  0  -0.298247  -0.533138  0  2.166186  0
O  O99  1  0.59929786  0.28852755  0.97960201  1  0  -0.607938  0  1.94515  0  0  -0.549724  0  2.15942  0  0  -0.573502  0  2.14936  0  -1.190725  0  -0.298236  -0.533058  0  2.166149  0
O  O100  1  0.65587877  0.19807428  0.27100966  1  0  -0.676737  0  2.049345  0  0  -0.620227  0  2.287742  0  0  -0.652899  0  2.277913  0  -1.190873  0  -0.35776  -0.596823  0  2.293798  0
O  O101  1  0.15584592  0.30192580  0.22899201  1  0  -0.676788  0  2.049608  0  0  -0.620253  0  2.288035  0  0  -0.652921  0  2.278202  0  -1.191043  0  -0.357807  -0.596847  0  2.294093  0
O  O102  1  0.34413746  0.80190090  0.72898065  1  0  -0.67684  0  2.04958  0  0  -0.620261  0  2.287988  0  0  -0.652929  0  2.278156  0  -1.191004  0  -0.357824  -0.596858  0  2.294046  0
O  O103  1  0.84411671  0.69806915  0.77101183  1  0  -0.676788  0  2.049335  0  0  -0.620349  0  2.287679  0  0  -0.653009  0  2.277861  0  -1.190396  0  -0.357884  -0.59694  0  2.293734  0
O  O104  1  0.46502280  0.35203550  0.35542021  1  0  -0.660755  0  1.976312  0  0  -0.613139  0  2.221927  0  0  -0.644017  0  2.211287  0  -1.181992  0  -0.362925  -0.59103  0  2.228609  0
O  O105  1  0.96499793  0.14795417  0.14457744  1  0  -0.660854  0  1.97634  0  0  -0.613271  0  2.221984  0  0  -0.644158  0  2.211343  0  -1.181356  0  -0.362946  -0.591161  0  2.228667  0
O  O106  1  0.53500855  0.64795529  0.64456173  1  0  -0.660895  0  1.976047  0  0  -0.613277  0  2.221695  0  0  -0.64416  0  2.211055  0  -1.181231  0  -0.362899  -0.591162  0  2.228366  0
O  O107  1  0.03500043  0.85202100  0.85541287  1  0  -0.66059  0  1.9766  0  0  -0.613097  0  2.222179  0  0  -0.643964  0  2.211544  0  -1.1821  0  -0.362914  -0.590987  0  2.228859  0
O  O108  1  0.57536459  0.24691534  0.64819945  1  0  -0.712635  0  2.066994  0  0  -0.645514  0  2.305592  0  0  -0.677106  0  2.299342  0  -1.223927  0  -0.394966  -0.622346  0  2.308813  0
O  O109  1  0.07535647  0.25308266  0.85179691  1  0  -0.712555  0  2.066904  0  0  -0.645412  0  2.305445  0  0  -0.676991  0  2.299183  0  -1.223762  0  -0.39494  -0.622263  0  2.308715  0
O  O110  1  0.42462553  0.75308585  0.35179528  1  0  -0.712695  0  2.066748  0  0  -0.645518  0  2.30536  0  0  -0.677112  0  2.299103  0  -1.223679  0  -0.394982  -0.622352  0  2.308604  0
O  O111  1  0.92463227  0.74691958  0.14819922  1  0  -0.712655  0  2.067022  0  0  -0.64556  0  2.305612  0  0  -0.677148  0  2.299352  0  -1.223754  0  -0.39503  -0.622385  0  2.30882  0
