# generated using pymatgen
data_ZnH6C15(N2O5)3
_symmetry_space_group_name_H-M   'P 1'
_cell_length_a   10.22448656
_cell_length_b   10.90759626
_cell_length_c   13.03414617
_cell_angle_alpha   108.02163807
_cell_angle_beta   98.56955243
_cell_angle_gamma   92.35626317
_symmetry_Int_Tables_number   1
_chemical_formula_structural   ZnH6C15(N2O5)3
_chemical_formula_sum   'Zn2 H12 C30 N12 O30'
_cell_volume   1360.98791373
_cell_formula_units_Z   2
loop_
 _symmetry_equiv_pos_site_id
 _symmetry_equiv_pos_as_xyz
  1  'x, y, z'
loop_
 _atom_site_type_symbol
 _atom_site_label
 _atom_site_symmetry_multiplicity
 _atom_site_fract_x
 _atom_site_fract_y
 _atom_site_fract_z
 _atom_site_occupancy
 _atom_site_pbe_bader_charge
 _atom_site_pbe_bader_spin_density
 _atom_site_pbe_cm5_charge
 _atom_site_pbe_ddec_charge
 _atom_site_pbe_ddec_spin_density
 _atom_site_pbe_ddec_sum_bond_order
 _atom_site_pbe_magmom
Zn  Zn0  1  0.35942820  0.47005848  0.47236751  1  1.308783  0  0.691431  0.866139  0  2.279024  0
Zn  Zn1  1  0.64668922  0.50346484  0.48981166  1  1.304011  0  0.683375  0.875018  0  2.296278  0
H  H2  1  0.70231247  0.65555736  0.85486959  1  0.165035  0  0.118439  0.135708  0  1.020267  0
H  H3  1  0.33846755  0.41076155  0.77895514  1  0.143191  0  0.112164  0.121313  0  1.050006  0
H  H4  1  0.75663928  0.13250638  0.50067788  1  0.159117  0  0.124859  0.144974  0  0.972431  0
H  H5  1  0.24477349  0.89482577  0.53950686  1  0.103263  0  0.118645  0.080958  0  0.962795  0
H  H6  1  0.18434636  0.51896522  0.72931512  1  0.176692  0  0.123603  0.169057  0  1.000435  0
H  H7  1  0.19609368  0.67560415  0.71075831  1  0.164153  0  0.132522  0.179991  0  0.940953  0
H  H8  1  0.09530515  0.63562793  0.31279913  1  0.071217  0  0.09795  0.1082  0  1.019436  0
H  H9  1  0.03557516  0.79353224  0.34104021  1  0.116395  0  0.102543  0.123099  0  1.002917  0
H  H10  1  0.08802484  0.73245197  0.45159042  1  0.016286  0  0.084114  0.077856  0  1.022393  0
H  H11  1  0.01316295  0.37974838  0.02760370  1  0.120572  0  0.112632  0.130426  0  0.987862  0
H  H12  1  0.06922237  0.53677308  0.02230091  1  0.082278  0  0.106347  0.118127  0  1.005329  0
H  H13  1  0.99463295  0.52420437  0.13480263  1  0.089495  0  0.11161  0.130481  0  0.98792  0
C  C14  1  0.56299865  0.74321543  0.52687938  1  1.610271  0  0.214046  0.605193  0  4.160486  0
C  C15  1  0.50940355  0.51075582  0.68514048  1  1.576472  0  0.226756  0.607853  0  4.128667  0
C  C16  1  0.53192716  0.24950773  0.45554752  1  1.616155  0  0.227176  0.615254  0  4.140668  0
C  C17  1  0.43178620  0.51523538  0.29147227  1  1.638828  0  0.229904  0.625918  0  4.115477  0
C  C18  1  0.41702058  0.53241027  0.17928618  1  0.039287  0  0.008567  -0.130276  0  3.817537  0
C  C19  1  0.51905718  0.52828556  0.80485294  1  -0.019255  0  -0.001615  0.013767  0  3.952174  0
C  C20  1  0.62358750  0.63271083  0.99165553  1  0.162225  0  0.086995  0.049155  0  3.89594  0
C  C21  1  0.62419592  0.60836449  0.88161628  1  0.073272  0  -0.068052  -0.130856  0  3.91309  0
C  C22  1  0.41805861  0.47252299  0.83978920  1  -0.010206  0  -0.076972  -0.139189  0  3.909389  0
C  C23  1  0.41484032  0.49698494  0.95248809  1  0.05816  0  0.012453  0.082912  0  3.981577  0
C  C24  1  0.52321363  0.57554753  0.03265971  1  0.081399  0  0.007995  -0.021476  0  3.937631  0
C  C25  1  0.52285704  0.58112772  0.14336843  1  0.23074  0  0.10145  0.053987  0  3.856481  0
C  C26  1  0.29674915  0.48328694  0.10157627  1  0.712725  0  0.128679  0.243248  0  3.994739  0
C  C27  1  0.30538809  0.44998395  0.99016018  1  0.201881  0  0.065706  -0.109676  0  3.877604  0
C  C28  1  0.43870549  0.92272620  0.48673795  1  0.006802  0  0.009389  0.035225  0  3.862675  0
C  C29  1  0.55926562  0.87580007  0.51540666  1  0.111349  0  0.01448  -0.064059  0  3.851422  0
C  C30  1  0.67113026  0.95833868  0.51959008  1  0.185345  0  0.104321  0.087619  0  3.861665  0
C  C31  1  0.66512865  0.07537840  0.49710874  1  0.032059  0  -0.052682  -0.111309  0  3.848933  0
C  C32  1  0.54256213  0.12092684  0.47145242  1  0.01053  0  0.00913  -0.00643  0  3.918623  0
C  C33  1  0.43147494  0.04014824  0.46693859  1  0.025399  0  -0.002106  -0.013972  0  3.986084  0
C  C34  1  0.28318560  0.03028285  0.44188089  1  0.467909  0  0.166372  -0.00611  0  3.652107  0
C  C35  1  0.28882746  0.89013851  0.46619265  1  0.598513  0  0.040474  0.09141  0  3.829494  0
C  C36  1  0.96123666  0.52734655  0.56486419  1  0.601786  0  0.148814  0.118133  0  3.862658  0
C  C37  1  0.91100568  0.39891396  0.39224368  1  0.852876  0  0.247455  0.158002  0  3.820304  0
C  C38  1  0.04750473  0.39286781  0.38792095  1  0.82726  0  0.243363  0.146558  0  3.848913  0
C  C39  1  0.09597671  0.51533325  0.56319345  1  0.553961  0  0.160077  0.24337  0  3.850773  0
C  C40  1  0.13866473  0.58084359  0.68466603  1  -0.034216  0  -0.129531  -0.300097  0  3.764614  0
C  C41  1  0.98628058  0.59089839  0.68814929  1  0.413169  0  0.175475  0.05491  0  3.62702  0
C  C42  1  0.10624401  0.73401512  0.37070459  1  0.360772  0  -0.14855  -0.177532  0  3.87245  0
C  C43  1  0.05731362  0.47777079  0.07547584  1  0.326536  0  -0.136158  -0.192631  0  3.818112  0
N  N44  1  0.86446944  0.47250838  0.48022205  1  -1.155004  0  -0.243725  -0.169329  0  3.335776  0
N  N45  1  0.14326078  0.45198112  0.47352400  1  -1.144132  0  -0.255318  -0.204062  0  3.39245  0
N  N46  1  0.64281907  0.64292363  0.22572761  1  0.426196  0  0.057452  0.515066  0  4.238797  0
N  N47  1  0.22321137  0.01162769  0.32376610  1  0.468663  0  0.057072  0.494916  0  4.217575  0
N  N48  1  0.81167016  0.30797701  0.30232817  1  0.460992  0  0.062231  0.463918  0  4.30918  0
N  N49  1  0.09030543  0.31454768  0.28476841  1  0.459114  0  0.069659  0.478238  0  4.226669  0
N  N50  1  0.93015517  0.50317647  0.74775456  1  0.525701  0  0.069461  0.487012  0  4.201299  0
N  N51  1  0.94564472  0.72743039  0.74067127  1  0.472875  0  0.068564  0.481915  0  4.206422  0
N  N52  1  0.72623422  0.73535546  0.06385201  1  0.423092  0  0.0542  0.501904  0  4.242236  0
N  N53  1  0.20166123  0.35650333  0.91172027  1  0.381323  0  0.053529  0.529176  0  4.221517  0
N  N54  1  0.80720189  0.92737728  0.55328806  1  0.427546  0  0.061046  0.52072  0  4.235126  0
N  N55  1  0.21951095  0.13293723  0.52213075  1  0.46156  0  0.064087  0.511322  0  4.178316  0
O  O56  1  0.45565293  0.68842240  0.53462096  1  -1.163304  0  -0.309707  -0.54839  0  2.213869  0
O  O57  1  0.67447852  0.69285420  0.52158235  1  -1.121612  0  -0.323021  -0.543681  0  2.342706  0
O  O58  1  0.39080269  0.49778964  0.63228500  1  -1.153244  0  -0.310248  -0.532299  0  2.368436  0
O  O59  1  0.61580007  0.51104992  0.64666015  1  -1.159367  0  -0.303674  -0.539736  0  2.347337  0
O  O60  1  0.41661826  0.28890078  0.45073391  1  -1.154874  0  -0.303314  -0.538492  0  2.387272  0
O  O61  1  0.63837354  0.31157397  0.45205694  1  -1.15444  0  -0.312496  -0.545939  0  2.403717  0
O  O62  1  0.32805230  0.51208199  0.33443116  1  -1.122477  0  -0.300992  -0.519618  0  2.418908  0
O  O63  1  0.54672572  0.49742168  0.33198863  1  -1.155394  0  -0.298125  -0.544815  0  2.383264  0
O  O64  1  0.74968706  0.59923419  0.20672944  1  -0.445452  0  -0.119134  -0.319804  0  1.958105  0
O  O65  1  0.62722944  0.73508790  0.30434306  1  -0.411362  0  -0.09594  -0.290512  0  2.030484  0
O  O66  1  0.30203988  0.01575845  0.26177892  1  -0.422137  0  -0.108455  -0.282918  0  1.905387  0
O  O67  1  0.10170633  0.98775402  0.29880943  1  -0.409174  0  -0.10877  -0.296327  0  1.957578  0
O  O68  1  0.24158731  0.78215011  0.37781434  1  -1.050386  0  -0.207193  -0.14986  0  2.55019  0
O  O69  1  0.73641202  0.35330492  0.24452723  1  -0.360713  0  -0.07437  -0.233675  0  2.005246  0
O  O70  1  0.81700246  0.19440373  0.29959933  1  -0.365822  0  -0.074746  -0.237479  0  1.903308  0
O  O71  1  0.19926584  0.27259415  0.29327236  1  -0.386239  0  -0.069501  -0.241356  0  2.0607  0
O  O72  1  0.01065615  0.30016029  0.19994097  1  -0.403222  0  -0.081245  -0.266645  0  1.973752  0
O  O73  1  0.93904836  0.55151075  0.84719173  1  -0.408998  0  -0.083728  -0.27379  0  2.010624  0
O  O74  1  0.88692131  0.39272879  0.69060075  1  -0.397999  0  -0.08513  -0.256623  0  1.941802  0
O  O75  1  0.03494501  0.81597401  0.77410109  1  -0.341983  0  -0.080521  -0.252215  0  1.915019  0
O  O76  1  0.82679876  0.73322704  0.74450226  1  -0.403293  0  -0.081032  -0.252023  0  2.010073  0
O  O77  1  0.18445943  0.47347748  0.14039379  1  -1.044026  0  -0.158032  -0.118753  0  2.631424  0
O  O78  1  0.84175630  0.72714760  0.04693409  1  -0.438141  0  -0.119488  -0.30501  0  1.910529  0
O  O79  1  0.68569139  0.82564096  0.13203187  1  -0.424386  0  -0.120212  -0.305712  0  1.903048  0
O  O80  1  0.15240972  0.37717968  0.82606905  1  -0.47618  0  -0.134133  -0.353451  0  2.023008  0
O  O81  1  0.17038543  0.25960069  0.93606336  1  -0.415726  0  -0.105759  -0.292056  0  1.876313  0
O  O82  1  0.88086716  0.90341170  0.48386892  1  -0.445844  0  -0.120569  -0.320708  0  1.930911  0
O  O83  1  0.83810441  0.93452507  0.65028470  1  -0.417077  0  -0.119993  -0.315228  0  1.953253  0
O  O84  1  0.12570149  0.18656284  0.49001034  1  -0.450988  0  -0.123376  -0.317713  0  1.997621  0
O  O85  1  0.27062340  0.15337600  0.61879526  1  -0.436561  0  -0.119  -0.306218  0  1.901251  0
