# generated using pymatgen
data_ZnH7C5N3O2
_symmetry_space_group_name_H-M   'P 1'
_cell_length_a   11.24289142
_cell_length_b   12.25155231
_cell_length_c   12.25078418
_cell_angle_alpha   111.08163459
_cell_angle_beta   107.79831060
_cell_angle_gamma   107.82900887
_symmetry_Int_Tables_number   1
_chemical_formula_structural   ZnH7C5N3O2
_chemical_formula_sum   'Zn6 H42 C30 N18 O12'
_cell_volume   1324.53480278
_cell_formula_units_Z   6
loop_
 _symmetry_equiv_pos_site_id
 _symmetry_equiv_pos_as_xyz
  1  'x, y, z'
loop_
 _atom_site_type_symbol
 _atom_site_label
 _atom_site_symmetry_multiplicity
 _atom_site_fract_x
 _atom_site_fract_y
 _atom_site_fract_z
 _atom_site_occupancy
 _atom_site_pbe_bader_charge
 _atom_site_pbe_bader_spin_density
 _atom_site_pbe_cm5_charge
 _atom_site_pbe_ddec_charge
 _atom_site_pbe_ddec_spin_density
 _atom_site_pbe_ddec_sum_bond_order
 _atom_site_pbe_magmom
Zn  Zn0  1  0.63108607  0.47752113  0.94219482  1  1.223694  0  0.716198  0.708487  0  2.447716  0
Zn  Zn1  1  0.15360578  0.46473741  0.52266519  1  1.223668  0  0.716263  0.707767  0  2.447761  0
Zn  Zn2  1  0.68881791  0.05783849  0.53528022  1  1.227911  0  0.716042  0.70824  0  2.447195  0
Zn  Zn3  1  0.36891560  0.52247923  0.05780655  1  1.223682  0  0.716177  0.708427  0  2.447789  0
Zn  Zn4  1  0.84639259  0.53526196  0.47733408  1  1.223636  0  0.716254  0.70776  0  2.447774  0
Zn  Zn5  1  0.31118326  0.94216088  0.46472147  1  1.227884  0  0.716053  0.708259  0  2.447123  0
H  H6  1  0.19131233  0.60031918  0.93083989  1  0.040798  0  0.1024  0.151545  0  1.012659  0
H  H7  1  0.18137550  0.65796570  0.81598985  1  0.122122  0  0.111133  0.185113  0  0.977644  0
H  H8  1  0.06992084  0.49240255  0.75992112  1  0.071882  0  0.100308  0.149988  0  1.01638  0
H  H9  1  0.57413218  0.44363151  0.68776932  1  0.031732  0  0.098055  0.139151  0  1.024361  0
H  H10  1  0.40694866  0.36724918  0.54387191  1  0.126543  0  0.105801  0.168034  0  0.994779  0
H  H11  1  0.52283821  0.53744593  0.62041934  1  0.083024  0  0.108958  0.166828  0  0.983255  0
H  H12  1  0.96091628  0.78830053  0.06517355  1  0.056343  0  0.107827  0.025399  0  0.96934  0
H  H13  1  0.59094347  0.33062115  0.39992986  1  0.061877  0  0.102737  0.151572  0  1.012729  0
H  H14  1  0.52322365  0.15808914  0.34226033  1  0.138581  0  0.111208  0.185207  0  0.977492  0
H  H15  1  0.57752918  0.26761589  0.50785725  1  0.075017  0  0.100263  0.149688  0  1.017342  0
H  H16  1  0.13039813  0.24434693  0.55641670  1  0.048845  0  0.097841  0.139172  0  1.024647  0
H  H17  1  0.03960956  0.17676918  0.63280277  1  0.106249  0  0.105824  0.168029  0  0.995699  0
H  H18  1  0.98530814  0.08309934  0.46262945  1  0.076059  0  0.109034  0.166776  0  0.984307  0
H  H19  1  0.17246009  0.27696501  0.21192343  1  0.068679  0  0.107833  0.025485  0  0.968488  0
H  H20  1  0.26038769  0.06934178  0.66948726  1  0.08593  0  0.102644  0.151678  0  1.01263  0
H  H21  1  0.36521610  0.18421356  0.84197994  1  0.142809  0  0.111048  0.185081  0  0.976767  0
H  H22  1  0.30994343  0.24026476  0.73247800  1  0.059226  0  0.100476  0.150027  0  1.016898  0
H  H23  1  0.88623701  0.31208952  0.75567217  1  0.048731  0  0.097778  0.139022  0  1.024317  0
H  H24  1  0.86317500  0.45609944  0.82328318  1  0.109356  0  0.105797  0.16818  0  0.99478  0
H  H25  1  0.90246792  0.37955758  0.91692739  1  0.096611  0  0.109106  0.167087  0  0.983467  0
H  H26  1  0.89571739  0.93520026  0.72326971  1  0.072093  0  0.107725  0.024889  0  0.969232  0
H  H27  1  0.80868499  0.39967623  0.06915929  1  0.040801  0  0.102395  0.151546  0  1.01262  0
H  H28  1  0.81862375  0.34203169  0.18401140  1  0.12208  0  0.11112  0.185075  0  0.977632  0
H  H29  1  0.93007885  0.50759385  0.24007664  1  0.071913  0  0.100303  0.149987  0  1.016351  0
H  H30  1  0.42586657  0.55636489  0.31223062  1  0.032085  0  0.098043  0.139107  0  1.024413  0
H  H31  1  0.59305010  0.63274722  0.45612885  1  0.126596  0  0.105792  0.167961  0  0.994762  0
H  H32  1  0.47715912  0.46254948  0.37957821  1  0.083041  0  0.108925  0.166767  0  0.983287  0
H  H33  1  0.03909007  0.21169984  0.93482506  1  0.056256  0  0.107845  0.025428  0  0.969289  0
H  H34  1  0.40905678  0.66937822  0.60006912  1  0.061892  0  0.102733  0.151571  0  1.012648  0
H  H35  1  0.47677143  0.84190924  0.65773765  1  0.138636  0  0.111209  0.185209  0  0.97752  0
H  H36  1  0.42246876  0.73238447  0.49214225  1  0.075008  0  0.100262  0.149662  0  1.017319  0
H  H37  1  0.86960030  0.75565442  0.44358329  1  0.048853  0  0.097837  0.139173  0  1.024632  0
H  H38  1  0.96039025  0.82323119  0.36719725  1  0.10637  0  0.105832  0.168059  0  0.995709  0
H  H39  1  0.01469266  0.91690300  0.53736912  1  0.076048  0  0.109039  0.166791  0  0.984287  0
H  H40  1  0.82754600  0.72304228  0.78807433  1  0.068713  0  0.107821  0.025478  0  0.968466  0
H  H41  1  0.73961349  0.93065759  0.33051198  1  0.085934  0  0.102644  0.151671  0  1.012641  0
H  H42  1  0.63478365  0.81578482  0.15802099  1  0.142839  0  0.111044  0.18506  0  0.976727  0
H  H43  1  0.69005725  0.75973362  0.26752319  1  0.059182  0  0.100468  0.150039  0  1.016898  0
H  H44  1  0.11376423  0.68791184  0.24432861  1  0.048405  0  0.09777  0.139017  0  1.024299  0
H  H45  1  0.13682294  0.54390092  0.17671387  1  0.109392  0  0.105803  0.168205  0  0.9948  0
H  H46  1  0.09753342  0.62044773  0.08307403  1  0.09661  0  0.109139  0.167152  0  0.983387  0
H  H47  1  0.10428349  0.06480604  0.27674255  1  0.072071  0  0.107716  0.024833  0  0.969317  0
C  C48  1  0.17693342  0.57397598  0.83071578  1  -0.032277  0  -0.23487  -0.482025  0  3.925204  0
C  C49  1  0.28532679  0.53748663  0.81037151  1  0.983055  0  0.226909  0.403414  0  3.99802  0
C  C50  1  0.41797640  0.48701569  0.72753380  1  0.979325  0  0.228846  0.403482  0  3.974277  0
C  C51  1  0.48384287  0.45650349  0.64018230  1  -0.049552  0  -0.232075  -0.476827  0  3.917166  0
C  C52  1  0.85373240  0.72094039  0.04301199  1  1.559546  0  0.124396  0.458996  0  4.30177  0
C  C53  1  0.60286451  0.25681380  0.42621876  1  -0.064011  0  -0.23513  -0.482221  0  3.924765  0
C  C54  1  0.74771918  0.27289737  0.46259535  1  0.988691  0  0.2274  0.405077  0  3.992607  0
C  C55  1  0.93085650  0.24058549  0.51302214  1  0.990119  0  0.228729  0.404118  0  3.973103  0
C  C56  1  0.02722822  0.18378974  0.54355161  1  -0.048173  0  -0.231549  -0.476581  0  3.918017  0
C  C57  1  0.13279957  0.32221648  0.27939667  1  1.549199  0  0.124399  0.458877  0  4.299702  0
C  C58  1  0.34613740  0.16946527  0.74326772  1  -0.071291  0  -0.23566  -0.483212  0  3.923807  0
C  C59  1  0.47490293  0.18978927  0.72715110  1  0.976717  0  0.227217  0.405482  0  3.99215  0
C  C60  1  0.69042773  0.27250946  0.75948192  1  0.991894  0  0.228835  0.404041  0  3.971973  0
C  C61  1  0.84363792  0.35978817  0.81624631  1  -0.073866  0  -0.231982  -0.477298  0  3.916009  0
C  C62  1  0.81070738  0.95729810  0.67804224  1  1.543252  0  0.124796  0.46053  0  4.298659  0
C  C63  1  0.82306633  0.42602240  0.16928433  1  -0.032276  0  -0.234847  -0.481967  0  3.925059  0
C  C64  1  0.71467345  0.46251274  0.18962910  1  0.983056  0  0.226922  0.403404  0  3.997979  0
C  C65  1  0.58202192  0.51298171  0.27246474  1  0.979379  0  0.228902  0.403511  0  3.974199  0
C  C66  1  0.51615358  0.54349391  0.35981735  1  -0.049962  0  -0.232044  -0.47663  0  3.917093  0
C  C67  1  0.14627401  0.27906195  0.95698735  1  1.559695  0  0.124372  0.458924  0  4.301709  0
C  C68  1  0.39713392  0.74318755  0.57378123  1  -0.064011  0  -0.235129  -0.482171  0  3.924596  0
C  C69  1  0.25227776  0.72710101  0.53740316  1  0.988694  0  0.227361  0.40494  0  3.992636  0
C  C70  1  0.06914330  0.75941487  0.48697788  1  0.990314  0  0.228753  0.404149  0  3.973058  0
C  C71  1  0.97277209  0.81621162  0.45644810  1  -0.048284  0  -0.231564  -0.476651  0  3.917994  0
C  C72  1  0.86719799  0.67778686  0.72059889  1  1.549176  0  0.124391  0.458774  0  4.299568  0
C  C73  1  0.65386328  0.83053311  0.25673347  1  -0.071245  0  -0.235653  -0.483211  0  3.923864  0
C  C74  1  0.52509967  0.81021109  0.27285134  1  0.976772  0  0.227241  0.40552  0  3.992221  0
C  C75  1  0.30957395  0.72749091  0.24051781  1  0.991953  0  0.228774  0.404012  0  3.971996  0
C  C76  1  0.15636145  0.64021318  0.18375232  1  -0.073586  0  -0.23199  -0.477377  0  3.915898  0
C  C77  1  0.18928961  0.04270227  0.32196352  1  1.542831  0  0.124874  0.460696  0  4.298512  0
N  N78  1  0.46508933  0.49717499  0.84669891  1  -0.794382  0  -0.258925  -0.254227  0  3.506294  0
N  N79  1  0.38051800  0.52898756  0.89925470  1  -0.805133  0  -0.260486  -0.254432  0  3.488471  0
N  N80  1  0.30422760  0.51043261  0.70077018  1  -1.235763  0  -0.355689  -0.437463  0  3.400883  0
N  N81  1  0.96781470  0.34957468  0.50286289  1  -0.806668  0  -0.25877  -0.254407  0  3.506764  0
N  N82  1  0.85144679  0.37030835  0.47106080  1  -0.804836  0  -0.260828  -0.254211  0  3.484585  0
N  N83  1  0.79363549  0.19035772  0.48960940  1  -1.240528  0  -0.35639  -0.439364  0  3.399835  0
N  N84  1  0.61832220  0.15334253  0.65048782  1  -0.793273  0  -0.258343  -0.254271  0  3.505159  0
N  N85  1  0.48118777  0.10084850  0.62975395  1  -0.817997  0  -0.260461  -0.254379  0  3.483027  0
N  N86  1  0.60344989  0.29935173  0.80969563  1  -1.236633  0  -0.355832  -0.438756  0  3.399093  0
N  N87  1  0.53491091  0.50282438  0.15330251  1  -0.794422  0  -0.258935  -0.254279  0  3.506293  0
N  N88  1  0.61948367  0.47101281  0.10074585  1  -0.805102  0  -0.260492  -0.254364  0  3.488431  0
N  N89  1  0.69577171  0.48956677  0.29923017  1  -1.235798  0  -0.355707  -0.437512  0  3.400944  0
N  N90  1  0.03218274  0.65042469  0.49713611  1  -0.806712  0  -0.258759  -0.25437  0  3.506722  0
N  N91  1  0.14854966  0.62968904  0.52893721  1  -0.804824  0  -0.260805  -0.254179  0  3.484618  0
N  N92  1  0.20636338  0.80964265  0.51039117  1  -1.240687  0  -0.356405  -0.439323  0  3.399797  0
N  N93  1  0.38167897  0.84665684  0.34951387  1  -0.793261  0  -0.25837  -0.2543  0  3.505102  0
N  N94  1  0.51881478  0.89914989  0.37024778  1  -0.818058  0  -0.260482  -0.254428  0  3.483124  0
N  N95  1  0.39655128  0.70064764  0.19030524  1  -1.236697  0  -0.355779  -0.438672  0  3.399181  0
O  O96  1  0.82176931  0.59605437  0.98402853  1  -1.181325  0  -0.353304  -0.537136  0  2.38216  0
O  O97  1  0.77669456  0.76554169  0.07365446  1  -1.18033  0  -0.335557  -0.518138  0  2.190559  0
O  O98  1  0.22578287  0.38788617  0.40423048  1  -1.180732  0  -0.353632  -0.537324  0  2.380894  0
O  O99  1  0.01127425  0.30854452  0.23499921  1  -1.181973  0  -0.335151  -0.51788  0  2.191449  0
O  O100  1  0.83768619  0.01611178  0.61199461  1  -1.18031  0  -0.353408  -0.537542  0  2.380871  0
O  O101  1  0.70305497  0.92678201  0.69210113  1  -1.180588  0  -0.33576  -0.51876  0  2.18926  0
O  O102  1  0.17823242  0.40394798  0.01597275  1  -1.181309  0  -0.353323  -0.53713  0  2.382113  0
O  O103  1  0.22331153  0.23446560  0.92634411  1  -1.180371  0  -0.335528  -0.518075  0  2.190604  0
O  O104  1  0.77421314  0.61211221  0.59576694  1  -1.180801  0  -0.353647  -0.537304  0  2.380887  0
O  O105  1  0.98872551  0.69145386  0.76499193  1  -1.181881  0  -0.335131  -0.517793  0  2.191271  0
O  O106  1  0.16231998  0.98389947  0.38802009  1  -1.180037  0  -0.353421  -0.537604  0  2.380769  0
O  O107  1  0.29693604  0.07320449  0.30788980  1  -1.18041  0  -0.335829  -0.518836  0  2.189128  0
