# generated using pymatgen
data_CuH12C8O5
_symmetry_space_group_name_H-M   'P 1'
_cell_length_a   6.82683174
_cell_length_b   8.52501853
_cell_length_c   8.54774800
_cell_angle_alpha   72.50960795
_cell_angle_beta   84.29519642
_cell_angle_gamma   85.43205532
_symmetry_Int_Tables_number   1
_chemical_formula_structural   CuH12C8O5
_chemical_formula_sum   'Cu2 H24 C16 O10'
_cell_volume   471.47044415
_cell_formula_units_Z   2
loop_
 _symmetry_equiv_pos_site_id
 _symmetry_equiv_pos_as_xyz
  1  'x, y, z'
loop_
 _atom_site_type_symbol
 _atom_site_label
 _atom_site_symmetry_multiplicity
 _atom_site_fract_x
 _atom_site_fract_y
 _atom_site_fract_z
 _atom_site_occupancy
 _atom_site_hle17_bader_spin_density
 _atom_site_hle17_ddec_charge
 _atom_site_hle17_ddec_spin_density
 _atom_site_hle17_ddec_sum_bond_order
 _atom_site_hle17_magmom
 _atom_site_hse06_10hf_bader_spin_density
 _atom_site_hse06_10hf_ddec_charge
 _atom_site_hse06_10hf_ddec_spin_density
 _atom_site_hse06_10hf_ddec_sum_bond_order
 _atom_site_hse06_10hf_magmom
 _atom_site_hse06_bader_spin_density
 _atom_site_hse06_ddec_charge
 _atom_site_hse06_ddec_spin_density
 _atom_site_hse06_ddec_sum_bond_order
 _atom_site_hse06_magmom
 _atom_site_pbe_bader_spin_density
 _atom_site_pbe_cm5_charge
 _atom_site_pbe_ddec_charge
 _atom_site_pbe_ddec_spin_density
 _atom_site_pbe_ddec_sum_bond_order
 _atom_site_pbe_magmom
Cu  Cu0  1  0.16045354  0.96646411  0.07191258  1  0  0.85572  0  1.83796  0  0  0.806439  0  2.258215  0  0  0.848208  0  2.191592  0  0  0.64804  0.780304  0  2.303876  0
Cu  Cu1  1  0.83956728  0.03353233  0.92809651  1  0  0.855979  0  1.838558  0  0  0.806489  0  2.258917  0  0  0.848436  0  2.192211  0  0  0.648122  0.780526  0  2.304271  0
H  H2  1  0.49895673  0.00425409  0.18989671  1  0  0.413174  0  0.880148  0  0  0.389115  0  0.941291  0  0  0.398719  0  0.927181  0  0  0.294866  0.382601  0  0.950816  0
H  H3  1  0.50101091  0.99574612  0.81010596  1  0  0.413228  0  0.880196  0  0  0.38915  0  0.941289  0  0  0.398754  0  0.927179  0  0  0.294898  0.382622  0  0.950838  0
H  H4  1  0.52009018  0.83761644  0.15870783  1  0  0.410845  0  0.885969  0  0  0.386327  0  0.947759  0  0  0.395951  0  0.933613  0  0  0.293467  0.379683  0  0.957553  0
H  H5  1  0.47987452  0.16238378  0.84129390  1  0  0.410767  0  0.886083  0  0  0.386243  0  0.947892  0  0  0.395867  0  0.933746  0  0  0.293359  0.379593  0  0.957696  0
H  H6  1  0.68517888  0.07883102  0.46285427  1  0  0.091956  0  0.897945  0  0  0.106408  0  0.949471  0  0  0.107963  0  0.949731  0  0  0.110765  0.104608  0  0.950159  0
H  H7  1  0.31483144  0.92116915  0.53714633  1  0  0.091946  0  0.897895  0  0  0.10641  0  0.949405  0  0  0.107968  0  0.949664  0  0  0.110762  0.10461  0  0.950093  0
H  H8  1  0.02084723  0.16519773  0.47819661  1  0  0.085956  0  0.938441  0  0  0.101575  0  0.998593  0  0  0.102829  0  0.998758  0  0  0.092264  0.100154  0  0.999285  0
H  H9  1  0.97916322  0.83479995  0.52181056  1  0  0.085949  0  0.938522  0  0  0.101565  0  0.998643  0  0  0.102821  0  0.998808  0  0  0.092268  0.100145  0  0.99933  0
H  H10  1  0.83084139  0.28183322  0.55298437  1  0  0.085746  0  0.944942  0  0  0.099698  0  1.011681  0  0  0.100949  0  1.011619  0  0  0.091607  0.098681  0  1.011945  0
H  H11  1  0.16915886  0.71816326  0.44701808  1  0  0.085686  0  0.944979  0  0  0.099621  0  1.011721  0  0  0.10087  0  1.011664  0  0  0.09158  0.098596  0  1.011996  0
H  H12  1  0.05783758  0.38863678  0.21155798  1  0  0.072164  0  0.927473  0  0  0.09126  0  0.986164  0  0  0.091912  0  0.986834  0  0  0.088944  0.090478  0  0.985838  0
H  H13  1  0.94218310  0.61136212  0.78844921  1  0  0.072165  0  0.927476  0  0  0.091248  0  0.986202  0  0  0.091902  0  0.986868  0  0  0.088954  0.090468  0  0.985874  0
H  H14  1  0.08596329  0.46577977  0.37681253  1  0  0.074182  0  0.949451  0  0  0.091348  0  1.012716  0  0  0.092394  0  1.012955  0  0  0.091284  0.090561  0  1.012515  0
H  H15  1  0.91404708  0.53421914  0.62319663  1  0  0.074128  0  0.949378  0  0  0.091276  0  1.012703  0  0  0.092322  0  1.012942  0  0  0.091224  0.090486  0  1.012508  0
H  H16  1  0.73890853  0.57378043  0.37601363  1  0  0.075457  0  0.906211  0  0  0.091129  0  0.961083  0  0  0.092324  0  0.961529  0  0  0.106909  0.090227  0  0.960876  0
H  H17  1  0.26110202  0.42621605  0.62398921  1  0  0.075479  0  0.906156  0  0  0.091143  0  0.96105  0  0  0.092339  0  0.961492  0  0  0.106926  0.090241  0  0.960839  0
H  H18  1  0.71446121  0.45231787  0.07582479  1  0  0.0775  0  0.923526  0  0  0.096008  0  0.983357  0  0  0.096623  0  0.984215  0  0  0.091505  0.095106  0  0.98305  0
H  H19  1  0.28556257  0.54767858  0.92418055  1  0  0.077475  0  0.923573  0  0  0.09597  0  0.983449  0  0  0.096607  0  0.984284  0  0  0.091522  0.095068  0  0.983137  0
H  H20  1  0.52777993  0.56682603  0.15769656  1  0  0.081508  0  0.930929  0  0  0.100805  0  0.986887  0  0  0.102045  0  0.986953  0  0  0.095199  0.09966  0  0.987082  0
H  H21  1  0.47223474  0.43317538  0.84230217  1  0  0.081482  0  0.930928  0  0  0.100846  0  0.986829  0  0  0.10209  0  0.986897  0  0  0.095195  0.099697  0  0.987031  0
H  H22  1  0.50241412  0.34141584  0.42280029  1  0  0.065281  0  0.933701  0  0  0.081795  0  0.998898  0  0  0.082897  0  0.998483  0  0  0.088184  0.080825  0  0.999404  0
H  H23  1  0.49759902  0.65858682  0.57719468  1  0  0.065334  0  0.933667  0  0  0.081793  0  0.998879  0  0  0.082903  0  0.998461  0  0  0.088187  0.080826  0  0.999376  0
H  H24  1  0.46484789  0.26805051  0.25578255  1  0  0.081989  0  0.92928  0  0  0.099833  0  0.985842  0  0  0.101258  0  0.98573  0  0  0.094613  0.098832  0  0.985907  0
H  H25  1  0.53516104  0.73194843  0.74421851  1  0  0.082075  0  0.929178  0  0  0.099891  0  0.985725  0  0  0.101322  0  0.985601  0  0  0.094606  0.098889  0  0.985792  0
C  C26  1  0.74453745  0.18662211  0.36696169  1  0  -0.098966  0  3.615012  0  0  -0.103263  0  3.861365  0  0  -0.109465  0  3.876687  0  0  -0.080259  -0.098757  0  3.850663  0
C  C27  1  0.25546714  0.81337561  0.63303890  1  0  -0.098913  0  3.615019  0  0  -0.103226  0  3.861307  0  0  -0.109432  0  3.876636  0  0  -0.080279  -0.098721  0  3.850608  0
C  C28  1  0.90000278  0.25728021  0.44042553  1  0  -0.12653  0  3.664959  0  0  -0.171876  0  3.92588  0  0  -0.172432  0  3.939715  0  0  -0.171964  -0.171558  0  3.91691  0
C  C29  1  0.10000623  0.74271750  0.55957472  1  0  -0.126394  0  3.665175  0  0  -0.171686  0  3.926012  0  0  -0.172248  0  3.939856  0  0  -0.171859  -0.171372  0  3.917059  0
C  C30  1  0.97848706  0.41530556  0.32023623  1  0  -0.119152  0  3.675019  0  0  -0.165096  0  3.93534  0  0  -0.16559  0  3.949628  0  0  -0.167975  -0.165103  0  3.925897  0
C  C31  1  0.02152908  0.58469584  0.67976356  1  0  -0.119127  0  3.67518  0  0  -0.165082  0  3.935463  0  0  -0.165576  0  3.949761  0  0  -0.167987  -0.165087  0  3.926017  0
C  C32  1  0.80946255  0.54378012  0.26508388  1  0  -0.096455  0  3.622757  0  0  -0.09867  0  3.865995  0  0  -0.105148  0  3.882346  0  0  -0.079907  -0.094347  0  3.854536  0
C  C33  1  0.19054034  0.45622129  0.73491692  1  0  -0.096462  0  3.622806  0  0  -0.098664  0  3.866099  0  0  -0.105151  0  3.882447  0  0  -0.079896  -0.094339  0  3.854641  0
C  C34  1  0.65136985  0.47583965  0.19096473  1  0  -0.119474  0  3.653546  0  0  -0.165545  0  3.916614  0  0  -0.166064  0  3.930688  0  0  -0.166106  -0.165035  0  3.907158  0
C  C35  1  0.34864364  0.52415681  0.80903906  1  0  -0.11936  0  3.653571  0  0  -0.16552  0  3.916652  0  0  -0.166062  0  3.930743  0  0  -0.166138  -0.165008  0  3.907196  0
C  C36  1  0.57585136  0.31586503  0.31152126  1  0  -0.112027  0  3.66273  0  0  -0.157946  0  3.927793  0  0  -0.158159  0  3.941474  0  0  -0.163146  -0.157877  0  3.918444  0
C  C37  1  0.42415925  0.68413020  0.68848429  1  0  -0.112241  0  3.662729  0  0  -0.157999  0  3.927626  0  0  -0.15822  0  3.941319  0  0  -0.163112  -0.157929  0  3.918274  0
C  C38  1  0.83595141  0.11731969  0.22845665  1  0  0.655941  0  3.780152  0  0  0.608398  0  4.089582  0  0  0.642908  0  4.083427  0  0  0.22318  0.585889  0  4.091912  0
C  C39  1  0.16407830  0.88267679  0.77154005  1  0  0.656075  0  3.779355  0  0  0.608493  0  4.088866  0  0  0.643013  0  4.082705  0  0  0.223165  0.585979  0  4.0912  0
C  C40  1  0.88232420  0.70987013  0.15637423  1  0  0.658005  0  3.787371  0  0  0.611082  0  4.095455  0  0  0.645757  0  4.088927  0  0  0.223561  0.587585  0  4.097728  0
C  C41  1  0.11770368  0.29013123  0.84363169  1  0  0.657828  0  3.786768  0  0  0.610836  0  4.094958  0  0  0.645553  0  4.088381  0  0  0.223349  0.587324  0  4.097243  0
O  O42  1  0.42441289  0.90470971  0.20938786  1  0  -0.797452  0  1.864252  0  0  -0.750904  0  2.045944  0  0  -0.769594  0  2.013077  0  0  -0.592424  -0.737836  0  2.068559  0
O  O43  1  0.57555511  0.09528432  0.79062129  1  0  -0.797487  0  1.864287  0  0  -0.750874  0  2.045815  0  0  -0.769569  0  2.012961  0  0  -0.592383  -0.737826  0  2.068421  0
O  O44  1  0.01435124  0.06397749  0.23571169  1  0  -0.54956  0  2.102834  0  0  -0.511179  0  2.380573  0  0  -0.538088  0  2.36892  0  0  -0.29729  -0.493521  0  2.388666  0
O  O45  1  0.98558798  0.93605481  0.76427197  1  0  -0.549867  0  2.101363  0  0  -0.511397  0  2.379068  0  0  -0.538314  0  2.367415  0  0  -0.297298  -0.493695  0  2.387069  0
O  O46  1  0.72408458  0.11575995  0.11717942  1  0  -0.609441  0  2.148131  0  0  -0.562293  0  2.417261  0  0  -0.589823  0  2.403847  0  0  -0.309164  -0.543545  0  2.425193  0
O  O47  1  0.27589081  0.88423541  0.88280537  1  0  -0.609347  0  2.148714  0  0  -0.562273  0  2.417939  0  0  -0.589795  0  2.404505  0  0  -0.309099  -0.543548  0  2.425934  0
O  O48  1  0.05352572  0.74486300  0.17548839  1  0  -0.551661  0  2.101466  0  0  -0.515058  0  2.37967  0  0  -0.541726  0  2.367418  0  0  -0.297821  -0.496048  0  2.385986  0
O  O49  1  0.94642021  0.25513236  0.82450217  1  0  -0.5517  0  2.099748  0  0  -0.515034  0  2.377969  0  0  -0.541713  0  2.365694  0  0  -0.297613  -0.495995  0  2.38423  0
O  O50  1  0.76147409  0.80393431  0.05955781  1  0  -0.604778  0  2.135681  0  0  -0.559386  0  2.404169  0  0  -0.58674  0  2.390447  0  0  -0.308394  -0.541634  0  2.413057  0
O  O51  1  0.23850189  0.19607585  0.94041555  1  0  -0.604628  0  2.136814  0  0  -0.559226  0  2.405333  0  0  -0.586593  0  2.391591  0  0  -0.308391  -0.541485  0  2.414272  0
