# generated using pymatgen
data_NaCdH17C11O13
_symmetry_space_group_name_H-M   'P 1'
_cell_length_a   6.76656011
_cell_length_b   10.68690822
_cell_length_c   12.65462810
_cell_angle_alpha   73.62263627
_cell_angle_beta   91.80050206
_cell_angle_gamma   77.59903640
_symmetry_Int_Tables_number   1
_chemical_formula_structural   NaCdH17C11O13
_chemical_formula_sum   'Na2 Cd2 H34 C22 O26'
_cell_volume   853.34735171
_cell_formula_units_Z   2
loop_
 _symmetry_equiv_pos_site_id
 _symmetry_equiv_pos_as_xyz
  1  'x, y, z'
loop_
 _atom_site_type_symbol
 _atom_site_label
 _atom_site_symmetry_multiplicity
 _atom_site_fract_x
 _atom_site_fract_y
 _atom_site_fract_z
 _atom_site_occupancy
 _atom_site_hle17_bader_spin_density
 _atom_site_hle17_ddec_charge
 _atom_site_hle17_ddec_spin_density
 _atom_site_hle17_ddec_sum_bond_order
 _atom_site_hle17_magmom
 _atom_site_hse06_10hf_bader_spin_density
 _atom_site_hse06_10hf_ddec_charge
 _atom_site_hse06_10hf_ddec_spin_density
 _atom_site_hse06_10hf_ddec_sum_bond_order
 _atom_site_hse06_10hf_magmom
 _atom_site_hse06_bader_spin_density
 _atom_site_hse06_ddec_charge
 _atom_site_hse06_ddec_spin_density
 _atom_site_hse06_ddec_sum_bond_order
 _atom_site_hse06_magmom
 _atom_site_pbe_bader_spin_density
 _atom_site_pbe_cm5_charge
 _atom_site_pbe_ddec_charge
 _atom_site_pbe_ddec_spin_density
 _atom_site_pbe_ddec_sum_bond_order
 _atom_site_pbe_magmom
Na  Na0  1  0.32726466  0.86654069  0.88703730  1  0  0.912046  0  0.342246  0  0  0.860615  0  0.492725  0  0  0.872394  0  0.470458  0  0  0.65513  0.851882  0  0.508751  0
Na  Na1  1  0.67272767  0.13345633  0.11296158  1  0  0.912063  0  0.342215  0  0  0.860621  0  0.492734  0  0  0.872391  0  0.470463  0  0  0.655123  0.851884  0  0.508756  0
Cd  Cd2  1  0.29865329  0.23830188  0.64214615  1  0  1.285299  0  1.525831  0  0  1.11269  0  1.960787  0  0  1.170143  0  1.899341  0  0  0.780394  1.071326  0  2.00337  0
Cd  Cd3  1  0.70135118  0.76169195  0.35785698  1  0  1.285374  0  1.52587  0  0  1.112826  0  1.960787  0  0  1.170253  0  1.899379  0  0  0.780436  1.071468  0  2.003373  0
H  H4  1  0.15213819  0.98832272  0.63954160  1  0  0.442107  0  0.846144  0  0  0.411527  0  0.908228  0  0  0.422462  0  0.892066  0  0  0.301153  0.403664  0  0.919833  0
H  H5  1  0.84785803  0.01168521  0.36045429  1  0  0.442126  0  0.846106  0  0  0.411568  0  0.908148  0  0  0.422502  0  0.891989  0  0  0.301145  0.403708  0  0.919749  0
H  H6  1  0.93829659  0.09455559  0.60736335  1  0  0.442858  0  0.837621  0  0  0.414739  0  0.894203  0  0  0.425644  0  0.878171  0  0  0.302278  0.406912  0  0.905722  0
H  H7  1  0.06169368  0.90544546  0.39263776  1  0  0.442959  0  0.837487  0  0  0.414837  0  0.894074  0  0  0.425744  0  0.878038  0  0  0.302317  0.407011  0  0.905592  0
H  H8  1  0.43076314  0.32827946  0.43693801  1  0  0.431475  0  0.873444  0  0  0.39662  0  0.942968  0  0  0.408633  0  0.92569  0  0  0.28963  0.38809  0  0.955214  0
H  H9  1  0.56924491  0.67170933  0.56306866  1  0  0.431491  0  0.873434  0  0  0.396582  0  0.943037  0  0  0.408593  0  0.925768  0  0  0.28962  0.388053  0  0.95528  0
H  H10  1  0.20609204  0.42160055  0.43006481  1  0  0.432888  0  0.866755  0  0  0.400866  0  0.931253  0  0  0.412666  0  0.914199  0  0  0.289929  0.392466  0  0.94337  0
H  H11  1  0.79393351  0.57839791  0.56993857  1  0  0.432921  0  0.866695  0  0  0.40084  0  0.93129  0  0  0.412643  0  0.914231  0  0  0.289909  0.392441  0  0.943408  0
H  H12  1  0.64748256  0.36737549  0.65095409  1  0  0.426617  0  0.838856  0  0  0.401954  0  0.904458  0  0  0.411313  0  0.891822  0  0  0.304377  0.395301  0  0.911841  0
H  H13  1  0.35250717  0.63262457  0.34904333  1  0  0.42665  0  0.838791  0  0  0.401956  0  0.904446  0  0  0.411314  0  0.891825  0  0  0.304352  0.395301  0  0.91183  0
H  H14  1  0.45672712  0.47363682  0.66458075  1  0  0.418728  0  0.888866  0  0  0.384189  0  0.958514  0  0  0.396092  0  0.941518  0  0  0.282674  0.375708  0  0.970599  0
H  H15  1  0.54327768  0.52637097  0.33542035  1  0  0.418698  0  0.888902  0  0  0.384166  0  0.958544  0  0  0.39607  0  0.941546  0  0  0.282645  0.375684  0  0.970631  0
H  H16  1  0.40130588  0.75081458  0.14650243  1  0  0.420729  0  0.856341  0  0  0.39247  0  0.92971  0  0  0.400989  0  0.917088  0  0  0.29699  0.386307  0  0.938853  0
H  H17  1  0.59870841  0.24917808  0.85349659  1  0  0.420751  0  0.856327  0  0  0.392516  0  0.929661  0  0  0.401034  0  0.917041  0  0  0.296999  0.386355  0  0.938803  0
H  H18  1  0.44909371  0.88939678  0.12124222  1  0  0.429238  0  0.862038  0  0  0.403832  0  0.915126  0  0  0.413557  0  0.900899  0  0  0.303489  0.396898  0  0.925317  0
H  H19  1  0.55092869  0.11059473  0.87874480  1  0  0.429278  0  0.86199  0  0  0.403868  0  0.915094  0  0  0.413596  0  0.900863  0  0  0.303472  0.396933  0  0.925287  0
H  H20  1  0.01524588  0.05989425  0.78813835  1  0  0.405227  0  0.896526  0  0  0.376444  0  0.96123  0  0  0.38631  0  0.946612  0  0  0.286171  0.369374  0  0.971709  0
H  H21  1  0.98475649  0.94010659  0.21185670  1  0  0.405258  0  0.896558  0  0  0.37648  0  0.961184  0  0  0.386346  0  0.946571  0  0  0.286209  0.369413  0  0.971659  0
H  H22  1  0.89430468  0.05925680  0.89202208  1  0  0.423326  0  0.867635  0  0  0.398632  0  0.921032  0  0  0.408143  0  0.906942  0  0  0.294388  0.391809  0  0.93117  0
H  H23  1  0.10568939  0.94075116  0.10797072  1  0  0.423342  0  0.867602  0  0  0.398658  0  0.920968  0  0  0.408165  0  0.906887  0  0  0.294421  0.391834  0  0.931107  0
H  H24  1  0.85622733  0.64529408  0.70878569  1  0  0.121898  0  0.987338  0  0  0.132726  0  1.047402  0  0  0.136271  0  1.045636  0  0  0.109617  0.130082  0  1.048895  0
H  H25  1  0.14377720  0.35469475  0.29121157  1  0  0.121928  0  0.987235  0  0  0.13275  0  1.047328  0  0  0.136296  0  1.04556  0  0  0.109646  0.130095  0  1.048835  0
H  H26  1  0.66567256  0.62840226  0.03320497  1  0  0.135146  0  0.950385  0  0  0.143011  0  1.017486  0  0  0.147948  0  1.013219  0  0  0.11567  0.139406  0  1.020795  0
H  H27  1  0.33428747  0.37160130  0.96678969  1  0  0.135284  0  0.950361  0  0  0.14314  0  1.017488  0  0  0.148077  0  1.013222  0  0  0.115743  0.139536  0  1.020798  0
H  H28  1  0.92439968  0.26271073  0.95324257  1  0  0.13238  0  0.937036  0  0  0.142543  0  0.996661  0  0  0.146959  0  0.993428  0  0  0.119159  0.139321  0  0.999188  0
H  H29  1  0.07561248  0.73729096  0.04676456  1  0  0.132415  0  0.936913  0  0  0.142587  0  0.996551  0  0  0.147005  0  0.993318  0  0  0.119158  0.139371  0  0.999072  0
H  H30  1  0.68480569  0.82760582  0.67392532  1  0  0.105168  0  0.923757  0  0  0.117384  0  0.981886  0  0  0.119166  0  0.980183  0  0  0.119763  0.116252  0  0.983078  0
H  H31  1  0.31517388  0.17239741  0.32607014  1  0  0.105177  0  0.923678  0  0  0.117322  0  0.981884  0  0  0.119105  0  0.98018  0  0  0.119723  0.116192  0  0.983073  0
H  H32  1  0.90214779  0.85784484  0.73858855  1  0  0.103429  0  0.936672  0  0  0.109924  0  1.005046  0  0  0.112058  0  1.003284  0  0  0.117109  0.108586  0  1.006247  0
H  H33  1  0.09784106  0.14215923  0.26141662  1  0  0.103445  0  0.936586  0  0  0.109924  0  1.004975  0  0  0.11206  0  1.003215  0  0  0.117099  0.108584  0  1.006176  0
H  H34  1  0.52861520  0.47858726  0.15834246  1  0  0.072422  0  0.992708  0  0  0.080729  0  1.065557  0  0  0.080528  0  1.067878  0  0  0.103601  0.080918  0  1.064068  0
H  H35  1  0.47137393  0.52141182  0.84166478  1  0  0.072449  0  0.992573  0  0  0.08074  0  1.065543  0  0  0.08053  0  1.067825  0  0  0.103647  0.080923  0  1.064057  0
H  H36  1  0.78326970  0.47784977  0.19802909  1  0  0.084863  0  0.970182  0  0  0.096909  0  1.032419  0  0  0.097234  0  1.033024  0  0  0.107433  0.096713  0  1.032088  0
H  H37  1  0.21670463  0.52216950  0.80196167  1  0  0.084776  0  0.970198  0  0  0.096867  0  1.032437  0  0  0.097173  0  1.033033  0  0  0.107406  0.096667  0  1.032105  0
C  C38  1  0.89020933  0.44798865  0.82192479  1  0  -0.019398  0  3.829785  0  0  0.006364  0  4.065371  0  0  0.004432  0  4.084264  0  0  -0.021433  0.007467  0  4.052932  0
C  C39  1  0.10980823  0.55201095  0.17808422  1  0  -0.019518  0  3.829896  0  0  0.006211  0  4.065542  0  0  0.004289  0  4.084428  0  0  -0.021484  0.007324  0  4.053091  0
C  C40  1  0.83306164  0.58818612  0.79111286  1  0  -0.242538  0  3.740741  0  0  -0.279157  0  3.995349  0  0  -0.285179  0  4.014658  0  0  -0.118781  -0.275051  0  3.982555  0
C  C41  1  0.16694561  0.41181164  0.20888038  1  0  -0.242584  0  3.740841  0  0  -0.279158  0  3.995445  0  0  -0.285187  0  4.014756  0  0  -0.118808  -0.275048  0  3.982655  0
C  C42  1  0.75509447  0.65057414  0.86875571  1  0  0.303538  0  3.8079  0  0  0.297876  0  4.068987  0  0  0.310309  0  4.082783  0  0  0.085074  0.289296  0  4.059532  0
C  C43  1  0.24488718  0.34942306  0.13124201  1  0  0.303672  0  3.80773  0  0  0.297916  0  4.06893  0  0  0.310351  0  4.082725  0  0  0.085064  0.289341  0  4.059473  0
C  C44  1  0.72607856  0.57546409  0.97504857  1  0  -0.29702  0  3.701359  0  0  -0.328503  0  3.957043  0  0  -0.335477  0  3.973078  0  0  -0.112358  -0.323932  0  3.946566  0
C  C45  1  0.27391240  0.42454193  0.02494804  1  0  -0.297323  0  3.701165  0  0  -0.328878  0  3.956954  0  0  -0.335857  0  3.972992  0  0  -0.112462  -0.324306  0  3.946478  0
C  C46  1  0.77918433  0.43580721  0.00244530  1  0  0.288858  0  3.829623  0  0  0.28367  0  4.090254  0  0  0.294795  0  4.106308  0  0  0.082423  0.275935  0  4.07932  0
C  C47  1  0.22081929  0.56419860  0.99755478  1  0  0.288937  0  3.829515  0  0  0.283839  0  4.090029  0  0  0.294969  0  4.106098  0  0  0.082409  0.276098  0  4.079103  0
C  C48  1  0.86769465  0.37112873  0.92759552  1  0  -0.216971  0  3.727986  0  0  -0.252743  0  3.986054  0  0  -0.256707  0  4.00233  0  0  -0.107172  -0.250134  0  3.975377  0
C  C49  1  0.13229136  0.62887041  0.07241105  1  0  -0.21698  0  3.727922  0  0  -0.252839  0  3.986068  0  0  -0.256782  0  4.00229  0  0  -0.107134  -0.250244  0  3.975391  0
C  C50  1  0.99385714  0.38110650  0.74286076  1  0  0.632029  0  3.933032  0  0  0.582893  0  4.222234  0  0  0.616204  0  4.21625  0  0  0.201052  0.560278  0  4.225573  0
C  C51  1  0.00617203  0.61888194  0.25716096  1  0  0.632433  0  3.932506  0  0  0.583363  0  4.221628  0  0  0.61667  0  4.215633  0  0  0.201189  0.560745  0  4.224975  0
C  C52  1  0.73816164  0.86421747  0.74033404  1  0  -0.072159  0  3.62343  0  0  -0.126415  0  3.882684  0  0  -0.123888  0  3.883084  0  0  -0.06529  -0.128418  0  3.882428  0
C  C53  1  0.26183546  0.13578146  0.25966174  1  0  -0.072156  0  3.623238  0  0  -0.126351  0  3.88246  0  0  -0.123835  0  3.882873  0  0  -0.065228  -0.128344  0  3.882202  0
C  C54  1  0.62006099  0.00766538  0.71373477  1  0  0.67419  0  3.894663  0  0  0.62238  0  4.196746  0  0  0.65525  0  4.190897  0  0  0.202593  0.59998  0  4.200162  0
C  C55  1  0.37995899  0.99233715  0.28626145  1  0  0.674242  0  3.894605  0  0  0.622437  0  4.196673  0  0  0.655311  0  4.19082  0  0  0.202667  0.600034  0  4.200094  0
C  C56  1  0.68264280  0.41445380  0.18508249  1  0  -0.093226  0  3.664476  0  0  -0.148774  0  3.921655  0  0  -0.145431  0  3.924215  0  0  -0.081146  -0.151285  0  3.920036  0
C  C57  1  0.31734549  0.58555027  0.81491315  1  0  -0.092887  0  3.664216  0  0  -0.148663  0  3.921578  0  0  -0.145203  0  3.924014  0  0  -0.08114  -0.151158  0  3.919934  0
C  C58  1  0.67713314  0.30895767  0.29392245  1  0  0.688252  0  3.877469  0  0  0.634015  0  4.190896  0  0  0.666038  0  4.183053  0  0  0.207061  0.612217  0  4.195609  0
C  C59  1  0.32285959  0.69104433  0.70607751  1  0  0.687851  0  3.877886  0  0  0.633732  0  4.191196  0  0  0.665732  0  4.183345  0  0  0.206932  0.611927  0  4.195907  0
O  O60  1  0.14493677  0.28241578  0.78559478  1  0  -0.633144  0  2.007927  0  0  -0.56603  0  2.252903  0  0  -0.596482  0  2.243214  0  0  -0.320443  -0.544562  0  2.258718  0
O  O61  1  0.85507355  0.71758595  0.21443151  1  0  -0.633368  0  2.007515  0  0  -0.566317  0  2.252552  0  0  -0.596777  0  2.242864  0  0  -0.320579  -0.544847  0  2.258374  0
O  O62  1  0.93602384  0.42373645  0.63944687  1  0  -0.649426  0  1.933251  0  0  -0.585362  0  2.143309  0  0  -0.611109  0  2.131176  0  0  -0.32048  -0.567348  0  2.151124  0
O  O63  1  0.06402525  0.57626460  0.36055877  1  0  -0.649481  0  1.933519  0  0  -0.585451  0  2.143541  0  0  -0.611186  0  2.131403  0  0  -0.320414  -0.567446  0  2.151363  0
O  O64  1  0.65940094  0.09223495  0.63004435  1  0  -0.630592  0  1.906  0  0  -0.571735  0  2.120571  0  0  -0.599004  0  2.110236  0  0  -0.316362  -0.55273  0  2.127256  0
O  O65  1  0.34060257  0.90776587  0.36994907  1  0  -0.630646  0  1.90573  0  0  -0.571797  0  2.12031  0  0  -0.599065  0  2.109973  0  0  -0.316428  -0.552793  0  2.126995  0
O  O66  1  0.47351967  0.03570573  0.77212642  1  0  -0.722837  0  2.026694  0  0  -0.652142  0  2.268789  0  0  -0.681252  0  2.256099  0  0  -0.379427  -0.631681  0  2.276986  0
O  O67  1  0.52647582  0.96428724  0.22786143  1  0  -0.722879  0  2.026853  0  0  -0.652224  0  2.268994  0  0  -0.681324  0  2.2563  0  0  -0.379508  -0.631766  0  2.277191  0
O  O68  1  0.62591257  0.35982727  0.37226039  1  0  -0.646246  0  1.961897  0  0  -0.579464  0  2.172328  0  0  -0.606033  0  2.160556  0  0  -0.325225  -0.560566  0  2.179854  0
O  O69  1  0.37410051  0.64017041  0.62774615  1  0  -0.646082  0  1.962111  0  0  -0.579284  0  2.172469  0  0  -0.605855  0  2.16071  0  0  -0.32516  -0.560387  0  2.179996  0
O  O70  1  0.71719441  0.18693777  0.29860155  1  0  -0.661213  0  1.944003  0  0  -0.614951  0  2.17952  0  0  -0.637226  0  2.167519  0  0  -0.34769  -0.599284  0  2.187377  0
O  O71  1  0.28280675  0.81306510  0.70140417  1  0  -0.661062  0  1.944021  0  0  -0.614818  0  2.179478  0  0  -0.637098  0  2.167493  0  0  -0.347598  -0.599151  0  2.187336  0
O  O72  1  0.69663456  0.78712405  0.84644771  1  0  -0.295722  0  2.344156  0  0  -0.229297  0  2.580796  0  0  -0.245165  0  2.580616  0  0  -0.204269  -0.217842  0  2.580538  0
O  O73  1  0.30336500  0.21287584  0.15354692  1  0  -0.295796  0  2.34418  0  0  -0.229275  0  2.580784  0  0  -0.245137  0  2.5806  0  0  -0.204287  -0.217828  0  2.58053  0
O  O74  1  0.75334358  0.35212735  0.10279843  1  0  -0.313188  0  2.407238  0  0  -0.243213  0  2.647123  0  0  -0.260635  0  2.650032  0  0  -0.2195  -0.230798  0  2.644622  0
O  O75  1  0.24664001  0.64787980  0.89719981  1  0  -0.31338  0  2.407171  0  0  -0.24332  0  2.647033  0  0  -0.260796  0  2.649926  0  0  -0.21954  -0.2309  0  2.64453  0
O  O76  1  0.08252326  0.08202394  0.63335500  1  0  -0.865856  0  1.840477  0  0  -0.800324  0  2.012738  0  0  -0.822837  0  1.97741  0  0  -0.573221  -0.784154  0  2.037636  0
O  O77  1  0.91746884  0.91798007  0.36664447  1  0  -0.865985  0  1.840337  0  0  -0.800484  0  2.012601  0  0  -0.822991  0  1.977275  0  0  -0.573248  -0.784316  0  2.037494  0
O  O78  1  0.29165887  0.32829100  0.46357540  1  0  -0.862563  0  1.908285  0  0  -0.790997  0  2.116015  0  0  -0.817169  0  2.077732  0  0  -0.584343  -0.772498  0  2.142635  0
O  O79  1  0.70833481  0.67169802  0.53641991  1  0  -0.862612  0  1.908154  0  0  -0.790978  0  2.115999  0  0  -0.817149  0  2.077709  0  0  -0.584341  -0.772485  0  2.142625  0
O  O80  1  0.51932312  0.37375807  0.68536279  1  0  -0.859417  0  1.871843  0  0  -0.7966  0  2.073249  0  0  -0.819428  0  2.040056  0  0  -0.578029  -0.780272  0  2.094967  0
O  O81  1  0.48067371  0.62624386  0.31463541  1  0  -0.859422  0  1.871838  0  0  -0.796587  0  2.073249  0  0  -0.819409  0  2.04007  0  0  -0.577987  -0.780261  0  2.094969  0
O  O82  1  0.37690822  0.83677417  0.08762755  1  0  -0.860163  0  1.770694  0  0  -0.811908  0  1.931031  0  0  -0.829197  0  1.901054  0  0  -0.614332  -0.799678  0  1.952347  0
O  O83  1  0.62309390  0.16321870  0.91237037  1  0  -0.860247  0  1.770661  0  0  -0.81202  0  1.930921  0  0  -0.8293  0  1.900917  0  0  -0.61432  -0.799803  0  1.95227  0
O  O84  1  0.00756974  0.00680250  0.86457929  1  0  -0.871051  0  1.763889  0  0  -0.82733  0  1.919279  0  0  -0.843281  0  1.887856  0  0  -0.667634  -0.815883  0  1.941618  0
O  O85  1  0.99243833  0.99320423  0.13542195  1  0  -0.871095  0  1.763954  0  0  -0.82736  0  1.919342  0  0  -0.843307  0  1.887906  0  0  -0.667688  -0.815916  0  1.941676  0
