# generated using pymatgen
data_SmH15C20(N3O5)2
_symmetry_space_group_name_H-M   'P 1'
_cell_length_a   9.31962479
_cell_length_b   9.43812731
_cell_length_c   13.45590000
_cell_angle_alpha   73.25694857
_cell_angle_beta   81.66762073
_cell_angle_gamma   69.51849853
_symmetry_Int_Tables_number   1
_chemical_formula_structural   SmH15C20(N3O5)2
_chemical_formula_sum   'Sm2 H30 C40 N12 O20'
_cell_volume   1060.46970160
_cell_formula_units_Z   2
loop_
 _symmetry_equiv_pos_site_id
 _symmetry_equiv_pos_as_xyz
  1  'x, y, z'
loop_
 _atom_site_type_symbol
 _atom_site_label
 _atom_site_symmetry_multiplicity
 _atom_site_fract_x
 _atom_site_fract_y
 _atom_site_fract_z
 _atom_site_occupancy
 _atom_site_pbe_bader_charge
 _atom_site_pbe_bader_spin_density
 _atom_site_pbe_cm5_charge
 _atom_site_pbe_ddec_charge
 _atom_site_pbe_ddec_spin_density
 _atom_site_pbe_ddec_sum_bond_order
 _atom_site_pbe_magmom
Sm  Sm0  1  0.23862270  0.54183110  0.48273410  1  2.236697  0  1.490988  2.144274  0  2.077654  0
Sm  Sm1  1  0.76137065  0.45816673  0.51726968  1  2.236789  0  1.491026  2.144328  0  2.077604  0
H  H2  1  0.91063998  0.77624229  0.47057461  1  0.654705  0  0.299334  0.399418  0  0.940452  0
H  H3  1  0.08936122  0.22376491  0.52942723  1  0.654782  0  0.299329  0.399411  0  0.940461  0
H  H4  1  0.02162346  0.84091442  0.50926158  1  0.624034  0  0.322476  0.403461  0  0.893285  0
H  H5  1  0.97838496  0.15909394  0.49073187  1  0.624075  0  0.322509  0.403482  0  0.893294  0
H  H6  1  0.26016804  0.87213836  0.35139968  1  0.629161  0  0.288768  0.372666  0  0.973313  0
H  H7  1  0.73983615  0.12785948  0.64860450  1  0.629145  0  0.288744  0.372635  0  0.973365  0
H  H8  1  0.43113699  0.74281632  0.36261968  1  0.649454  0  0.298876  0.398486  0  0.937742  0
H  H9  1  0.56886283  0.25718502  0.63738200  1  0.649468  0  0.298877  0.398498  0  0.937721  0
H  H10  1  0.68935469  0.02980818  0.45508964  1  0.082427  0  0.111481  0.117164  0  0.995041  0
H  H11  1  0.31064079  0.97019317  0.54491322  1  0.082468  0  0.111502  0.117216  0  0.994967  0
H  H12  1  0.54103574  0.90989000  0.21096150  1  0.089964  0  0.112455  0.118792  0  0.987267  0
H  H13  1  0.45896632  0.09010433  0.78904361  1  0.089928  0  0.112428  0.118794  0  0.987288  0
H  H14  1  0.46156694  0.18842474  0.11313420  1  0.12811  0  0.11335  0.121789  0  1.029029  0
H  H15  1  0.53843728  0.81156959  0.88686845  1  0.128192  0  0.113353  0.121807  0  1.029104  0
H  H16  1  0.58028310  0.55410375  0.22721122  1  0.160315  0  0.148781  0.124449  0  0.988112  0
H  H17  1  0.41971933  0.44588940  0.77279186  1  0.160282  0  0.148786  0.124476  0  0.988056  0
H  H18  1  0.24418246  0.69836732  0.01122266  1  0.161979  0  0.133885  0.108042  0  1.029275  0
H  H19  1  0.75582423  0.30163286  0.98878006  1  0.161915  0  0.133883  0.108092  0  1.029329  0
H  H20  1  0.15973620  0.56562523  0.94929345  1  0.12751  0  0.11179  0.117713  0  1.041398  0
H  H21  1  0.84027527  0.43436676  0.05070746  1  0.127428  0  0.111803  0.117729  0  1.04138  0
H  H22  1  0.25890010  0.28467065  0.03868333  1  0.126712  0  0.103125  0.098803  0  1.057354  0
H  H23  1  0.74109009  0.71531665  0.96131546  1  0.126528  0  0.103152  0.098857  0  1.057438  0
H  H24  1  0.05230884  0.17867472  0.81597430  1  0.095347  0  0.111293  0.112319  0  1.02295  0
H  H25  1  0.94768552  0.82133014  0.18401012  1  0.095485  0  0.111245  0.11234  0  1.023048  0
H  H26  1  0.35251654  0.87657167  0.08204603  1  0.655236  0  0.294298  0.320911  0  1.025134  0
H  H27  1  0.64748910  0.12342499  0.91794263  1  0.655244  0  0.294329  0.320927  0  1.02503  0
H  H28  1  0.80579207  0.73294812  0.69749345  1  0.152281  0  0.14503  0.11992  0  0.994128  0
H  H29  1  0.19421710  0.26705790  0.30250486  1  0.153075  0  0.145027  0.119873  0  0.994049  0
H  H30  1  0.01513315  0.03389516  0.74504292  1  0.117649  0  0.136498  0.103128  0  0.998355  0
H  H31  1  0.98486812  0.96610501  0.25496703  1  0.117905  0  0.1365  0.103032  0  0.998593  0
C  C32  1  0.60557553  0.33255024  0.38246588  1  1.584556  0  0.229871  0.644345  0  4.201211  0
C  C33  1  0.39441490  0.66744993  0.61753698  1  1.585536  0  0.229919  0.644443  0  4.200674  0
C  C34  1  0.58748885  0.22260890  0.32790324  1  0.028533  0  -0.002716  -0.094987  0  3.941744  0
C  C35  1  0.41250809  0.77739128  0.67209896  1  0.028453  0  -0.002831  -0.095147  0  3.9415  0
C  C36  1  0.63808935  0.06447791  0.38032704  1  -0.003341  0  -0.070978  -0.088111  0  3.926672  0
C  C37  1  0.36190941  0.93551993  0.61967546  1  -0.003712  0  -0.070963  -0.088164  0  3.926605  0
C  C38  1  0.61909586  0.95112487  0.34061989  1  -0.087346  0  -0.020896  -0.051108  0  3.996549  0
C  C39  1  0.38090436  0.04887179  0.65938790  1  -0.086871  0  -0.020905  -0.051056  0  3.996367  0
C  C40  1  0.55350789  0.99715812  0.24415505  1  0.052507  0  -0.070791  -0.056952  0  3.939843  0
C  C41  1  0.44649162  0.00283737  0.75585082  1  0.052538  0  -0.07071  -0.056876  0  3.939961  0
C  C42  1  0.50738879  0.15341335  0.18948203  1  0.037711  0  -0.077394  -0.145451  0  3.96367  0
C  C43  1  0.49262089  0.84657746  0.81051930  1  0.037084  0  -0.077466  -0.145685  0  3.964036  0
C  C44  1  0.52101759  0.26740891  0.23164471  1  0.321706  0  0.118607  0.139649  0  3.959888  0
C  C45  1  0.47898476  0.73259126  0.76835844  1  0.322122  0  0.118705  0.140002  0  3.959509  0
C  C46  1  0.49658692  0.55509478  0.17867503  1  0.974738  0  0.176007  0.120216  0  3.861254  0
C  C47  1  0.50341655  0.44490188  0.82132797  1  0.975159  0  0.175964  0.120118  0  3.861406  0
C  C48  1  0.32699261  0.62215850  0.06892204  1  0.972697  0  0.148103  0.14251  0  3.988443  0
C  C49  1  0.67301300  0.37784168  0.93108152  1  0.972659  0  0.148116  0.142523  0  3.988384  0
C  C50  1  0.02875384  0.42177937  0.78948378  1  0.012615  0  -0.005938  -0.096008  0  3.947637  0
C  C51  1  0.97124378  0.57822549  0.21051370  1  0.013128  0  -0.005989  -0.096002  0  3.947586  0
C  C52  1  0.05802013  0.53032250  0.82951100  1  0.29832  0  0.112287  0.134167  0  3.970076  0
C  C53  1  0.94197789  0.46967767  0.17048961  1  0.298421  0  0.112338  0.134244  0  3.969721  0
C  C54  1  0.14044792  0.47920188  0.91923226  1  -0.033566  0  -0.08623  -0.163252  0  4.001656  0
C  C55  1  0.85954826  0.52080064  0.08076435  1  -0.033722  0  -0.086264  -0.163289  0  4.00142  0
C  C56  1  0.19444859  0.32110365  0.96948740  1  -0.007963  0  -0.079014  -0.07458  0  3.970856  0
C  C57  1  0.80554655  0.67889536  0.03050110  1  -0.007893  0  -0.078979  -0.074532  0  3.970858  0
C  C58  1  0.16153816  0.21219429  0.93270020  1  -0.051225  0  -0.015847  -0.040268  0  3.984366  0
C  C59  1  0.83845448  0.78780237  0.06729720  1  -0.051356  0  -0.015936  -0.04038  0  3.984459  0
C  C60  1  0.07692153  0.26457154  0.84395765  1  0.035384  0  -0.069683  -0.091341  0  3.931493  0
C  C61  1  0.92307504  0.73542980  0.15603321  1  0.035419  0  -0.069577  -0.09128  0  3.931643  0
C  C62  1  0.21570238  0.04053636  0.98139596  1  1.536367  0  0.227744  0.575929  0  4.124503  0
C  C63  1  0.78429246  0.95945679  0.01857964  1  1.536359  0  0.227763  0.575904  0  4.124234  0
C  C64  1  0.95948449  0.46007976  0.68730918  1  1.576558  0  0.225975  0.63937  0  4.208424  0
C  C65  1  0.04050655  0.53993211  0.31269199  1  1.576343  0  0.226032  0.639331  0  4.208661  0
C  C66  1  0.88212031  0.78033044  0.72106785  1  0.98643  0  0.161649  0.090841  0  3.899002  0
C  C67  1  0.11788452  0.21967558  0.27893238  1  0.985412  0  0.161727  0.09104  0  3.898696  0
C  C68  1  0.66753801  0.78470759  0.40058795  1  1.500407  0  0.205061  0.581223  0  4.195959  0
C  C69  1  0.33245859  0.21529024  0.59941476  1  1.500908  0  0.205085  0.581187  0  4.195673  0
C  C70  1  0.98948878  0.92936079  0.74833089  1  1.0176  0  0.150668  0.155579  0  3.986764  0
C  C71  1  0.01052012  0.07063588  0.25167975  1  1.017361  0  0.150593  0.155627  0  3.98694  0
N  N72  1  0.41084203  0.68019762  0.11262866  1  -1.166073  0  -0.317179  -0.310232  0  3.336254  0
N  N73  1  0.58916107  0.31980021  0.88737415  1  -1.166049  0  -0.317141  -0.310205  0  3.336239  0
N  N74  1  0.35600000  0.46938750  0.10371485  1  -0.694852  0  -0.219192  -0.264265  0  3.14294  0
N  N75  1  0.64399948  0.53061150  0.89628808  1  -0.694931  0  -0.219247  -0.264358  0  3.143138  0
N  N76  1  0.87180218  0.93058115  0.69717298  1  -1.218177  0  -0.324636  -0.338527  0  3.316439  0
N  N77  1  0.12820414  0.06942019  0.30283250  1  -1.218232  0  -0.324646  -0.338709  0  3.316375  0
N  N78  1  0.07078952  0.78918303  0.80153656  1  -0.673653  0  -0.212067  -0.239974  0  3.104651  0
N  N79  1  0.92921392  0.21081714  0.19846648  1  -0.673328  0  -0.212065  -0.239927  0  3.104552  0
N  N80  1  0.46529495  0.42630278  0.17475845  1  -0.842235  0  -0.112842  0.126203  0  3.727306  0
N  N81  1  0.53470527  0.57369389  0.82524562  1  -0.842454  0  -0.112813  0.126154  0  3.727307  0
N  N82  1  0.00207316  0.69339695  0.78308753  1  -0.842982  0  -0.114054  0.132075  0  3.744527  0
N  N83  1  0.99793245  0.30660322  0.21691455  1  -0.843004  0  -0.114115  0.131983  0  3.744579  0
O  O84  1  0.48654781  0.42831409  0.41412543  1  -1.209175  0  -0.397883  -0.702242  0  2.378612  0
O  O85  1  0.51343970  0.57168842  0.58587724  1  -1.21004  0  -0.397912  -0.702323  0  2.378444  0
O  O86  1  0.74136866  0.31913211  0.39780165  1  -1.167364  0  -0.383521  -0.64642  0  2.266531  0
O  O87  1  0.25862095  0.68087742  0.60219568  1  -1.167499  0  -0.383558  -0.646461  0  2.266367  0
O  O88  1  0.03408472  0.50553032  0.60457209  1  -1.21578  0  -0.400005  -0.720285  0  2.396404  0
O  O89  1  0.96590418  0.49447804  0.39542555  1  -1.215796  0  -0.400025  -0.720236  0  2.396615  0
O  O90  1  0.01427481  0.79013428  0.45746295  1  -1.258644  0  -0.619805  -0.81427  0  2.0426  0
O  O91  1  0.98572643  0.20986940  0.54253514  1  -1.258791  0  -0.619825  -0.814293  0  2.042598  0
O  O92  1  0.31993892  0.75847392  0.37498580  1  -1.282511  0  -0.653483  -0.855615  0  2.093037  0
O  O93  1  0.68006239  0.24152274  0.62501444  1  -1.282535  0  -0.653482  -0.855645  0  2.093038  0
O  O94  1  0.17662659  0.94937916  0.95054389  1  -1.140085  0  -0.287084  -0.493516  0  2.171108  0
O  O95  1  0.82339088  0.05062803  0.04944368  1  -1.139762  0  -0.287194  -0.493717  0  2.17058  0
O  O96  1  0.31223165  0.99676616  0.05775006  1  -1.179453  0  -0.338903  -0.479453  0  2.313769  0
O  O97  1  0.68777616  0.00323051  0.94223988  1  -1.179905  0  -0.338812  -0.479264  0  2.313965  0
O  O98  1  0.74646894  0.74071257  0.48143642  1  -1.194054  0  -0.363614  -0.640445  0  2.266857  0
O  O99  1  0.25352769  0.25928175  0.51856848  1  -1.194468  0  -0.363666  -0.640468  0  2.266846  0
O  O100  1  0.62890177  0.68528266  0.37221456  1  -1.187321  0  -0.354562  -0.625901  0  2.276039  0
O  O101  1  0.37109625  0.31471752  0.62778753  1  -1.187298  0  -0.354553  -0.625895  0  2.275907  0
O  O102  1  0.83258653  0.43844906  0.68748869  1  -1.171896  0  -0.380067  -0.630192  0  2.2298  0
O  O103  1  0.16740742  0.56156047  0.31251341  1  -1.171971  0  -0.380081  -0.630188  0  2.229709  0
