# generated using pymatgen
data_ZnH13C10N5O4
_symmetry_space_group_name_H-M   'P 1'
_cell_length_a   8.99396511
_cell_length_b   9.67657794
_cell_length_c   11.59587097
_cell_angle_alpha   109.64824509
_cell_angle_beta   90.00023105
_cell_angle_gamma   90.00012112
_symmetry_Int_Tables_number   1
_chemical_formula_structural   ZnH13C10N5O4
_chemical_formula_sum   'Zn2 H26 C20 N10 O8'
_cell_volume   950.43707879
_cell_formula_units_Z   2
loop_
 _symmetry_equiv_pos_site_id
 _symmetry_equiv_pos_as_xyz
  1  'x, y, z'
loop_
 _atom_site_type_symbol
 _atom_site_label
 _atom_site_symmetry_multiplicity
 _atom_site_fract_x
 _atom_site_fract_y
 _atom_site_fract_z
 _atom_site_occupancy
 _atom_site_pbe_bader_spin_density
 _atom_site_pbe_cm5_charge
 _atom_site_pbe_ddec_charge
 _atom_site_pbe_ddec_spin_density
 _atom_site_pbe_ddec_sum_bond_order
 _atom_site_pbe_magmom
Zn  Zn0  1  0.58446530  0.79572607  0.92563683  1  0  0.703015  0.723382  0  2.450034  0
Zn  Zn1  1  0.08446708  0.20427246  0.07436068  1  0  0.703004  0.723346  0  2.450028  0
H  H2  1  0.58317728  0.40745266  0.07359231  1  0  0.29962  0.27814  0  1.007443  0
H  H3  1  0.08317002  0.59254493  0.92640927  1  0  0.299638  0.278149  0  1.007397  0
H  H4  1  0.45712142  0.58911023  0.75132300  1  0  0.287975  0.28344  0  1.012219  0
H  H5  1  0.95712627  0.41088840  0.24867314  1  0  0.28796  0.283427  0  1.012231  0
H  H6  1  0.44271853  0.74028884  0.72065637  1  0  0.301207  0.284765  0  0.927032  0
H  H7  1  0.94271651  0.25970978  0.27934058  1  0  0.301213  0.284779  0  0.926977  0
H  H8  1  0.73666570  0.47567397  0.44208698  1  0  0.305726  0.274444  0  0.994493  0
H  H9  1  0.23666190  0.52432744  0.55791608  1  0  0.305683  0.274436  0  0.994495  0
H  H10  1  0.57982998  0.08025054  0.83377788  1  0  0.113254  0.112126  0  1.006133  0
H  H11  1  0.07983285  0.91975139  0.16622395  1  0  0.113274  0.11215  0  1.006101  0
H  H12  1  0.90502911  0.91581233  0.01431729  1  0  0.117674  0.078163  0  1.062347  0
H  H13  1  0.40502984  0.08418731  0.98568153  1  0  0.117689  0.078177  0  1.062335  0
H  H14  1  0.70712566  0.32959483  0.84412459  1  0  0.102932  0.112459  0  0.96371  0
H  H15  1  0.20712788  0.67040851  0.15587456  1  0  0.10295  0.112475  0  0.963697  0
H  H16  1  0.90440018  0.32954519  0.85136954  1  0  0.102791  0.115109  0  0.985805  0
H  H17  1  0.40440236  0.67045449  0.14863016  1  0  0.102789  0.115106  0  0.985784  0
H  H18  1  0.49308434  0.56015166  0.30702753  1  0  0.121523  0.115652  0  0.978447  0
H  H19  1  0.99307936  0.43984287  0.69297199  1  0  0.121513  0.115664  0  0.978367  0
H  H20  1  0.53058469  0.37071896  0.26282720  1  0  0.117066  0.113744  0  0.959133  0
H  H21  1  0.03057653  0.62927851  0.73717592  1  0  0.117018  0.113735  0  0.959161  0
H  H22  1  0.91046902  0.46557279  0.06509003  1  0  0.115247  0.078877  0  1.016909  0
H  H23  1  0.41046277  0.53442781  0.93490474  1  0  0.115247  0.07894  0  1.016784  0
H  H24  1  0.68943244  0.53231462  0.65990763  1  0  0.122327  0.119456  0  0.955432  0
H  H25  1  0.18943181  0.46768775  0.34009639  1  0  0.122334  0.119466  0  0.955423  0
H  H26  1  0.70850877  0.71176896  0.65410934  1  0  0.11907  0.111613  0  0.950661  0
H  H27  1  0.20850885  0.28823129  0.34589419  1  0  0.119054  0.111626  0  0.950569  0
C  C28  1  0.68031860  0.07585993  0.88430061  1  0  -0.023324  -0.126281  0  4.006401  0
C  C29  1  0.18032344  0.92414229  0.11569989  1  0  -0.023304  -0.126252  0  4.006277  0
C  C30  1  0.54812406  0.58143978  0.52574704  1  0  0.240044  0.492479  0  4.106486  0
C  C31  1  0.04811846  0.41856520  0.47425203  1  0  0.240061  0.492584  0  4.106389  0
C  C32  1  0.84616337  0.99095146  0.97897962  1  0  0.109357  0.129942  0  4.033838  0
C  C33  1  0.34616218  0.00904898  0.02101663  1  0  0.109381  0.129974  0  4.033928  0
C  C34  1  0.78274594  0.59608237  0.98492706  1  0  0.212342  0.572913  0  4.167513  0
C  C35  1  0.28274011  0.40392578  0.01507788  1  0  0.212279  0.572854  0  4.167622  0
C  C36  1  0.80244639  0.32249733  0.90149310  1  0  -0.14835  -0.243304  0  3.943895  0
C  C37  1  0.30244721  0.67749973  0.09850387  1  0  -0.148367  -0.243301  0  3.943906  0
C  C38  1  0.58077637  0.47995998  0.30464921  1  0  -0.050273  -0.137006  0  3.919389  0
C  C39  1  0.08077106  0.52003654  0.69535295  1  0  -0.050219  -0.137057  0  3.919497  0
C  C40  1  0.79256520  0.17844765  0.92170088  1  0  0.065124  0.174722  0  4.020166  0
C  C41  1  0.29256737  0.82155274  0.07829864  1  0  0.065091  0.174667  0  4.020228  0
C  C42  1  0.80191388  0.45761439  0.02037896  1  0  0.009836  0.025302  0  3.857362  0
C  C43  1  0.30191011  0.54238603  0.97962059  1  0  0.009806  0.025265  0  3.857489  0
C  C44  1  0.62711519  0.62523675  0.64993803  1  0  -0.059617  -0.112726  0  3.896742  0
C  C45  1  0.12711438  0.37476427  0.35006458  1  0  -0.05959  -0.112749  0  3.896676  0
C  C46  1  0.71065438  0.49891165  0.22636638  1  0  0.238109  0.493796  0  4.097302  0
C  C47  1  0.21065277  0.50108961  0.77363483  1  0  0.238088  0.493801  0  4.0973  0
N  N48  1  0.68880157  0.44447357  0.10509946  1  0  -0.416077  -0.374344  0  3.583557  0
N  N49  1  0.18879739  0.55552438  0.89490256  1  0  -0.416077  -0.374424  0  3.583666  0
N  N50  1  0.51845376  0.67939669  0.74962313  1  0  -0.628709  -0.545363  0  3.420073  0
N  N51  1  0.01845564  0.32060276  0.25037614  1  0  -0.628698  -0.54535  0  3.420052  0
N  N52  1  0.89759794  0.12312458  0.98238708  1  0  -0.376449  -0.357089  0  3.544616  0
N  N53  1  0.39759882  0.87687501  0.01761084  1  0  -0.37644  -0.357115  0  3.544659  0
N  N54  1  0.71486291  0.95757434  0.92073063  1  0  -0.387535  -0.311912  0  3.678768  0
N  N55  1  0.21486767  0.04242790  0.07926740  1  0  -0.387598  -0.311953  0  3.678836  0
N  N56  1  0.63016873  0.50539481  0.42873928  1  0  -0.416755  -0.330505  0  3.587199  0
N  N57  1  0.13016160  0.49460620  0.57126248  1  0  -0.416747  -0.33053  0  3.587258  0
O  O58  1  0.64911976  0.64679869  0.99538688  1  0  -0.331069  -0.535263  0  2.371239  0
O  O59  1  0.14912265  0.35319664  0.00460657  1  0  -0.331002  -0.535175  0  2.371361  0
O  O60  1  0.82954319  0.55775218  0.27509926  1  0  -0.32786  -0.525501  0  2.121244  0
O  O61  1  0.32954007  0.44224729  0.72490187  1  0  -0.327844  -0.525448  0  2.121187  0
O  O62  1  0.41690166  0.62069033  0.51845668  1  0  -0.321032  -0.533559  0  2.114869  0
O  O63  1  0.91689432  0.37931036  0.48153986  1  0  -0.321  -0.53359  0  2.114872  0
O  O64  1  0.89160667  0.64653209  0.94456153  1  0  -0.317201  -0.557667  0  2.191999  0
O  O65  1  0.39160649  0.35346874  0.05544101  1  0  -0.317178  -0.557678  0  2.191896  0
