# generated using pymatgen
data_ZnH15C21S2N3O10
_symmetry_space_group_name_H-M   'P 1'
_cell_length_a   15.89036967
_cell_length_b   17.24667951
_cell_length_c   17.04815257
_cell_angle_alpha   89.79783045
_cell_angle_beta   85.86602529
_cell_angle_gamma   87.33022051
_symmetry_Int_Tables_number   1
_chemical_formula_structural   ZnH15C21S2N3O10
_chemical_formula_sum   'Zn2 H30 C42 S4 N6 O20'
_cell_volume   4654.93637030
_cell_formula_units_Z   2
loop_
 _symmetry_equiv_pos_site_id
 _symmetry_equiv_pos_as_xyz
  1  'x, y, z'
loop_
 _atom_site_type_symbol
 _atom_site_label
 _atom_site_symmetry_multiplicity
 _atom_site_fract_x
 _atom_site_fract_y
 _atom_site_fract_z
 _atom_site_occupancy
 _atom_site_pbe_bader_charge
 _atom_site_pbe_bader_spin_density
 _atom_site_pbe_cm5_charge
 _atom_site_pbe_ddec_charge
 _atom_site_pbe_ddec_spin_density
 _atom_site_pbe_ddec_sum_bond_order
 _atom_site_pbe_magmom
Zn  Zn0  1  0.59054347  0.50528991  0.49230722  1  1.294618  0  0.691706  0.840288  0  2.368616  0
Zn  Zn1  1  0.41002115  0.48988977  0.48742507  1  1.291941  0  0.690498  0.836326  0  2.376486  0
H  H2  1  0.40734985  0.27000676  0.57974414  1  0.13249  0  0.111743  0.129196  0  1.002127  0
H  H3  1  0.59498838  0.98947059  0.57286934  1  0.06728  0  0.106801  0.105662  0  0.994834  0
H  H4  1  0.66372900  0.10072447  0.52122600  1  0.146536  0  0.113229  0.126268  0  0.997887  0
H  H5  1  0.33936770  0.89965168  0.52179598  1  0.13708  0  0.113965  0.126752  0  0.997836  0
H  H6  1  0.58411442  0.86677548  0.61462671  1  0.046762  0  0.106305  0.104694  0  0.994792  0
H  H7  1  0.40634956  0.13167506  0.61923202  1  0.066856  0  0.108355  0.108896  0  0.989211  0
H  H8  1  0.59431137  0.55977411  0.72492476  1  0.115431  0  0.110366  0.111841  0  0.992936  0
H  H9  1  0.40999990  0.45683425  0.24376549  1  0.113207  0  0.112563  0.119727  0  0.989399  0
H  H10  1  0.58962808  0.57857859  0.87148679  1  0.105639  0  0.112952  0.113742  0  1.002227  0
H  H11  1  0.40888262  0.47112427  0.09691573  1  0.12679  0  0.112214  0.111589  0  1.009074  0
H  H12  1  0.62349274  0.61273905  0.09766426  1  0.106696  0  0.113168  0.1221  0  1.017263  0
H  H13  1  0.58636232  0.72871950  0.57611465  1  0.110244  0  0.106877  0.110499  0  1.008059  0
H  H14  1  0.35126842  0.47094649  0.89459450  1  0.111484  0  0.113382  0.118806  0  1.016045  0
H  H15  1  0.18424142  0.32831222  0.35024334  1  0.070319  0  0.099952  0.136406  0  0.98874  0
H  H16  1  0.09809409  0.31784862  0.42138105  1  0.0631  0  0.106711  0.150468  0  0.969547  0
H  H17  1  0.08732893  0.38424154  0.34364006  1  0.079672  0  0.102407  0.140193  0  0.993772  0
H  H18  1  0.81651563  0.61313576  0.67106641  1  0.033649  0  0.097045  0.131964  0  0.99345  0
H  H19  1  0.91500413  0.55818035  0.66039186  1  0.065781  0  0.103314  0.142209  0  0.993228  0
H  H20  1  0.90127842  0.64466444  0.60674718  1  0.062625  0  0.105903  0.148253  0  0.971535  0
H  H21  1  0.36504408  0.66210545  0.42600584  1  0.651271  0  0.302842  0.370174  0  0.977379  0
H  H22  1  0.64674977  0.33586366  0.42015101  1  0.64484  0  0.3025  0.365426  0  0.982851  0
H  H23  1  0.75455393  0.64558624  0.17368678  1  0.632888  0  0.352645  0.40147  0  0.83992  0
H  H24  1  0.74024178  0.44219882  0.39438092  1  0.14812  0  0.131118  0.110033  0  0.966736  0
H  H25  1  0.22152502  0.42491222  0.82330250  1  0.638204  0  0.354759  0.403498  0  0.836918  0
H  H26  1  0.26115334  0.57788987  0.55817741  1  0.17502  0  0.129265  0.1223  0  0.984885  0
H  H27  1  0.89735414  0.43389027  0.40411224  1  0.109894  0  0.124133  0.132716  0  0.988625  0
H  H28  1  0.10418358  0.57896538  0.55012441  1  0.129901  0  0.123972  0.136084  0  0.981801  0
H  H29  1  0.29750343  0.38743026  0.40955461  1  0.10638  0  0.125767  0.105243  0  0.971101  0
H  H30  1  0.70393413  0.57771730  0.59522202  1  0.110195  0  0.12314  0.094642  0  0.99305  0
H  H31  1  0.40138335  0.00969895  0.57364533  1  0.060523  0  0.106638  0.104784  0  0.99649  0
C  C32  1  0.51327685  0.50941719  0.34017320  1  1.589009  0  0.22096  0.59191  0  4.173074  0
C  C33  1  0.46934615  0.52598974  0.89082983  1  0.30746  0  0.093479  0.180414  0  4.038067  0
C  C34  1  0.57788015  0.57791815  0.13055467  1  0.030064  0  -0.074338  -0.153103  0  3.933484  0
C  C35  1  0.40273360  0.49202051  0.85606559  1  0.044668  0  -0.070061  -0.144812  0  3.939386  0
C  C36  1  0.57901421  0.56917184  0.21190847  1  -0.156022  0  -0.000891  -0.078611  0  3.881516  0
C  C37  1  0.40500791  0.48273266  0.77488391  1  -0.130226  0  -0.003866  -0.086814  0  3.907554  0
C  C38  1  0.23195748  0.53479095  0.52397001  1  0.453984  0  0.061859  0.121549  0  3.886938  0
C  C39  1  0.76938590  0.47070928  0.44162892  1  0.470869  0  0.06537  0.127907  0  3.894675  0
C  C40  1  0.14524562  0.53474296  0.51981056  1  0.051584  0  -0.063195  -0.165445  0  3.90796  0
C  C41  1  0.85595380  0.46707850  0.44654826  1  0.052827  0  -0.061193  -0.161996  0  3.909476  0
C  C42  1  0.11150826  0.47823335  0.47403604  1  0.308725  0  0.108997  0.132969  0  4.005753  0
C  C43  1  0.48376626  0.49923350  0.63925968  1  1.630981  0  0.217319  0.582421  0  4.19629  0
C  C44  1  0.88990757  0.50626100  0.50788103  1  0.327671  0  0.110076  0.139741  0  3.982999  0
C  C45  1  0.16537637  0.42247300  0.43267530  1  0.068733  0  0.012168  0.082385  0  3.934155  0
C  C46  1  0.83617117  0.54858017  0.56351306  1  0.041737  0  0.016465  0.089008  0  3.916648  0
C  C47  1  0.52088708  0.34661376  0.50077503  1  1.552337  0  0.225503  0.596398  0  4.130792  0
C  C48  1  0.47974025  0.65062587  0.50570823  1  1.569576  0  0.229645  0.607548  0  4.109982  0
C  C49  1  0.25167577  0.42793080  0.44023110  1  0.450305  0  0.053882  0.03  0  3.897312  0
C  C50  1  0.74972090  0.54745144  0.55394855  1  0.484426  0  0.058346  0.040431  0  3.888802  0
C  C51  1  0.53352933  0.26394596  0.52654801  1  0.017669  0  -0.012038  -0.051732  0  3.912381  0
C  C52  1  0.46577509  0.73457940  0.52791148  1  0.000149  0  -0.010538  -0.051485  0  3.912818  0
C  C53  1  0.46270073  0.23147542  0.56635621  1  -0.03659  0  -0.074864  -0.071086  0  3.950253  0
C  C54  1  0.51788833  0.52445780  0.25316493  1  0.002209  0  0.003546  -0.016158  0  3.880497  0
C  C55  1  0.53229347  0.76714220  0.56492611  1  -0.01641  0  -0.077433  -0.071437  0  3.981265  0
C  C56  1  0.46243584  0.15403707  0.58801356  1  -0.004753  0  -0.07995  -0.123034  0  3.951597  0
C  C57  1  0.53122239  0.84468552  0.58554100  1  -0.013306  0  -0.082455  -0.125974  0  3.964324  0
C  C58  1  0.53362333  0.10431097  0.56885956  1  -0.042825  0  -0.00063  0.130558  0  4.036353  0
C  C59  1  0.46292528  0.89497679  0.56794445  1  0.006739  0  0.00043  0.133717  0  4.034747  0
C  C60  1  0.60681573  0.13735291  0.53471078  1  -0.047937  0  -0.07755  -0.140479  0  3.927904  0
C  C61  1  0.39405834  0.86258762  0.53484686  1  0.011141  0  -0.0761  -0.138328  0  3.921531  0
C  C62  1  0.60779479  0.21549990  0.51385240  1  -0.172649  0  -0.007209  -0.086623  0  3.907726  0
C  C63  1  0.39455482  0.78425017  0.51501123  1  -0.19537  0  -0.005145  -0.085056  0  3.909107  0
C  C64  1  0.53308407  0.02025778  0.57644280  1  -0.079271  0  -0.080465  -0.122196  0  3.975512  0
C  C65  1  0.47500403  0.50693403  0.72713684  1  -0.080309  0  0.010128  0.000672  0  3.885125  0
C  C66  1  0.46276989  0.97887092  0.57635613  1  0.001407  0  -0.081407  -0.123883  0  3.978457  0
C  C67  1  0.13233976  0.35990549  0.38415242  1  -0.088701  0  -0.228819  -0.412552  0  3.984966  0
C  C68  1  0.86872529  0.59335068  0.62925003  1  -0.034739  0  -0.228453  -0.411948  0  3.98577  0
C  C69  1  0.45664639  0.49057111  0.21049200  1  -0.001343  0  -0.070598  -0.066647  0  3.951507  0
C  C70  1  0.54066337  0.54178735  0.76300412  1  0.0017  0  -0.07006  -0.06956  0  3.947682  0
C  C71  1  0.45555818  0.49855724  0.12984067  1  0.019496  0  -0.072403  -0.124545  0  3.937502  0
C  C72  1  0.53843560  0.55221455  0.84367719  1  0.021905  0  -0.069405  -0.121196  0  3.925241  0
C  C73  1  0.51673819  0.54263791  0.08932701  1  0.277604  0  0.094548  0.18351  0  4.032673  0
S  S74  1  0.29643407  0.75643530  0.47867317  1  3.137062  0  0.523578  1.156494  0  6.082715  0
S  S75  1  0.70988787  0.24519161  0.47445634  1  3.131012  0  0.520007  1.152134  0  6.067524  0
S  S76  1  0.65868865  0.61771951  0.26125482  1  3.031816  0  0.541352  1.166355  0  5.93817  0
S  S77  1  0.32007040  0.43543924  0.73329099  1  3.044971  0  0.544534  1.162242  0  5.951975  0
N  N78  1  0.52376257  0.55138908  0.00657454  1  -0.450968  0  -0.145106  -0.133456  0  3.246397  0
N  N79  1  0.46167557  0.52579871  0.97364597  1  -0.466615  0  -0.144696  -0.131181  0  3.290091  0
N  N80  1  0.28401462  0.48248041  0.48407828  1  -1.253561  0  -0.326317  -0.207782  0  3.567417  0
N  N81  1  0.71724961  0.50969372  0.49521189  1  -1.247021  0  -0.320096  -0.196989  0  3.551582  0
N  N82  1  0.02444374  0.47732136  0.46286582  1  -0.439448  0  -0.120071  -0.090832  0  3.244243  0
N  N83  1  0.97722990  0.50461080  0.51989710  1  -0.455707  0  -0.121229  -0.099298  0  3.233843  0
O  O84  1  0.57769030  0.52360757  0.37643171  1  -1.150698  0  -0.297733  -0.524411  0  2.420896  0
O  O85  1  0.25238992  0.82509278  0.45178011  1  -1.297805  0  -0.328262  -0.535572  0  2.100359  0
O  O86  1  0.32464358  0.70566668  0.40452396  1  -1.264607  0  -0.36909  -0.535676  0  2.177981  0
O  O87  1  0.74133276  0.29667481  0.53104039  1  -1.297896  0  -0.337886  -0.556445  0  2.105557  0
O  O88  1  0.75964499  0.17686999  0.44910405  1  -1.300128  0  -0.328189  -0.534648  0  2.101472  0
O  O89  1  0.68854357  0.29174505  0.39799427  1  -1.256006  0  -0.375576  -0.544723  0  2.176076  0
O  O90  1  0.61837496  0.67240217  0.31645397  1  -1.265657  0  -0.301075  -0.492183  0  2.101982  0
O  O91  1  0.72575862  0.56312299  0.28050161  1  -1.288138  0  -0.323941  -0.55763  0  2.128885  0
O  O92  1  0.69915294  0.67010056  0.18945197  1  -1.171405  0  -0.366461  -0.539799  0  2.124612  0
O  O93  1  0.25862168  0.49154812  0.70617962  1  -1.286054  0  -0.316047  -0.543602  0  2.126567  0
O  O94  1  0.35529770  0.37228610  0.68529247  1  -1.275737  0  -0.293951  -0.498033  0  2.147792  0
O  O95  1  0.41771611  0.51441526  0.60339526  1  -1.149811  0  -0.297774  -0.522551  0  2.379748  0
O  O96  1  0.27521716  0.39573707  0.81135722  1  -1.187428  0  -0.366416  -0.539291  0  2.12374  0
O  O97  1  0.44477781  0.48301764  0.37048040  1  -1.160316  0  -0.313763  -0.543816  0  2.336555  0
O  O98  1  0.55715756  0.48093982  0.60855759  1  -1.144728  0  -0.306435  -0.529236  0  2.310426  0
O  O99  1  0.58363748  0.38401062  0.46993311  1  -1.182161  0  -0.311476  -0.561182  0  2.41324  0
O  O100  1  0.42325581  0.61477944  0.47117600  1  -1.180682  0  -0.305032  -0.553071  0  2.385184  0
O  O101  1  0.44686381  0.37684578  0.51063709  1  -1.154793  0  -0.297845  -0.517233  0  2.357967  0
O  O102  1  0.54881288  0.61751143  0.52288507  1  -1.16195  0  -0.302285  -0.530999  0  2.344424  0
O  O103  1  0.25569073  0.70979109  0.53970316  1  -1.305504  0  -0.33261  -0.566271  0  2.141028  0
