# generated using pymatgen
data_Ba2H2C4O9
_symmetry_space_group_name_H-M   'P 1'
_cell_length_a   6.27971924
_cell_length_b   8.72186207
_cell_length_c   9.26420516
_cell_angle_alpha   65.16826049
_cell_angle_beta   85.28155746
_cell_angle_gamma   84.52074821
_symmetry_Int_Tables_number   1
_chemical_formula_structural   Ba2H2C4O9
_chemical_formula_sum   'Ba4 H4 C8 O18'
_cell_volume   457.89237951
_cell_formula_units_Z   2
loop_
 _symmetry_equiv_pos_site_id
 _symmetry_equiv_pos_as_xyz
  1  'x, y, z'
loop_
 _atom_site_type_symbol
 _atom_site_label
 _atom_site_symmetry_multiplicity
 _atom_site_fract_x
 _atom_site_fract_y
 _atom_site_fract_z
 _atom_site_occupancy
 _atom_site_hle17_bader_spin_density
 _atom_site_hle17_ddec_charge
 _atom_site_hle17_ddec_spin_density
 _atom_site_hle17_ddec_sum_bond_order
 _atom_site_hle17_magmom
 _atom_site_hse06_10hf_bader_spin_density
 _atom_site_hse06_10hf_ddec_charge
 _atom_site_hse06_10hf_ddec_spin_density
 _atom_site_hse06_10hf_ddec_sum_bond_order
 _atom_site_hse06_10hf_magmom
 _atom_site_hse06_bader_spin_density
 _atom_site_hse06_ddec_charge
 _atom_site_hse06_ddec_spin_density
 _atom_site_hse06_ddec_sum_bond_order
 _atom_site_hse06_magmom
 _atom_site_pbe_bader_spin_density
 _atom_site_pbe_cm5_charge
 _atom_site_pbe_ddec_charge
 _atom_site_pbe_ddec_spin_density
 _atom_site_pbe_ddec_sum_bond_order
 _atom_site_pbe_magmom
Ba  Ba0  1  0.28114644  0.04406913  0.79360780  1  0  1.635256  0  1.159886  0  0  1.480244  0  1.559955  0  0  1.522963  0  1.51743  0  0  0.990728  1.448767  0  1.59015  0
Ba  Ba1  1  0.71885122  0.95593206  0.20639043  1  0  1.635261  0  1.159887  0  0  1.480243  0  1.559961  0  0  1.522963  0  1.517431  0  0  0.990755  1.448768  0  1.590156  0
Ba  Ba2  1  0.20609633  0.63822062  0.58165167  1  0  1.653293  0  1.163617  0  0  1.506105  0  1.562647  0  0  1.547392  0  1.51931  0  0  0.986723  1.475677  0  1.59347  0
Ba  Ba3  1  0.79390283  0.36178186  0.41834811  1  0  1.653326  0  1.163566  0  0  1.506104  0  1.562654  0  0  1.54739  0  1.519315  0  0  0.986731  1.475674  0  1.593477  0
H  H4  1  0.31740008  0.39034811  0.94897685  1  0  0.419068  0  0.879984  0  0  0.390638  0  0.940209  0  0  0.400715  0  0.925257  0  0  0.304228  0.383465  0  0.950859  0
H  H5  1  0.68260769  0.60964674  0.05102225  1  0  0.41911  0  0.879944  0  0  0.390661  0  0.940194  0  0  0.400741  0  0.925245  0  0  0.304214  0.383485  0  0.950848  0
H  H6  1  0.33157500  0.57797557  0.92767309  1  0  0.407604  0  0.860525  0  0  0.384928  0  0.929801  0  0  0.393007  0  0.917994  0  0  0.316031  0.379164  0  0.936489  0
H  H7  1  0.66842672  0.42201555  0.07233649  1  0  0.40762  0  0.860456  0  0  0.384918  0  0.92979  0  0  0.393001  0  0.918002  0  0  0.316021  0.379153  0  0.936476  0
C  C8  1  0.81673150  0.92208296  0.67705336  1  0  0.576173  0  3.923908  0  0  0.533204  0  4.217169  0  0  0.564711  0  4.205965  0  0  0.23774  0.511663  0  4.224207  0
C  C9  1  0.18326275  0.07792076  0.32294297  1  0  0.576108  0  3.923867  0  0  0.533208  0  4.217014  0  0  0.564723  0  4.205793  0  0  0.237732  0.511668  0  4.224051  0
C  C10  1  0.67235445  0.81781282  0.62924493  1  0  0.561517  0  3.941883  0  0  0.519225  0  4.23511  0  0  0.549621  0  4.225043  0  0  0.233526  0.498397  0  4.241441  0
C  C11  1  0.32764779  0.18219091  0.37075202  1  0  0.56149  0  3.941911  0  0  0.519188  0  4.235106  0  0  0.549589  0  4.225033  0  0  0.233506  0.498358  0  4.241436  0
C  C12  1  0.87039562  0.27816599  0.82150491  1  0  0.560392  0  3.942239  0  0  0.516483  0  4.233417  0  0  0.546529  0  4.224696  0  0  0.222447  0.495976  0  4.238796  0
C  C13  1  0.12960854  0.72183394  0.17849453  1  0  0.560384  0  3.942342  0  0  0.51646  0  4.23353  0  0  0.546502  0  4.224809  0  0  0.222423  0.495953  0  4.238911  0
C  C14  1  0.62155410  0.29596060  0.81619857  1  0  0.551671  0  3.942137  0  0  0.507509  0  4.234643  0  0  0.537864  0  4.224572  0  0  0.225551  0.486779  0  4.241003  0
C  C15  1  0.37844027  0.70404189  0.18380364  1  0  0.551697  0  3.942157  0  0  0.50759  0  4.234558  0  0  0.537947  0  4.224482  0  0  0.225541  0.486861  0  4.240919  0
O  O16  1  0.01483992  0.87958357  0.68609877  1  0  -0.673021  0  2.038738  0  0  -0.612704  0  2.280974  0  0  -0.639309  0  2.273095  0  0  -0.369181  -0.593973  0  2.285928  0
O  O17  1  0.98515391  0.12042523  0.31389770  1  0  -0.673009  0  2.038817  0  0  -0.612713  0  2.281004  0  0  -0.639322  0  2.273122  0  0  -0.369176  -0.593981  0  2.285958  0
O  O18  1  0.72464102  0.04891774  0.69675315  1  0  -0.710707  0  2.022963  0  0  -0.649429  0  2.264599  0  0  -0.676884  0  2.257198  0  0  -0.354467  -0.629928  0  2.269069  0
O  O19  1  0.27535184  0.95108346  0.30324535  1  0  -0.710671  0  2.022939  0  0  -0.649415  0  2.264528  0  0  -0.676872  0  2.25712  0  0  -0.35447  -0.629916  0  2.268999  0
O  O20  1  0.75693847  0.75368713  0.53616052  1  0  -0.694384  0  2.010681  0  0  -0.637518  0  2.255484  0  0  -0.662694  0  2.247021  0  0  -0.347637  -0.619585  0  2.260791  0
O  O21  1  0.24306389  0.24631534  0.46383908  1  0  -0.694388  0  2.010724  0  0  -0.637528  0  2.255547  0  0  -0.662706  0  2.24708  0  0  -0.347616  -0.619593  0  2.260852  0
O  O22  1  0.47843984  0.80933436  0.68114734  1  0  -0.695306  0  2.040617  0  0  -0.636465  0  2.28659  0  0  -0.662527  0  2.277678  0  0  -0.377021  -0.61804  0  2.292198  0
O  O23  1  0.52156259  0.19066679  0.31884523  1  0  -0.695272  0  2.040607  0  0  -0.636438  0  2.286593  0  0  -0.662493  0  2.277657  0  0  -0.377024  -0.618012  0  2.292199  0
O  O24  1  0.97778144  0.35491434  0.69148030  1  0  -0.739317  0  2.077822  0  0  -0.673635  0  2.32884  0  0  -0.700422  0  2.31988  0  0  -0.404482  -0.654729  0  2.334567  0
O  O25  1  0.02221930  0.64508811  0.30851616  1  0  -0.739322  0  2.077831  0  0  -0.673636  0  2.328851  0  0  -0.700425  0  2.319894  0  0  -0.404463  -0.65473  0  2.334579  0
O  O26  1  0.95089011  0.18090390  0.95143710  1  0  -0.638825  0  2.018352  0  0  -0.583297  0  2.252575  0  0  -0.60793  0  2.245811  0  0  -0.356138  -0.566088  0  2.256857  0
O  O27  1  0.04911127  0.81909097  0.04856452  1  0  -0.638855  0  2.018411  0  0  -0.583334  0  2.25265  0  0  -0.607964  0  2.245885  0  0  -0.356126  -0.566126  0  2.256934  0
O  O28  1  0.53804290  0.37730247  0.68312144  1  0  -0.694588  0  2.061644  0  0  -0.63632  0  2.312095  0  0  -0.661236  0  2.302423  0  0  -0.358814  -0.618839  0  2.318436  0
O  O29  1  0.46195774  0.62270126  0.31687667  1  0  -0.694582  0  2.061578  0  0  -0.636333  0  2.311994  0  0  -0.661247  0  2.302317  0  0  -0.358812  -0.618854  0  2.318336  0
O  O30  1  0.51657698  0.21919386  0.94758604  1  0  -0.697959  0  2.027231  0  0  -0.63688  0  2.260153  0  0  -0.66198  0  2.25068  0  0  -0.352081  -0.619255  0  2.266307  0
O  O31  1  0.48342260  0.78080358  0.05241897  1  0  -0.697969  0  2.027256  0  0  -0.636909  0  2.260163  0  0  -0.662009  0  2.250686  0  0  -0.352066  -0.619281  0  2.266317  0
O  O32  1  0.23750034  0.50192617  0.91572420  1  0  -0.820872  0  1.784502  0  0  -0.772073  0  1.949826  0  0  -0.789809  0  1.922602  0  0  -0.597177  -0.759437  0  1.967205  0
O  O33  1  0.76250743  0.49806868  0.08427491  1  0  -0.820922  0  1.784384  0  0  -0.772082  0  1.949728  0  0  -0.78983  0  1.922513  0  0  -0.597146  -0.759444  0  1.967112  0
