# generated using pymatgen
data_Zn3H32C36N4O13
_symmetry_space_group_name_H-M   'P 1'
_cell_length_a   21.28474736
_cell_length_b   21.28417009
_cell_length_c   24.44800924
_cell_angle_alpha   116.13943870
_cell_angle_beta   116.12946377
_cell_angle_gamma   89.65318483
_symmetry_Int_Tables_number   1
_chemical_formula_structural   Zn3H32C36N4O13
_chemical_formula_sum   'Zn6 H64 C72 N8 O26'
_cell_volume   8680.56258674
_cell_formula_units_Z   2
loop_
 _symmetry_equiv_pos_site_id
 _symmetry_equiv_pos_as_xyz
  1  'x, y, z'
loop_
 _atom_site_type_symbol
 _atom_site_label
 _atom_site_symmetry_multiplicity
 _atom_site_fract_x
 _atom_site_fract_y
 _atom_site_fract_z
 _atom_site_occupancy
 _atom_site_pbe_bader_charge
 _atom_site_pbe_bader_spin_density
 _atom_site_pbe_cm5_charge
 _atom_site_pbe_ddec_charge
 _atom_site_pbe_ddec_spin_density
 _atom_site_pbe_ddec_sum_bond_order
 _atom_site_pbe_magmom
Zn  Zn0  1  0.43470915  0.99930978  0.50102204  1  1.316932  0  0.724815  0.961538  0  2.160795  0
Zn  Zn1  1  0.46463697  0.46356197  0.42995733  1  1.301959  0  0.716701  0.945181  0  2.167251  0
Zn  Zn2  1  0.53646045  0.53541719  0.57009911  1  1.305152  0  0.71674  0.945157  0  2.167087  0
Zn  Zn3  1  0.00069900  0.56529214  0.49895257  1  1.316994  0  0.724806  0.961391  0  2.160645  0
Zn  Zn4  1  0.55798417  0.99770793  0.49488904  1  1.29671  0  0.71944  0.941584  0  2.14384  0
Zn  Zn5  1  0.00225758  0.44200598  0.50505463  1  1.296454  0  0.719326  0.941576  0  2.14339  0
H  H6  1  0.45233511  0.84305665  0.28312430  1  0.096487  0  0.109069  0.115548  0  0.987084  0
H  H7  1  0.22208804  0.39263029  0.51780397  1  0.026204  0  0.090812  0.088967  0  0.979795  0
H  H8  1  0.63834538  0.37098288  0.37790185  1  0.05748  0  0.093661  0.093549  0  0.979496  0
H  H9  1  0.26930502  0.93137026  0.27955460  1  0.096749  0  0.110508  0.115327  0  0.984245  0
H  H10  1  0.06861523  0.73068248  0.72046062  1  0.09681  0  0.110434  0.115203  0  0.984227  0
H  H11  1  0.47479269  0.85988603  0.57680623  1  0.064055  0  0.092822  0.097106  0  0.99132  0
H  H12  1  0.14038025  0.52561227  0.42352092  1  0.062368  0  0.092687  0.096845  0  0.991557  0
H  H13  1  0.56737430  0.86724770  0.62798297  1  0.025534  0  0.091505  0.088213  0  0.974738  0
H  H14  1  0.60694277  0.77758190  0.48163391  1  0.026918  0  0.091687  0.090057  0  0.978312  0
H  H15  1  0.13284850  0.43305695  0.37203298  1  0.004866  0  0.09155  0.088371  0  0.974012  0
H  H16  1  0.52886712  0.76136953  0.62413011  1  0.051116  0  0.093258  0.095815  0  0.987882  0
H  H17  1  0.23885169  0.47166006  0.37612677  1  0.022181  0  0.09312  0.095724  0  0.988115  0
H  H18  1  0.44227754  0.74226254  0.55363658  1  0.00189  0  0.089666  0.086179  0  0.975569  0
H  H19  1  0.25811886  0.55808684  0.44692915  1  -0.003802  0  0.090093  0.086352  0  0.976336  0
H  H20  1  0.41742287  0.77627202  0.44572172  1  0.040417  0  0.093016  0.095071  0  0.979551  0
H  H21  1  0.22397810  0.58245541  0.55462203  1  0.045153  0  0.093647  0.095673  0  0.978967  0
H  H22  1  0.65490018  0.10538665  0.65963778  1  0.652057  0  0.304869  0.359063  0  0.966801  0
H  H23  1  0.89451526  0.34507582  0.34031355  1  0.652496  0  0.304673  0.358778  0  0.967153  0
H  H24  1  0.64793405  0.83837176  0.57189172  1  0.018837  0  0.092373  0.09173  0  0.980903  0
H  H25  1  0.16128474  0.35200998  0.42758447  1  0.027843  0  0.092635  0.091979  0  0.980969  0
H  H26  1  0.63379129  0.74734375  0.59844335  1  0.016716  0  0.093905  0.094257  0  0.978562  0
H  H27  1  0.25234977  0.36627117  0.40109605  1  0.011714  0  0.094213  0.094041  0  0.977706  0
H  H28  1  0.15696543  0.54765703  0.71684616  1  0.096799  0  0.10923  0.115816  0  0.987025  0
H  H29  1  0.61839395  0.68725621  0.51347624  1  0.028503  0  0.090887  0.086613  0  0.990509  0
H  H30  1  0.31235307  0.38111357  0.48586963  1  0.003413  0  0.090535  0.086645  0  0.99044  0
H  H31  1  0.47000656  0.75818351  0.40361747  1  0.008241  0  0.092055  0.088281  0  0.976635  0
H  H32  1  0.24175908  0.52949177  0.59631560  1  0.006546  0  0.092116  0.088478  0  0.977419  0
H  H33  1  0.49107486  0.65408513  0.41298794  1  0.018574  0  0.091342  0.091438  0  0.978786  0
H  H34  1  0.34579950  0.50829481  0.58687600  1  0.032776  0  0.091208  0.091526  0  0.977963  0
H  H35  1  0.74936075  0.20729756  0.84331074  1  0.129971  0  0.114495  0.133589  0  0.993781  0
H  H36  1  0.79257526  0.25059517  0.15664617  1  0.128507  0  0.11468  0.134056  0  0.993259  0
H  H37  1  0.56129864  0.15416866  0.85434774  1  0.082627  0  0.105434  0.110601  0  1.010152  0
H  H38  1  0.84578407  0.43862807  0.14558381  1  0.085336  0  0.1055  0.110664  0  1.010493  0
H  H39  1  0.39126267  0.78147819  0.15283660  1  0.107143  0  0.109073  0.108385  0  1.008695  0
H  H40  1  0.21851967  0.60872199  0.84712543  1  0.107483  0  0.108986  0.10828  0  1.008779  0
H  H41  1  0.49012586  0.08992706  0.72360985  1  0.101671  0  0.109498  0.114955  0  0.984064  0
H  H42  1  0.91003828  0.50981456  0.27631552  1  0.102361  0  0.109664  0.115128  0  0.9837  0
H  H43  1  0.44407313  0.21923977  0.54633905  1  0.01474  0  0.091318  0.090559  0  0.978462  0
H  H44  1  0.41683269  0.65800624  0.42747017  1  0.005101  0  0.092441  0.093246  0  0.980227  0
H  H45  1  0.78090192  0.55611933  0.45386941  1  0.016296  0  0.091359  0.090696  0  0.977733  0
H  H46  1  0.40504670  0.17106013  0.45488682  1  0.058522  0  0.091118  0.09225  0  0.982036  0
H  H47  1  0.82904921  0.59504811  0.54531050  1  0.012943  0  0.091218  0.092371  0  0.982282  0
H  H48  1  0.41513824  0.27614429  0.44645218  1  0.043572  0  0.092481  0.095217  0  0.979763  0
H  H49  1  0.72393217  0.58496035  0.55369247  1  0.040321  0  0.092852  0.09688  0  0.97869  0
H  H50  1  0.34220237  0.58282267  0.57283607  1  0.009929  0  0.09287  0.093294  0  0.980889  0
H  H51  1  0.42617448  0.32080800  0.53166265  1  0.021042  0  0.09037  0.084848  0  0.986897  0
H  H52  1  0.67932811  0.57399184  0.46852488  1  0.022486  0  0.090516  0.084893  0  0.986688  0
H  H53  1  0.57914754  0.24043551  0.62376422  1  0.038609  0  0.09206  0.091167  0  0.979185  0
H  H54  1  0.75960731  0.42108511  0.37631083  1  0.037962  0  0.092144  0.09105  0  0.978991  0
H  H55  1  0.55401946  0.35114547  0.63297343  1  0.036573  0  0.092609  0.091827  0  0.975481  0
H  H56  1  0.64890198  0.44613816  0.36711298  1  0.034442  0  0.093019  0.092564  0  0.975839  0
H  H57  1  0.58256827  0.17602491  0.45488806  1  0.021014  0  0.093075  0.095658  0  0.988359  0
H  H58  1  0.82392919  0.41739226  0.54505038  1  0.021314  0  0.093071  0.095565  0  0.988477  0
H  H59  1  0.48959147  0.16716713  0.40385801  1  0.023043  0  0.091481  0.088157  0  0.972687  0
H  H60  1  0.83285206  0.51037327  0.59617601  1  0.02305  0  0.091503  0.088236  0  0.972479  0
H  H61  1  0.52333146  0.28483671  0.42765183  1  0.046385  0  0.093178  0.098095  0  0.992036  0
H  H62  1  0.71518015  0.47669205  0.57237792  1  0.046256  0  0.093303  0.098038  0  0.992074  0
H  H63  1  0.21061808  0.87505933  0.14950306  1  0.090303  0  0.108876  0.108945  0  1.005558  0
H  H64  1  0.12489580  0.78936002  0.85050796  1  0.088952  0  0.1088  0.108763  0  1.005905  0
H  H65  1  0.60928611  0.30086872  0.49776242  1  -0.018417  0  0.088956  0.082605  0  0.988741  0
H  H66  1  0.69909979  0.39074750  0.50220595  1  -0.017424  0  0.088954  0.082703  0  0.988719  0
H  H67  1  0.63496563  0.24048643  0.58757895  1  0.043354  0  0.093709  0.094446  0  0.978054  0
H  H68  1  0.75953367  0.36512647  0.41235315  1  0.04462  0  0.093553  0.094276  0  0.977479  0
H  H69  1  0.62913342  0.36170228  0.62213922  1  0.0562  0  0.093573  0.093169  0  0.97993  0
C  C70  1  0.53003261  0.88781858  0.51055956  1  1.52073  0  0.228718  0.603299  0  4.064365  0
C  C71  1  0.26416269  0.79246008  0.06697815  1  0.899356  0  0.242672  0.252669  0  3.968047  0
C  C72  1  0.80612433  0.47815468  0.48980979  1  0.038661  0  -0.014841  0.023479  0  3.802806  0
C  C73  1  0.52633039  0.32413858  0.52746844  1  0.059048  0  -0.016462  0.023069  0  3.805436  0
C  C74  1  0.67590853  0.47378000  0.47260288  1  0.050312  0  -0.016444  0.023664  0  3.805311  0
C  C75  1  0.57598561  0.32681168  0.59723470  1  -0.047575  0  -0.160513  -0.176637  0  3.879775  0
C  C76  1  0.67322942  0.42414839  0.40282810  1  -0.043305  0  -0.160722  -0.178048  0  3.880197  0
C  C77  1  0.55142480  0.27900280  0.47441534  1  0.002561  0  -0.159299  -0.174168  0  3.860663  0
C  C78  1  0.20748985  0.73578728  0.93300609  1  0.908591  0  0.242518  0.252433  0  3.968809  0
C  C79  1  0.72099697  0.44861294  0.52559757  1  0.001467  0  -0.159458  -0.174571  0  3.860887  0
C  C80  1  0.36941057  0.48371730  0.47595278  1  1.528616  0  0.226699  0.601508  0  4.063145  0
C  C81  1  0.51620120  0.63062295  0.52408289  1  1.527162  0  0.22636  0.600882  0  4.063572  0
C  C82  1  0.60313610  0.47775759  0.46918428  1  1.526875  0  0.226302  0.601727  0  4.069307  0
C  C83  1  0.52238108  0.39691944  0.53088931  1  1.525825  0  0.22705  0.602912  0  4.068376  0
C  C84  1  0.53834083  0.07002565  0.63351008  1  1.405383  0  0.216071  0.608649  0  4.129855  0
C  C85  1  0.92993008  0.46163624  0.36643850  1  1.40579  0  0.215638  0.607587  0  4.130254  0
C  C86  1  0.39882484  0.84857573  0.25324895  1  0.058905  0  -0.078465  -0.084641  0  3.965562  0
C  C87  1  0.15142102  0.60115913  0.74672347  1  0.057895  0  -0.078678  -0.085181  0  3.965696  0
C  C88  1  0.36522084  0.81489962  0.18096913  1  -0.110377  0  -0.080159  -0.106828  0  3.966452  0
C  C89  1  0.51852176  0.83197779  0.57836218  1  -0.052677  0  -0.157625  -0.174032  0  3.858236  0
C  C90  1  0.18508715  0.63475649  0.81900006  1  -0.110365  0  -0.080092  -0.106487  0  3.966352  0
C  C91  1  0.29746493  0.82508722  0.14321303  1  0.003113  0  -4e-06  0.022086  0  3.988507  0
C  C92  1  0.17488564  0.70250500  0.85677305  1  -0.004589  0  0.000193  0.022139  0  3.988822  0
C  C93  1  0.26303691  0.86736457  0.17908266  1  0.023143  0  -0.077854  -0.105795  0  3.95769  0
C  C94  1  0.13261875  0.73695032  0.82092744  1  0.023384  0  -0.07797  -0.105839  0  3.957934  0
C  C95  1  0.16815859  0.48177206  0.42177778  1  -0.030637  0  -0.157506  -0.173604  0  3.857969  0
C  C96  1  0.29586591  0.89898746  0.25145492  1  -0.050285  0  -0.078077  -0.087677  0  3.960536  0
C  C97  1  0.10099419  0.70411594  0.74855079  1  -0.049747  0  -0.077883  -0.087358  0  3.960522  0
C  C98  1  0.50022180  0.75852030  0.57292050  1  -0.016603  0  -0.157042  -0.174248  0  3.869968  0
C  C99  1  0.24167229  0.50008000  0.42734049  1  0.018322  0  -0.157187  -0.174005  0  3.870748  0
C  C100  1  0.11213904  0.46997086  0.48934314  1  1.519968  0  0.228558  0.604113  0  4.063854  0
C  C101  1  0.46769152  0.76087234  0.44865848  1  -0.018398  0  -0.158462  -0.175075  0  3.867233  0
C  C102  1  0.23918286  0.53205035  0.55141885  1  -0.019465  0  -0.159143  -0.176437  0  3.869494  0
C  C103  1  0.60118338  0.79407879  0.52827738  1  0.006141  0  -0.1605  -0.176497  0  3.881761  0
C  C104  1  0.20567051  0.39863025  0.47130168  1  -0.004017  0  -0.159256  -0.174831  0  3.881932  0
C  C105  1  0.53149559  0.82036192  0.51739313  1  0.038492  0  -0.016572  0.023316  0  3.804599  0
C  C106  1  0.17960762  0.46846880  0.48251930  1  0.040988  0  -0.017212  0.021884  0  3.807108  0
C  C107  1  0.52069877  0.70075679  0.52190188  1  0.03752  0  -0.016883  0.02149  0  3.803128  0
C  C108  1  0.29925589  0.47920962  0.47809310  1  0.031306  0  -0.01663  0.021318  0  3.802945  0
C  C109  1  0.47082638  0.68813277  0.44766996  1  0.021787  0  -0.162626  -0.175586  0  3.896234  0
C  C110  1  0.31191188  0.52881667  0.55239614  1  0.008523  0  -0.163203  -0.175676  0  3.897078  0
C  C111  1  0.59889808  0.73040819  0.54291645  1  -0.019895  0  -0.155833  -0.174626  0  3.851031  0
C  C112  1  0.26935187  0.40091752  0.45667335  1  0.008209  0  -0.155856  -0.174294  0  3.849152  0
C  C113  1  0.40436332  0.92930368  0.36703156  1  1.513451  0  0.223994  0.604629  0  4.131185  0
C  C114  1  0.07069650  0.59562567  0.63295629  1  1.512793  0  0.224118  0.604841  0  4.130687  0
C  C115  1  0.65443099  0.14232334  0.74461434  1  0.462659  0  0.096382  0.323487  0  4.04942  0
C  C116  1  0.36457049  0.89091023  0.28909575  1  0.040387  0  -0.008973  -0.018456  0  3.947567  0
C  C117  1  0.85758194  0.34553473  0.25533259  1  0.461561  0  0.096329  0.32356  0  4.048955  0
C  C118  1  0.69279667  0.18135303  0.81756442  1  0.073564  0  -0.092815  -0.23033  0  3.914462  0
C  C119  1  0.81854456  0.30715473  0.18238421  1  0.071428  0  -0.093434  -0.231174  0  3.91381  0
C  C120  1  0.65935958  0.18521319  0.85641317  1  -0.045987  0  -0.000799  0.047659  0  4.032038  0
C  C121  1  0.81469173  0.34058624  0.14353104  1  -0.020363  0  -1.2e-05  0.048148  0  4.032264  0
C  C122  1  0.10908544  0.63541733  0.71089208  1  0.040051  0  -0.009092  -0.018503  0  3.947362  0
C  C123  1  0.58616323  0.15118370  0.82301733  1  0.009109  0  -0.096913  -0.151352  0  4.000686  0
C  C124  1  0.84874779  0.41377488  0.17691397  1  0.006484  0  -0.097151  -0.15144  0  4.00172  0
C  C125  1  0.54713349  0.11534233  0.75079860  1  -0.048221  0  -0.082251  -0.05827  0  4.001974  0
C  C126  1  0.88461556  0.45281589  0.24914356  1  -0.04834  0  -0.082497  -0.058549  0  4.001989  0
C  C127  1  0.57987445  0.10975855  0.71032812  1  0.065638  0  -0.037297  -0.188593  0  3.975507  0
C  C128  1  0.89018461  0.42008875  0.28961881  1  0.067297  0  -0.036997  -0.188068  0  3.974984  0
C  C129  1  0.77459165  0.29815688  0.06706270  1  0.95107  0  0.24419  0.254831  0  3.964117  0
C  C130  1  0.70178286  0.22532195  0.93288550  1  0.973785  0  0.244619  0.255251  0  3.96407  0
C  C131  1  0.45010659  0.21441414  0.50235682  1  -0.040932  0  -0.16313  -0.174939  0  3.894253  0
C  C132  1  0.78568587  0.55001831  0.49780851  1  0.014968  0  -0.163252  -0.175215  0  3.894844  0
C  C133  1  0.44878515  0.28549298  0.49986939  1  -0.036662  0  -0.156985  -0.176256  0  3.872978  0
C  C134  1  0.71460213  0.55133899  0.50027881  1  -0.038804  0  -0.157879  -0.178297  0  3.873619  0
C  C135  1  0.58272424  0.24935563  0.58409600  1  -0.043336  0  -0.155394  -0.175619  0  3.846483  0
C  C136  1  0.75068009  0.41740920  0.41593450  1  -0.045546  0  -0.155153  -0.174744  0  3.845692  0
C  C137  1  0.52004782  0.11875324  0.50165680  1  1.521932  0  0.229293  0.604323  0  4.057855  0
C  C138  1  0.88126885  0.47999315  0.49837629  1  1.520522  0  0.22967  0.605144  0  4.05742  0
C  C139  1  0.53673734  0.19935642  0.45595603  1  -0.00434  0  -0.158288  -0.175743  0  3.871592  0
C  C140  1  0.80064176  0.46326468  0.54405150  1  -0.0059  0  -0.158181  -0.17543  0  3.871432  0
C  C141  1  0.52192816  0.19391631  0.51025997  1  0.035974  0  -0.014535  0.023945  0  3.802258  0
N  N142  1  0.21067090  0.81875921  0.03416656  1  -0.570945  0  -0.155479  -0.150255  0  3.202405  0
N  N143  1  0.79563468  0.31701342  0.03045168  1  -0.552212  0  -0.156243  -0.149518  0  3.200707  0
N  N144  1  0.68290164  0.20429764  0.96949440  1  -0.55283  0  -0.156179  -0.149512  0  3.200412  0
N  N145  1  0.72004425  0.24171189  0.03810078  1  -0.560093  0  -0.154831  -0.147627  0  3.206666  0
N  N146  1  0.75823477  0.27985528  0.96184518  1  -0.561922  0  -0.154836  -0.147605  0  3.206721  0
N  N147  1  0.18118025  0.78927078  0.96583223  1  -0.532471  0  -0.15552  -0.149775  0  3.202484  0
N  N148  1  0.26167190  0.71010645  0.96601510  1  -0.533424  0  -0.153955  -0.148327  0  3.208023  0
N  N149  1  0.28981289  0.73824483  0.03394619  1  -0.569181  0  -0.153874  -0.148138  0  3.207778  0
O  O150  1  0.47461397  0.91294355  0.50562201  1  -1.184972  0  -0.316004  -0.581924  0  2.383143  0
O  O151  1  0.48694532  0.39511505  0.47246809  1  -1.187539  0  -0.318271  -0.584449  0  2.378603  0
O  O152  1  0.60492324  0.51320768  0.52760607  1  -1.1891  0  -0.317885  -0.583843  0  2.378145  0
O  O153  1  0.54494504  0.44786573  0.40972326  1  -1.139407  0  -0.319013  -0.530687  0  2.225217  0
O  O154  1  0.55225816  0.45512605  0.59035141  1  -1.140091  0  -0.319315  -0.531226  0  2.224765  0
O  O155  1  0.58181749  0.91480438  0.50760537  1  -1.134073  0  -0.316241  -0.52658  0  2.238087  0
O  O156  1  0.08511994  0.41817490  0.49225853  1  -1.133322  0  -0.315963  -0.527008  0  2.238158  0
O  O157  1  0.08706142  0.52543235  0.49434674  1  -1.185315  0  -0.316104  -0.58186  0  2.382676  0
O  O158  1  0.36809779  0.94756075  0.39987852  1  -1.146085  0  -0.317852  -0.532059  0  2.228071  0
O  O159  1  0.05243857  0.63189787  0.60011975  1  -1.145659  0  -0.3179  -0.532135  0  2.227903  0
O  O160  1  0.47272725  0.94183034  0.39564463  1  -1.178908  0  -0.314395  -0.571815  0  2.33926  0
O  O161  1  0.05818164  0.52724827  0.60432807  1  -1.178732  0  -0.314317  -0.571898  0  2.338576  0
O  O162  1  0.46638537  0.08806001  0.49811856  1  -1.177752  0  -0.311014  -0.570848  0  2.378078  0
O  O163  1  0.91196476  0.53364214  0.50189803  1  -1.179517  0  -0.311069  -0.571083  0  2.377879  0
O  O164  1  0.57305540  0.09011782  0.49900592  1  -1.135369  0  -0.320848  -0.534588  0  2.241376  0
O  O165  1  0.90987802  0.42696415  0.50099787  1  -1.135116  0  -0.320971  -0.534912  0  2.241228  0
O  O166  1  0.46927842  0.05043554  0.60219589  1  -1.105754  0  -0.316058  -0.523272  0  2.220365  0
O  O167  1  0.94954054  0.53070547  0.39776800  1  -1.106364  0  -0.316109  -0.522977  0  2.220435  0
O  O168  1  0.57445469  0.05678708  0.60051815  1  -1.175446  0  -0.311283  -0.591341  0  2.375262  0
O  O169  1  0.94315512  0.42552252  0.39942802  1  -1.174455  0  -0.31087  -0.590699  0  2.375076  0
O  O170  1  0.42717991  0.51573848  0.53403017  1  -1.182499  0  -0.311603  -0.569581  0  2.363336  0
O  O171  1  0.48417817  0.57283036  0.46600805  1  -1.181254  0  -0.311082  -0.569137  0  2.363218  0
O  O172  1  0.69055094  0.13802093  0.71011081  1  -1.16106  0  -0.359015  -0.444409  0  2.236592  0
O  O173  1  0.36642903  0.45409781  0.41583724  1  -1.130779  0  -0.32103  -0.536022  0  2.242638  0
O  O174  1  0.86187057  0.30942402  0.28984211  1  -1.1608  0  -0.358771  -0.444226  0  2.237017  0
O  O175  1  0.54580984  0.63362281  0.58419893  1  -1.131364  0  -0.321129  -0.535833  0  2.242897  0
