# generated using pymatgen
data_ZnH8C11(N2O)2
_symmetry_space_group_name_H-M   'P 1'
_cell_length_a   9.55425048
_cell_length_b   9.60009585
_cell_length_c   12.23720000
_cell_angle_alpha   90.00000000
_cell_angle_beta   90.00000000
_cell_angle_gamma   98.84193665
_symmetry_Int_Tables_number   1
_chemical_formula_structural   ZnH8C11(N2O)2
_chemical_formula_sum   'Zn4 H32 C44 N16 O8'
_cell_volume   1109.07839185
_cell_formula_units_Z   4
loop_
 _symmetry_equiv_pos_site_id
 _symmetry_equiv_pos_as_xyz
  1  'x, y, z'
loop_
 _atom_site_type_symbol
 _atom_site_label
 _atom_site_symmetry_multiplicity
 _atom_site_fract_x
 _atom_site_fract_y
 _atom_site_fract_z
 _atom_site_occupancy
 _atom_site_hle17_bader_spin_density
 _atom_site_hle17_ddec_charge
 _atom_site_hle17_ddec_spin_density
 _atom_site_hle17_ddec_sum_bond_order
 _atom_site_hle17_magmom
 _atom_site_hse06_10hf_bader_spin_density
 _atom_site_hse06_10hf_ddec_charge
 _atom_site_hse06_10hf_ddec_spin_density
 _atom_site_hse06_10hf_ddec_sum_bond_order
 _atom_site_hse06_10hf_magmom
 _atom_site_hse06_bader_spin_density
 _atom_site_hse06_ddec_charge
 _atom_site_hse06_ddec_spin_density
 _atom_site_hse06_ddec_sum_bond_order
 _atom_site_hse06_magmom
 _atom_site_pbe_bader_charge
 _atom_site_pbe_bader_spin_density
 _atom_site_pbe_cm5_charge
 _atom_site_pbe_ddec_charge
 _atom_site_pbe_ddec_spin_density
 _atom_site_pbe_ddec_sum_bond_order
 _atom_site_pbe_magmom
Zn  Zn0  1  0.08315793  0.38462537  0.06161704  1  0  1.105335  0  1.948321  0  0  0.933555  0  2.438313  0  0  0.976288  0  2.381088  0  1.331196  0  0.743815  0.903646  0  2.477593  0
Zn  Zn1  1  0.58315742  0.88462486  0.43838296  1  0  1.105267  0  1.948336  0  0  0.933483  0  2.438338  0  0  0.976222  0  2.381113  0  1.331206  0  0.743781  0.903576  0  2.477614  0
Zn  Zn2  1  0.91684274  0.61537783  0.93838460  1  0  1.105307  0  1.948294  0  0  0.933526  0  2.438276  0  0  0.976262  0  2.381051  0  1.330981  0  0.743799  0.903618  0  2.477559  0
Zn  Zn3  1  0.41684220  0.11537833  0.56161704  1  0  1.105329  0  1.948271  0  0  0.933558  0  2.438237  0  0  0.976307  0  2.381015  0  1.331069  0  0.743821  0.90365  0  2.477514  0
H  H4  1  0.09844475  0.66497086  0.75569330  1  0  0.100548  0  0.989737  0  0  0.109931  0  1.053974  0  0  0.112838  0  1.053506  0  0.081869  0  0.095796  0.108079  0  1.054055  0
H  H5  1  0.59844674  0.16497453  0.74430670  1  0  0.10056  0  0.989768  0  0  0.109951  0  1.05398  0  0  0.112856  0  1.053513  0  0.081932  0  0.095813  0.10809  0  1.054073  0
H  H6  1  0.90155423  0.33502812  0.24430670  1  0  0.100561  0  0.989733  0  0  0.109946  0  1.053969  0  0  0.112853  0  1.053501  0  0.081917  0  0.095803  0.108094  0  1.054049  0
H  H7  1  0.40155707  0.83502867  0.25569411  1  0  0.10057  0  0.989746  0  0  0.109963  0  1.053963  0  0  0.112869  0  1.053494  0  0.08185  0  0.095815  0.1081  0  1.054056  0
H  H8  1  0.29391486  0.73057062  0.62582617  1  0  0.091701  0  0.942292  0  0  0.104518  0  0.998189  0  0  0.107276  0  0.996236  0  0.066217  0  0.100327  0.102318  0  0.999755  0
H  H9  1  0.79391879  0.23057324  0.87417383  1  0  0.091677  0  0.94227  0  0  0.104492  0  0.998177  0  0  0.10725  0  0.996223  0  0.066287  0  0.100313  0.102291  0  0.999743  0
H  H10  1  0.70608411  0.26942836  0.37417546  1  0  0.091689  0  0.942302  0  0  0.104528  0  0.998177  0  0  0.107285  0  0.996224  0  0.066205  0  0.10032  0.102324  0  0.999745  0
H  H11  1  0.20608591  0.76942890  0.12582454  1  0  0.091698  0  0.94228  0  0  0.104553  0  0.99814  0  0  0.107314  0  0.996183  0  0.066192  0  0.100317  0.10235  0  0.999706  0
H  H12  1  0.51670030  0.62611153  0.64198673  1  0  0.092015  0  0.971828  0  0  0.099588  0  1.038325  0  0  0.102558  0  1.037875  0  0.056686  0  0.093588  0.097336  0  1.038958  0
H  H13  1  0.01670395  0.12611204  0.85801327  1  0  0.092015  0  0.971824  0  0  0.099571  0  1.038342  0  0  0.10254  0  1.037891  0  0.056678  0  0.093564  0.097321  0  1.038973  0
H  H14  1  0.48329852  0.37388640  0.35801327  1  0  0.092025  0  0.97185  0  0  0.099607  0  1.038328  0  0  0.102579  0  1.037877  0  0.056675  0  0.093611  0.097356  0  1.038961  0
H  H15  1  0.98330042  0.87388800  0.14198428  1  0  0.092025  0  0.97187  0  0  0.099601  0  1.038355  0  0  0.102571  0  1.037905  0  0.056476  0  0.093598  0.09735  0  1.038988  0
H  H16  1  0.53725134  0.45411613  0.79242882  1  0  0.085914  0  0.976599  0  0  0.093764  0  1.044381  0  0  0.096272  0  1.042635  0  0.075802  0  0.099281  0.092438  0  1.044704  0
H  H17  1  0.03725071  0.95411457  0.70757036  1  0  0.085937  0  0.976634  0  0  0.093784  0  1.044413  0  0  0.096292  0  1.042671  0  0.075794  0  0.099297  0.092459  0  1.044736  0
H  H18  1  0.46274748  0.54588180  0.20757118  1  0  0.085907  0  0.976572  0  0  0.093748  0  1.044368  0  0  0.096256  0  1.042623  0  0.075796  0  0.099262  0.092424  0  1.044688  0
H  H19  1  0.96274794  0.04588231  0.29242801  1  0  0.085916  0  0.976563  0  0  0.093762  0  1.044349  0  0  0.096269  0  1.042605  0  0.075795  0  0.099271  0.092437  0  1.044671  0
H  H20  1  0.56825848  0.25285869  0.08525071  1  0  0.064305  0  0.956724  0  0  0.073989  0  1.024703  0  0  0.073257  0  1.027013  0  0.084429  0  0.09981  0.074279  0  1.023522  0
H  H21  1  0.06825851  0.75286135  0.41475011  1  0  0.064309  0  0.956724  0  0  0.073985  0  1.024698  0  0  0.073256  0  1.027011  0  0.084435  0  0.09981  0.074275  0  1.023517  0
H  H22  1  0.43174033  0.74713923  0.91474847  1  0  0.064277  0  0.956735  0  0  0.073975  0  1.024703  0  0  0.073249  0  1.027018  0  0.084391  0  0.099795  0.074262  0  1.023519  0
H  H23  1  0.93174112  0.24714185  0.58524989  1  0  0.064309  0  0.956743  0  0  0.074011  0  1.024697  0  0  0.073282  0  1.027009  0  0.084527  0  0.099816  0.074298  0  1.023515  0
H  H24  1  0.49074573  0.10929464  0.99991338  1  0  0.060318  0  0.947577  0  0  0.069559  0  1.017062  0  0  0.070382  0  1.015964  0  0.039595  0  0.100441  0.068637  0  1.018432  0
H  H25  1  0.99074642  0.60929518  0.50008417  1  0  0.060326  0  0.947525  0  0  0.069534  0  1.017028  0  0  0.070362  0  1.015931  0  0.039894  0  0.100434  0.068613  0  1.018397  0
H  H26  1  0.50925099  0.89070329  0.00008580  1  0  0.060302  0  0.947574  0  0  0.069535  0  1.017058  0  0  0.070365  0  1.015962  0  0.039786  0  0.100423  0.068613  0  1.018427  0
H  H27  1  0.00925360  0.39070380  0.49991338  1  0  0.060311  0  0.947597  0  0  0.069511  0  1.017113  0  0  0.070335  0  1.016021  0  0.039741  0  0.100439  0.068588  0  1.01848  0
H  H28  1  0.26471405  0.11184049  0.08613408  1  0  0.074201  0  0.946751  0  0  0.086562  0  1.014629  0  0  0.086065  0  1.016885  0  0.078368  0  0.100519  0.086696  0  1.013244  0
H  H29  1  0.76471281  0.61184209  0.41386592  1  0  0.074135  0  0.946793  0  0  0.086518  0  1.014645  0  0  0.08602  0  1.016898  0  0.078389  0  0.100501  0.086666  0  1.013248  0
H  H30  1  0.73528388  0.88815849  0.91386510  1  0  0.074139  0  0.946786  0  0  0.086525  0  1.014665  0  0  0.086026  0  1.016922  0  0.078435  0  0.100494  0.086662  0  1.013278  0
H  H31  1  0.23528423  0.38815794  0.58613572  1  0  0.074129  0  0.946807  0  0  0.086515  0  1.014662  0  0  0.086015  0  1.016917  0  0.078405  0  0.100507  0.08666  0  1.013268  0
H  H32  1  0.34406414  0.24898984  0.17394911  1  0  0.071891  0  0.934601  0  0  0.08718  0  0.997038  0  0  0.086382  0  0.999418  0  0.062355  0  0.101669  0.087632  0  0.995258  0
H  H33  1  0.84406395  0.74899144  0.32605171  1  0  0.071911  0  0.934568  0  0  0.087183  0  0.997027  0  0  0.086381  0  0.999409  0  0.06235  0  0.10167  0.087639  0  0.995246  0
H  H34  1  0.65593379  0.75100914  0.82605089  1  0  0.071898  0  0.93459  0  0  0.087203  0  0.997036  0  0  0.086405  0  0.999413  0  0.062339  0  0.10169  0.087652  0  0.99526  0
H  H35  1  0.15593293  0.25100755  0.67394829  1  0  0.071892  0  0.934617  0  0  0.087183  0  0.997066  0  0  0.086381  0  0.999449  0  0.06233  0  0.101688  0.087647  0  0.995278  0
C  C36  1  0.20553579  0.52701190  0.85378191  1  0  0.365532  0  3.824645  0  0  0.349377  0  4.073518  0  0  0.367051  0  4.088771  0  0.659759  0  0.090566  0.337585  0  4.062693  0
C  C37  1  0.70553763  0.02701452  0.64621891  1  0  0.365536  0  3.824602  0  0  0.34935  0  4.07351  0  0  0.367018  0  4.088768  0  0.659638  0  0.090528  0.337562  0  4.062687  0
C  C38  1  0.79446213  0.47298708  0.14621891  1  0  0.365578  0  3.824584  0  0  0.349421  0  4.073451  0  0  0.367091  0  4.088703  0  0.659664  0  0.090588  0.337634  0  4.062629  0
C  C39  1  0.29446272  0.97298657  0.35378109  1  0  0.365555  0  3.824645  0  0  0.349392  0  4.073517  0  0  0.367059  0  4.088772  0  0.659736  0  0.090555  0.337595  0  4.062693  0
C  C40  1  0.19582867  0.62055598  0.76511620  1  0  -0.228845  0  3.753147  0  0  -0.24366  0  4.001671  0  0  -0.253453  0  4.022988  0  -0.110945  0  -0.120041  -0.23737  0  3.986742  0
C  C41  1  0.69582978  0.12056070  0.73488216  1  0  -0.228835  0  3.753165  0  0  -0.243624  0  4.001658  0  0  -0.25342  0  4.022978  0  -0.110934  0  -0.120012  -0.237325  0  3.986723  0
C  C42  1  0.80416998  0.37944090  0.23488216  1  0  -0.228863  0  3.753142  0  0  -0.243685  0  4.001671  0  0  -0.253474  0  4.022985  0  -0.110902  0  -0.120037  -0.237393  0  3.98674  0
C  C43  1  0.30417210  0.87944355  0.26511702  1  0  -0.2289  0  3.753263  0  0  -0.243716  0  4.001781  0  0  -0.253509  0  4.023098  0  -0.11077  0  -0.120055  -0.237418  0  3.98686  0
C  C44  1  0.30568368  0.65627806  0.69138610  1  0  -0.027018  0  3.79153  0  0  -0.043418  0  4.043538  0  0  -0.038723  0  4.061587  0  0.003019  0  -0.092661  -0.046063  0  4.031076  0
C  C45  1  0.80568673  0.15628173  0.80861226  1  0  -0.027036  0  3.79139  0  0  -0.043447  0  4.043396  0  0  -0.038747  0  4.061445  0  0.002933  0  -0.092688  -0.046084  0  4.030931  0
C  C46  1  0.69431376  0.34371776  0.30861308  1  0  -0.02699  0  3.791458  0  0  -0.043405  0  4.043461  0  0  -0.038712  0  4.061513  0  0.003029  0  -0.09266  -0.046048  0  4.031  0
C  C47  1  0.19431693  0.84372041  0.19138528  1  0  -0.026936  0  3.791456  0  0  -0.043374  0  4.043464  0  0  -0.038678  0  4.061514  0  0.002878  0  -0.092599  -0.046011  0  4.030994  0
C  C48  1  0.43105273  0.59788048  0.70035629  1  0  -0.126557  0  3.816096  0  0  -0.141134  0  4.075695  0  0  -0.148048  0  4.097742  0  -0.041976  0  -0.115879  -0.136724  0  4.061072  0
C  C49  1  0.93105456  0.09788310  0.79964126  1  0  -0.126513  0  3.816048  0  0  -0.141076  0  4.075635  0  0  -0.147986  0  4.097678  0  -0.04194  0  -0.11584  -0.136668  0  4.061011  0
C  C50  1  0.56894576  0.40211534  0.29964207  1  0  -0.126544  0  3.816047  0  0  -0.141128  0  4.075652  0  0  -0.148044  0  4.097697  0  -0.04201  0  -0.115871  -0.13672  0  4.061029  0
C  C51  1  0.06894684  0.90211799  0.20035629  1  0  -0.126602  0  3.816036  0  0  -0.141178  0  4.075645  0  0  -0.148095  0  4.097691  0  -0.041773  0  -0.115906  -0.136771  0  4.061019  0
C  C52  1  0.44189988  0.50224385  0.78348969  1  0  -0.059851  0  3.77797  0  0  -0.087145  0  4.035936  0  0  -0.082784  0  4.055864  0  -0.047745  0  -0.093045  -0.089802  0  4.021922  0
C  C53  1  0.94190276  0.00224647  0.71650950  1  0  -0.059882  0  3.778085  0  0  -0.087172  0  4.036049  0  0  -0.082812  0  4.055965  0  -0.047786  0  -0.093033  -0.089834  0  4.022038  0
C  C54  1  0.55809756  0.49775197  0.21651031  1  0  -0.059877  0  3.777907  0  0  -0.087185  0  4.035877  0  0  -0.082818  0  4.055798  0  -0.047722  0  -0.093057  -0.089838  0  4.02186  0
C  C55  1  0.05809935  0.99775251  0.28348969  1  0  -0.059807  0  3.777931  0  0  -0.087104  0  4.035891  0  0  -0.082741  0  4.055806  0  -0.04771  0  -0.093003  -0.089763  0  4.021877  0
C  C56  1  0.33254696  0.46458839  0.86049505  1  0  -0.189453  0  3.766987  0  0  -0.171092  0  4.01021  0  0  -0.184546  0  4.033043  0  -0.030924  0  -0.036084  -0.162694  0  3.995224  0
C  C57  1  0.83254517  0.96459316  0.63950413  1  0  -0.189447  0  3.766974  0  0  -0.171076  0  4.010209  0  0  -0.18452  0  4.033038  0  -0.030843  0  -0.036093  -0.162671  0  3.99522  0
C  C58  1  0.66745257  0.53540742  0.13950413  1  0  -0.189478  0  3.767011  0  0  -0.171081  0  4.01021  0  0  -0.184539  0  4.033042  0  -0.030711  0  -0.036091  -0.162685  0  3.995224  0
C  C59  1  0.16745220  0.03540899  0.36049587  1  0  -0.189538  0  3.767073  0  0  -0.171165  0  4.010275  0  0  -0.184607  0  4.033104  0  -0.030731  0  -0.036132  -0.162759  0  3.995288  0
C  C60  1  0.35481636  0.36332769  0.94445135  1  0  0.464762  0  3.776201  0  0  0.419145  0  4.055326  0  0  0.446101  0  4.058483  0  1.150455  0  0.231812  0.400883  0  4.053089  0
C  C61  1  0.85481827  0.86332929  0.55555111  1  0  0.464687  0  3.776172  0  0  0.419066  0  4.055321  0  0  0.446018  0  4.058474  0  1.150431  0  0.231787  0.400802  0  4.053086  0
C  C62  1  0.64517915  0.63666918  0.05555029  1  0  0.464759  0  3.775981  0  0  0.419097  0  4.055142  0  0  0.446052  0  4.058297  0  1.150256  0  0.231805  0.400835  0  4.052908  0
C  C63  1  0.14517950  0.13666864  0.44444889  1  0  0.464813  0  3.776021  0  0  0.419188  0  4.05515  0  0  0.446141  0  4.058307  0  1.150204  0  0.231815  0.400924  0  4.052917  0
C  C64  1  0.47775532  0.21249609  0.03313503  1  0  0.075825  0  3.511791  0  0  0.019038  0  3.775471  0  0  0.026872  0  3.779492  0  0.377918  0  -0.061422  0.01376  0  3.773098  0
C  C65  1  0.97775497  0.71249664  0.46686497  1  0  0.075839  0  3.511756  0  0  0.019116  0  3.775381  0  0  0.026934  0  3.779419  0  0.377897  0  -0.061376  0.013836  0  3.77301  0
C  C66  1  0.52224140  0.78750183  0.96686415  1  0  0.075899  0  3.511773  0  0  0.019118  0  3.775419  0  0  0.026919  0  3.779478  0  0.377863  0  -0.061338  0.013846  0  3.773037  0
C  C67  1  0.02224434  0.28750445  0.53313585  1  0  0.075829  0  3.511782  0  0  0.019052  0  3.775485  0  0  0.02687  0  3.779521  0  0.37779  0  -0.06141  0.01378  0  3.773108  0
C  C68  1  0.33352637  0.21451591  0.08837397  1  0  0.005441  0  3.644699  0  0  -0.048806  0  3.901893  0  0  -0.045389  0  3.914757  0  0.273522  0  -0.071897  -0.050751  0  3.893022  0
C  C69  1  0.83352634  0.71451856  0.41162684  1  0  0.005388  0  3.644874  0  0  -0.048871  0  3.902096  0  0  -0.045451  0  3.914963  0  0.273523  0  -0.071935  -0.050832  0  3.893225  0
C  C70  1  0.66647052  0.78548307  0.91162603  1  0  0.005526  0  3.644814  0  0  -0.048803  0  3.902098  0  0  -0.045376  0  3.914969  0  0.273482  0  -0.071901  -0.05075  0  3.893227  0
C  C71  1  0.16647175  0.28548147  0.58837479  1  0  0.005503  0  3.64483  0  0  -0.04877  0  3.902065  0  0  -0.045345  0  3.914934  0  0.273506  0  -0.07193  -0.050737  0  3.89319  0
C  C72  1  0.85726848  0.11788097  0.08705831  1  0  0.540649  0  3.964664  0  0  0.496764  0  4.252793  0  0  0.522974  0  4.263942  0  1.610503  0  0.336313  0.47865  0  4.245554  0
C  C73  1  0.35726906  0.61788046  0.41294169  1  0  0.540611  0  3.964663  0  0  0.496729  0  4.25279  0  0  0.522941  0  4.263937  0  1.610496  0  0.336298  0.478617  0  4.245553  0
C  C74  1  0.14273606  0.88212012  0.91294250  1  0  0.540665  0  3.964721  0  0  0.496753  0  4.252843  0  0  0.522965  0  4.263988  0  1.610511  0  0.336344  0.478643  0  4.245607  0
C  C75  1  0.64273459  0.38212169  0.58705831  1  0  0.540612  0  3.964774  0  0  0.496687  0  4.252908  0  0  0.522899  0  4.264054  0  1.610478  0  0.336329  0.478576  0  4.245674  0
C  C76  1  0.70034984  0.98920835  0.20425996  1  0  0.538153  0  3.956687  0  0  0.497558  0  4.237948  0  0  0.523643  0  4.248793  0  1.607923  0  0.332878  0.480281  0  4.228646  0
C  C77  1  0.20034810  0.48920781  0.29574004  1  0  0.538132  0  3.956654  0  0  0.497537  0  4.23792  0  0  0.523621  0  4.248767  0  1.60792  0  0.332865  0.480259  0  4.228621  0
C  C78  1  0.29965486  0.01079379  0.79574167  1  0  0.538457  0  3.956625  0  0  0.497837  0  4.237861  0  0  0.523918  0  4.248704  0  1.607919  0  0.333002  0.480561  0  4.228567  0
C  C79  1  0.79965362  0.51079539  0.70425996  1  0  0.538364  0  3.956776  0  0  0.497732  0  4.238024  0  0  0.523813  0  4.248871  0  1.607916  0  0.332969  0.480456  0  4.228729  0
N  N80  1  0.26991578  0.31714284  0.02352499  1  0  -0.49215  0  3.157124  0  0  -0.41837  0  3.454189  0  0  -0.441418  0  3.461235  0  -1.186678  0  -0.376779  -0.402937  0  3.44939  0
N  N81  1  0.76991543  0.81714338  0.47647419  1  0  -0.492031  0  3.15718  0  0  -0.418259  0  3.454253  0  0  -0.441306  0  3.461302  0  -1.186666  0  -0.376728  -0.402826  0  3.449451  0
N  N82  1  0.73008352  0.68285825  0.97647419  1  0  -0.492261  0  3.15699  0  0  -0.418449  0  3.454087  0  0  -0.441501  0  3.461146  0  -1.186584  0  -0.37684  -0.403013  0  3.449281  0
N  N83  1  0.23008370  0.18285666  0.52352581  1  0  -0.492227  0  3.15696  0  0  -0.418441  0  3.454053  0  0  -0.441496  0  3.461108  0  -1.186612  0  -0.376794  -0.403007  0  3.449256  0
N  N84  1  0.95525480  0.19897618  0.05819305  1  0  -0.598966  0  2.898676  0  0  -0.547524  0  3.207888  0  0  -0.569287  0  3.20631  0  -1.29581  0  -0.380866  -0.532793  0  3.209242  0
N  N85  1  0.45525523  0.69897462  0.44180450  1  0  -0.598929  0  2.898662  0  0  -0.547495  0  3.207873  0  0  -0.569257  0  3.206294  0  -1.295797  0  -0.380845  -0.532758  0  3.209215  0
N  N86  1  0.04474764  0.80102491  0.94180531  1  0  -0.598931  0  2.898665  0  0  -0.547488  0  3.207885  0  0  -0.569259  0  3.206318  0  -1.295524  0  -0.380876  -0.532757  0  3.209234  0
N  N87  1  0.54475019  0.30102542  0.55819387  1  0  -0.598908  0  2.898709  0  0  -0.547476  0  3.207949  0  0  -0.569242  0  3.206366  0  -1.29554  0  -0.380869  -0.532739  0  3.209278  0
N  N88  1  0.74885533  0.02462785  0.10824535  1  0  -0.456512  0  3.289282  0  0  -0.397443  0  3.550533  0  0  -0.422181  0  3.556871  0  -1.339314  0  -0.293886  -0.380543  0  3.545987  0
N  N89  1  0.24885487  0.52462734  0.39175465  1  0  -0.456482  0  3.289234  0  0  -0.397417  0  3.550485  0  0  -0.42216  0  3.556825  0  -1.339309  0  -0.293904  -0.380522  0  3.545941  0
N  N90  1  0.25114816  0.97537324  0.89175547  1  0  -0.456718  0  3.289336  0  0  -0.397594  0  3.550567  0  0  -0.422329  0  3.556901  0  -1.339414  0  -0.293988  -0.38069  0  3.546008  0
N  N91  1  0.75114790  0.47537586  0.60824780  1  0  -0.456643  0  3.289334  0  0  -0.39749  0  3.550532  0  0  -0.422224  0  3.556863  0  -1.339382  0  -0.293983  -0.380587  0  3.545972  0
N  N92  1  0.64647470  0.94838718  0.28696434  1  0  -0.591851  0  2.905528  0  0  -0.540509  0  3.210293  0  0  -0.561557  0  3.208246  0  -1.297204  0  -0.375363  -0.525767  0  3.209574  0
N  N93  1  0.14647400  0.44838664  0.21303648  1  0  -0.591849  0  2.905524  0  0  -0.540507  0  3.210285  0  0  -0.561551  0  3.208239  0  -1.297195  0  -0.375353  -0.525765  0  3.209571  0
N  N94  1  0.35352565  0.05161390  0.71303893  1  0  -0.592017  0  2.905556  0  0  -0.540688  0  3.210327  0  0  -0.561736  0  3.208281  0  -1.29716  0  -0.375421  -0.52595  0  3.209614  0
N  N95  1  0.85352184  0.55161234  0.78696270  1  0  -0.59197  0  2.905653  0  0  -0.540641  0  3.210442  0  0  -0.561687  0  3.208395  0  -1.297213  0  -0.375405  -0.525903  0  3.209732  0
O  O96  1  0.09997514  0.50314201  0.92501389  1  0  -0.665728  0  2.189809  0  0  -0.573157  0  2.472481  0  0  -0.603431  0  2.460439  0  -1.172516  0  -0.338227  -0.551874  0  2.479789  0
O  O97  1  0.59997334  0.00314147  0.57498774  1  0  -0.665719  0  2.189617  0  0  -0.57316  0  2.47231  0  0  -0.603427  0  2.460269  0  -1.172608  0  -0.338235  -0.551889  0  2.479621  0
O  O98  1  0.90002763  0.49686118  0.07498774  1  0  -0.665733  0  2.189677  0  0  -0.57318  0  2.472362  0  0  -0.603449  0  2.460313  0  -1.172625  0  -0.338242  -0.5519  0  2.479654  0
O  O99  1  0.40002475  0.99685857  0.42501389  1  0  -0.665735  0  2.189726  0  0  -0.573162  0  2.472391  0  0  -0.60344  0  2.460354  0  -1.172462  0  -0.338237  -0.551872  0  2.479688  0
O  O100  1  0.47833781  0.30909625  0.94030824  1  0  -0.299635  0  2.183921  0  0  -0.228237  0  2.413928  0  0  -0.247115  0  2.4126  0  -1.036542  0  -0.170646  -0.214879  0  2.414472  0
O  O101  1  0.97833609  0.80909468  0.55969339  1  0  -0.299594  0  2.184063  0  0  -0.228202  0  2.414056  0  0  -0.247076  0  2.412733  0  -1.036821  0  -0.170632  -0.214843  0  2.414598  0
O  O102  1  0.52165995  0.69090168  0.05969013  1  0  -0.299598  0  2.184014  0  0  -0.22816  0  2.414019  0  0  -0.247022  0  2.412696  0  -1.036603  0  -0.170617  -0.214805  0  2.41456  0
O  O103  1  0.02166167  0.19090324  0.44030824  1  0  -0.299605  0  2.184006  0  0  -0.228186  0  2.414007  0  0  -0.247054  0  2.41268  0  -1.036561  0  -0.170615  -0.21483  0  2.41455  0
