# generated using pymatgen
data_ZnH19C25N3O4
_symmetry_space_group_name_H-M   'P 1'
_cell_length_a   12.01235460
_cell_length_b   14.65770569
_cell_length_c   15.72057794
_cell_angle_alpha   90.00001283
_cell_angle_beta   90.00008122
_cell_angle_gamma   99.36720865
_symmetry_Int_Tables_number   1
_chemical_formula_structural   ZnH19C25N3O4
_chemical_formula_sum   'Zn4 H76 C100 N12 O16'
_cell_volume   2731.06842399
_cell_formula_units_Z   4
loop_
 _symmetry_equiv_pos_site_id
 _symmetry_equiv_pos_as_xyz
  1  'x, y, z'
loop_
 _atom_site_type_symbol
 _atom_site_label
 _atom_site_symmetry_multiplicity
 _atom_site_fract_x
 _atom_site_fract_y
 _atom_site_fract_z
 _atom_site_occupancy
 _atom_site_pbe_bader_charge
 _atom_site_pbe_bader_spin_density
 _atom_site_pbe_cm5_charge
 _atom_site_pbe_ddec_charge
 _atom_site_pbe_ddec_spin_density
 _atom_site_pbe_ddec_sum_bond_order
 _atom_site_pbe_magmom
Zn  Zn0  1  0.87823305  0.47991974  0.50873182  1  1.28886  0  0.671799  0.821647  0  2.427745  0
Zn  Zn1  1  0.12176605  0.02008071  0.00873130  1  1.288889  0  0.671852  0.821734  0  2.427654  0
Zn  Zn2  1  0.12176768  0.52007984  0.49126959  1  1.289789  0  0.671836  0.82156  0  2.42763  0
Zn  Zn3  1  0.87823246  0.97992024  0.99126948  1  1.289845  0  0.671837  0.821654  0  2.427666  0
H  H4  1  0.40394700  0.15736405  0.46715800  1  0.462838  0  0.301601  0.233129  0  1.015821  0
H  H5  1  0.59605190  0.34263525  0.96715755  1  0.462838  0  0.301595  0.233084  0  1.015882  0
H  H6  1  0.59605291  0.84263553  0.53284214  1  0.462856  0  0.301603  0.233133  0  1.015815  0
H  H7  1  0.40394703  0.65736363  0.03284196  1  0.46284  0  0.301611  0.233137  0  1.015798  0
H  H8  1  0.69330769  0.37556597  0.40782702  1  0.12919  0  0.123188  0.098538  0  0.998834  0
H  H9  1  0.30669233  0.12443537  0.90782749  1  0.129179  0  0.123186  0.098545  0  0.998813  0
H  H10  1  0.30669429  0.62443568  0.59217439  1  0.129153  0  0.123205  0.098522  0  0.998935  0
H  H11  1  0.69330757  0.87556420  0.09217329  1  0.129328  0  0.12319  0.098529  0  0.998874  0
H  H12  1  0.49084562  0.30961595  0.42708956  1  0.077154  0  0.111139  0.116451  0  1.002164  0
H  H13  1  0.50915361  0.19038540  0.92709089  1  0.077138  0  0.111155  0.116473  0  1.002172  0
H  H14  1  0.50915580  0.69038708  0.57291058  1  0.077089  0  0.111178  0.116505  0  1.002142  0
H  H15  1  0.49084602  0.80961279  0.07290988  1  0.077118  0  0.11115  0.116465  0  1.002109  0
H  H16  1  0.35495280  0.30120208  0.63811353  1  0.046135  0  0.100604  0.108515  0  0.986294  0
H  H17  1  0.64504766  0.19879982  0.13811425  1  0.045771  0  0.100597  0.108497  0  0.986288  0
H  H18  1  0.64504890  0.69879818  0.36188661  1  0.045866  0  0.100596  0.108501  0  0.98626  0
H  H19  1  0.35495071  0.80120045  0.86188653  1  0.045865  0  0.100592  0.108493  0  0.986256  0
H  H20  1  0.30950158  0.38536790  0.57359044  1  0.127271  0  0.104349  0.124997  0  1.002029  0
H  H21  1  0.69049681  0.11463259  0.07359119  1  0.127343  0  0.104345  0.125035  0  1.002022  0
H  H22  1  0.69049929  0.61463237  0.42641033  1  0.12768  0  0.104376  0.125031  0  1.002033  0
H  H23  1  0.30950322  0.88536768  0.92641086  1  0.127334  0  0.104361  0.125034  0  1.001974  0
H  H24  1  0.30392712  0.28038952  0.44661863  1  0.034369  0  0.110409  0.083687  0  0.96035  0
H  H25  1  0.69607076  0.21960908  0.94661891  1  0.028684  0  0.110398  0.083638  0  0.960371  0
H  H26  1  0.69607292  0.71961075  0.55338214  1  0.034376  0  0.110411  0.083701  0  0.960334  0
H  H27  1  0.30392720  0.78038911  0.05338187  1  0.03436  0  0.11039  0.083669  0  0.960355  0
H  H28  1  0.21089937  0.24018226  0.52926058  1  0.080044  0  0.106625  0.083014  0  0.994691  0
H  H29  1  0.78909978  0.25981821  0.02926083  1  0.080062  0  0.106628  0.083011  0  0.994671  0
H  H30  1  0.78910164  0.75981870  0.47074020  1  0.080181  0  0.106694  0.083098  0  0.994674  0
H  H31  1  0.21089846  0.74018137  0.97073995  1  0.080189  0  0.106671  0.083095  0  0.994634  0
H  H32  1  0.21941864  0.16902090  0.65424835  1  0.054879  0  0.095315  0.100173  0  1.063502  0
H  H33  1  0.78058214  0.33097824  0.15424733  1  0.055925  0  0.095315  0.100196  0  1.063506  0
H  H34  1  0.78058210  0.83097867  0.34575179  1  0.05487  0  0.095313  0.100185  0  1.063496  0
H  H35  1  0.21941776  0.66902134  0.84575154  1  0.054874  0  0.095311  0.100164  0  1.063504  0
H  H36  1  0.20878646  0.05438938  0.76889106  1  0.077414  0  0.094316  0.09675  0  1.053234  0
H  H37  1  0.79121371  0.44560981  0.26889008  1  0.077453  0  0.094314  0.096748  0  1.053254  0
H  H38  1  0.79121510  0.94561019  0.23110972  1  0.077379  0  0.094295  0.096711  0  1.053254  0
H  H39  1  0.20878605  0.55438907  0.73110815  1  0.077392  0  0.094301  0.096738  0  1.053223  0
H  H40  1  0.31694503  0.92302015  0.76021659  1  0.05456  0  0.090937  0.088161  0  1.0438  0
H  H41  1  0.68305438  0.57697843  0.26021605  1  0.054547  0  0.09091  0.088098  0  1.043845  0
H  H42  1  0.68305473  0.07697873  0.23978418  1  0.054537  0  0.09092  0.088126  0  1.043841  0
H  H43  1  0.31694469  0.42302115  0.73978409  1  0.054519  0  0.090917  0.088136  0  1.043834  0
H  H44  1  0.44149626  0.91069937  0.63405781  1  0.077925  0  0.095502  0.092302  0  1.028091  0
H  H45  1  0.55850305  0.58929984  0.13405778  1  0.07794  0  0.095519  0.092328  0  1.028078  0
H  H46  1  0.55850351  0.08929952  0.36594233  1  0.077937  0  0.095517  0.092325  0  1.028082  0
H  H47  1  0.44149685  0.41069973  0.86594173  1  0.077933  0  0.095514  0.092333  0  1.028079  0
H  H48  1  0.50851679  0.43931459  0.67489599  1  0.112407  0  0.109204  0.118428  0  1.010261  0
H  H49  1  0.49148291  0.06068733  0.17489651  1  0.112403  0  0.109225  0.118449  0  1.010291  0
H  H50  1  0.49148741  0.56068567  0.32510669  1  0.112468  0  0.109218  0.118422  0  1.010182  0
H  H51  1  0.50851588  0.93931086  0.82510554  1  0.112491  0  0.109207  0.118417  0  1.010236  0
H  H52  1  0.71121538  0.50092334  0.64422294  1  0.118903  0  0.124627  0.102604  0  0.986926  0
H  H53  1  0.28878352  0.99907795  0.14422397  1  0.118892  0  0.124611  0.102562  0  0.986872  0
H  H54  1  0.28878840  0.49907485  0.35577848  1  0.11885  0  0.124597  0.102521  0  0.98697  0
H  H55  1  0.71121527  0.00092024  0.85577617  1  0.118817  0  0.124621  0.102579  0  0.986854  0
H  H56  1  0.87652220  0.12865404  0.23002829  1  0.081636  0  0.102105  0.105497  0  1.025502  0
H  H57  1  0.12347817  0.37134652  0.73002670  1  0.081629  0  0.102125  0.105501  0  1.025498  0
H  H58  1  0.12347576  0.87134830  0.76997249  1  0.081606  0  0.102097  0.105466  0  1.025513  0
H  H59  1  0.87652672  0.62865305  0.26997217  1  0.081636  0  0.1021  0.105492  0  1.025546  0
H  H60  1  0.88123441  0.24342976  0.34754307  1  0.051483  0  0.10513  0.110327  0  0.999138  0
H  H61  1  0.11876549  0.25657155  0.84754209  1  0.051808  0  0.105126  0.11031  0  0.999142  0
H  H62  1  0.11876771  0.75657258  0.65245707  1  0.051771  0  0.105153  0.11042  0  0.99913  0
H  H63  1  0.88123468  0.74342940  0.15245742  1  0.051478  0  0.105156  0.110413  0  0.999139  0
H  H64  1  0.06457898  0.29835891  0.99667780  1  0.064516  0  0.099064  0.102575  0  1.0201  0
H  H65  1  0.93542177  0.20164109  0.49667756  1  0.064527  0  0.099023  0.102488  0  1.020068  0
H  H66  1  0.93541967  0.70164274  0.00332171  1  0.06449  0  0.099055  0.102558  0  1.020057  0
H  H67  1  0.06457910  0.79835917  0.50332258  1  0.064525  0  0.099031  0.102509  0  1.020025  0
H  H68  1  0.14849810  0.46210915  0.97247519  1  0.062946  0  0.098511  0.098491  0  1.013855  0
H  H69  1  0.85150399  0.03788946  0.47247355  1  0.062938  0  0.098478  0.098426  0  1.013895  0
H  H70  1  0.85150540  0.53789181  0.02752622  1  0.062962  0  0.098488  0.098435  0  1.013898  0
H  H71  1  0.14849605  0.96211081  0.52752595  1  0.062937  0  0.098526  0.098512  0  1.013878  0
H  H72  1  0.15773513  0.57610470  0.09073918  1  0.07401  0  0.097069  0.096438  0  1.008926  0
H  H73  1  0.84226492  0.92389449  0.59073901  1  0.074008  0  0.097084  0.096451  0  1.008924  0
H  H74  1  0.84226768  0.42389695  0.90926160  1  0.074055  0  0.097086  0.096443  0  1.008971  0
H  H75  1  0.15773498  0.07610509  0.40926113  1  0.073996  0  0.097069  0.096444  0  1.008937  0
H  H76  1  0.08239671  0.52718440  0.23312066  1  0.066674  0  0.100406  0.108844  0  1.012429  0
H  H77  1  0.91760140  0.97281625  0.73312059  1  0.066727  0  0.100419  0.108857  0  1.012396  0
H  H78  1  0.91760430  0.47281656  0.76688011  1  0.066708  0  0.100406  0.108849  0  1.012443  0
H  H79  1  0.08239794  0.02718471  0.26688018  1  0.066683  0  0.100409  0.108858  0  1.0124  0
C  C80  1  0.96980205  0.22530033  0.14350163  1  -0.067485  0  -0.01265  -0.06944  0  3.958539  0
C  C81  1  0.03019538  0.27469881  0.64350183  1  -0.066814  0  -0.012626  -0.069327  0  3.958501  0
C  C82  1  0.03019327  0.77470132  0.85649533  1  -0.066848  0  -0.012712  -0.069602  0  3.958603  0
C  C83  1  0.96980355  0.72530007  0.35649767  1  -0.066457  0  -0.012664  -0.069437  0  3.958508  0
C  C84  1  0.64807025  0.38818627  0.46570592  1  0.415321  0  0.05424  0.104734  0  3.926548  0
C  C85  1  0.35192752  0.11181580  0.96570706  1  0.415307  0  0.05425  0.104721  0  3.926569  0
C  C86  1  0.35193006  0.61181538  0.53429486  1  0.415304  0  0.05422  0.104694  0  3.926771  0
C  C87  1  0.64807307  0.88818308  0.03429371  1  0.415096  0  0.05422  0.104693  0  3.926704  0
C  C88  1  0.53514311  0.35120497  0.47781482  1  0.009393  0  -0.086113  -0.193505  0  3.958679  0
C  C89  1  0.46485482  0.14879779  0.97781546  1  0.009551  0  -0.086114  -0.193488  0  3.95858  0
C  C90  1  0.46485734  0.64879737  0.52218596  1  0.009723  0  -0.086116  -0.193508  0  3.958636  0
C  C91  1  0.53514577  0.85120109  0.02218468  1  0.009562  0  -0.086093  -0.193442  0  3.958478  0
C  C92  1  0.48103721  0.36736343  0.55397612  1  -0.0368  0  0.020396  0.186454  0  3.925628  0
C  C93  1  0.51896032  0.13263705  0.05397668  1  -0.036995  0  0.020397  0.186452  0  3.925554  0
C  C94  1  0.51896394  0.63263822  0.44602466  1  -0.037084  0  0.02038  0.186446  0  3.92553  0
C  C95  1  0.48103958  0.86736253  0.94602410  1  -0.036991  0  0.020406  0.186439  0  3.925545  0
C  C96  1  0.35976074  0.32880723  0.57278261  1  -0.045425  0  -0.158813  -0.249512  0  3.937075  0
C  C97  1  0.64023613  0.17119395  0.07278395  1  -0.044975  0  -0.158783  -0.249545  0  3.937077  0
C  C98  1  0.64024179  0.67119304  0.42721754  1  -0.045583  0  -0.158857  -0.249549  0  3.937149  0
C  C99  1  0.35976155  0.82880701  0.92721810  1  -0.045187  0  -0.15881  -0.249512  0  3.936917  0
C  C100  1  0.30090694  0.25424222  0.51224281  1  0.33568  0  -0.056864  0.003418  0  3.942316  0
C  C101  1  0.69909133  0.24575823  0.01224359  1  0.34124  0  -0.056816  0.003531  0  3.942273  0
C  C102  1  0.69909379  0.74575735  0.48775733  1  0.335506  0  -0.056882  0.003335  0  3.942321  0
C  C103  1  0.30090690  0.75424134  0.98775718  1  0.335555  0  -0.056885  0.003314  0  3.942379  0
C  C104  1  0.33917454  0.10768767  0.57811253  1  0.430292  0  0.112878  0.19313  0  4.028496  0
C  C105  1  0.66082609  0.39231143  0.07811140  1  0.430291  0  0.112903  0.193028  0  4.028708  0
C  C106  1  0.66082523  0.89231121  0.42188634  1  0.430704  0  0.112882  0.193153  0  4.028471  0
C  C107  1  0.33917297  0.60768814  0.92188684  1  0.430252  0  0.112868  0.193099  0  4.028545  0
C  C108  1  0.26946376  0.11354317  0.64971673  1  -0.019106  0  -0.112604  -0.209722  0  3.991755  0
C  C109  1  0.73053715  0.38645666  0.14971567  1  -0.02018  0  -0.112634  -0.209786  0  3.991842  0
C  C110  1  0.73053600  0.88645571  0.35028214  1  -0.019112  0  -0.112582  -0.209728  0  3.991809  0
C  C111  1  0.26946275  0.61354292  0.85028256  1  -0.019076  0  -0.112593  -0.209699  0  3.991778  0
C  C112  1  0.26272048  0.04804191  0.71413356  1  -0.058554  0  -0.098323  -0.06496  0  4.036945  0
C  C113  1  0.73727958  0.45195726  0.21413252  1  -0.05854  0  -0.098345  -0.064959  0  4.036955  0
C  C114  1  0.73727845  0.95195697  0.28586594  1  -0.058547  0  -0.098318  -0.064948  0  4.037004  0
C  C115  1  0.26272018  0.54804162  0.78586635  1  -0.058558  0  -0.098343  -0.065004  0  4.036985  0
C  C116  1  0.32424296  0.97430897  0.70953462  1  -0.074743  0  -0.119485  -0.1346  0  4.091148  0
C  C117  1  0.67575816  0.52569027  0.20953407  1  -0.074793  0  -0.119448  -0.134497  0  4.091115  0
C  C118  1  0.67575791  0.02569129  0.29046615  1  -0.074678  0  -0.11945  -0.134523  0  4.091135  0
C  C119  1  0.32424049  0.47430723  0.79046671  1  -0.074761  0  -0.119462  -0.13455  0  4.091201  0
C  C120  1  0.39303649  0.96711569  0.63987882  1  -0.025639  0  -0.09614  -0.135688  0  4.026786  0
C  C121  1  0.60696366  0.53288352  0.13987883  1  -0.025556  0  -0.096149  -0.135708  0  4.026833  0
C  C122  1  0.60696161  0.03288319  0.36012132  1  -0.025627  0  -0.096159  -0.135722  0  4.026792  0
C  C123  1  0.39303624  0.46711605  0.86012195  1  -0.025554  0  -0.096159  -0.135741  0  4.026865  0
C  C124  1  0.40288314  0.03302743  0.57410889  1  0.380409  0  0.072152  0.062653  0  4.044986  0
C  C125  1  0.59711749  0.46697167  0.07410897  1  0.380406  0  0.072149  0.062624  0  4.045113  0
C  C126  1  0.59711552  0.96697007  0.42589062  1  0.380407  0  0.072168  0.062654  0  4.045005  0
C  C127  1  0.40288255  0.53302859  0.92589117  1  0.380403  0  0.07217  0.062648  0  4.045094  0
C  C128  1  0.54577211  0.42317480  0.61456299  1  -0.014123  0  -0.084386  -0.191468  0  3.946649  0
C  C129  1  0.45422581  0.07682709  0.11456474  1  -0.01403  0  -0.084396  -0.191472  0  3.946725  0
C  C130  1  0.45423154  0.57682685  0.38543779  1  -0.014195  0  -0.084306  -0.191372  0  3.946527  0
C  C131  1  0.54577159  0.92317248  0.88543667  1  -0.014104  0  -0.084395  -0.191413  0  3.946725  0
C  C132  1  0.65805111  0.45824637  0.59825958  1  0.44089  0  0.051715  0.097515  0  3.933104  0
C  C133  1  0.34194761  0.04175551  0.09826121  1  0.440855  0  0.051743  0.097594  0  3.933038  0
C  C134  1  0.34195309  0.54175390  0.40174183  1  0.441059  0  0.051634  0.097533  0  3.933099  0
C  C135  1  0.65805049  0.95824337  0.90174021  1  0.440964  0  0.051721  0.097529  0  3.933065  0
C  C136  1  0.97587172  0.15021401  0.08003386  1  1.569229  0  0.216777  0.59583  0  4.19068  0
C  C137  1  0.02413128  0.34978440  0.58003343  1  1.568873  0  0.216802  0.595728  0  4.190721  0
C  C138  1  0.02410945  0.84978764  0.91996055  1  1.569593  0  0.216842  0.595903  0  4.190638  0
C  C139  1  0.97588999  0.65021379  0.41996162  1  1.569587  0  0.216857  0.595898  0  4.190571  0
C  C140  1  0.98699172  0.41471242  0.35359254  1  1.575483  0  0.219558  0.598643  0  4.180435  0
C  C141  1  0.01300639  0.08528820  0.85359268  1  1.57493  0  0.219489  0.598429  0  4.180414  0
C  C142  1  0.01301442  0.58528922  0.64640696  1  1.57487  0  0.219485  0.598542  0  4.180613  0
C  C143  1  0.98699490  0.91470999  0.14640619  1  1.574724  0  0.219453  0.598469  0  4.18051  0
C  C144  1  0.97872254  0.35351197  0.27698275  1  0.087477  0  -0.011638  -0.070914  0  3.950173  0
C  C145  1  0.02127736  0.14649000  0.77698228  1  0.08718  0  -0.01169  -0.070895  0  3.950017  0
C  C146  1  0.02127486  0.64649175  0.72301803  1  0.087227  0  -0.011661  -0.070897  0  3.94988  0
C  C147  1  0.97872906  0.85350888  0.22301787  1  0.087206  0  -0.011757  -0.071027  0  3.950153  0
C  C148  1  0.02844327  0.38382535  0.19723899  1  -0.035642  0  -0.002708  0.056527  0  3.96381  0
C  C149  1  0.97155704  0.11617520  0.69723826  1  -0.035679  0  -0.002606  0.056625  0  3.963676  0
C  C150  1  0.97155399  0.61617769  0.80276052  1  -0.035567  0  -0.00268  0.056673  0  3.963599  0
C  C151  1  0.02844772  0.88382368  0.30276061  1  -0.035558  0  -0.002626  0.056695  0  3.963659  0
C  C152  1  0.02325786  0.31817148  0.12889734  1  0.003118  0  -0.003404  0.051597  0  3.971779  0
C  C153  1  0.97674204  0.18182765  0.62889727  1  0.002523  0  -0.003418  0.051594  0  3.971862  0
C  C154  1  0.97673649  0.68182948  0.87110025  1  0.002725  0  -0.003378  0.051586  0  3.971769  0
C  C155  1  0.02326119  0.81817192  0.37110159  1  0.00202  0  -0.003429  0.051566  0  3.971765  0
C  C156  1  0.91753988  0.19982129  0.22028377  1  -0.007247  0  -0.093745  -0.113483  0  4.016666  0
C  C157  1  0.08245964  0.30017927  0.72028276  1  -0.007127  0  -0.093779  -0.11358  0  4.016691  0
C  C158  1  0.08245488  0.80018174  0.77971701  1  -0.00709  0  -0.093698  -0.113329  0  4.016635  0
C  C159  1  0.91754512  0.69981961  0.27971675  1  -0.007056  0  -0.093716  -0.113508  0  4.016745  0
C  C160  1  0.92140806  0.26422324  0.28682840  1  -0.133459  0  -0.091101  -0.107534  0  4.011479  0
C  C161  1  0.07859325  0.23577735  0.78682801  1  -0.133458  0  -0.09109  -0.107489  0  4.011393  0
C  C162  1  0.07859183  0.73578048  0.71317110  1  -0.13345  0  -0.091175  -0.107775  0  4.011417  0
C  C163  1  0.92141054  0.76422084  0.21317086  1  -0.133122  0  -0.091153  -0.107655  0  4.011478  0
C  C164  1  0.06839782  0.34847573  0.04827438  1  -0.032137  0  -0.091895  -0.131051  0  3.978353  0
C  C165  1  0.93160455  0.15152405  0.54827553  1  -0.032117  0  -0.091876  -0.130982  0  3.978376  0
C  C166  1  0.93160082  0.65152592  0.95172449  1  -0.032478  0  -0.091918  -0.131027  0  3.978333  0
C  C167  1  0.06839729  0.84847690  0.45172398  1  -0.032109  0  -0.091859  -0.130991  0  3.978351  0
C  C168  1  0.11553551  0.43951409  0.03499246  1  -0.026416  0  -0.091049  -0.07147  0  4.014395  0
C  C169  1  0.88446587  0.06048499  0.53499099  1  -0.026423  0  -0.091031  -0.071445  0  4.014379  0
C  C170  1  0.88446480  0.56048756  0.96500768  1  -0.026399  0  -0.091041  -0.071488  0  4.01443  0
C  C171  1  0.11553501  0.93951527  0.46500851  1  -0.026428  0  -0.091093  -0.071525  0  4.014454  0
C  C172  1  0.12053936  0.50420130  0.10223936  1  -0.131226  0  -0.091939  -0.076774  0  4.024405  0
C  C173  1  0.87946266  0.99579928  0.60223925  1  -0.131206  0  -0.091929  -0.076748  0  4.024472  0
C  C174  1  0.87946165  0.49579966  0.89776014  1  -0.131249  0  -0.091936  -0.076727  0  4.024428  0
C  C175  1  0.12053835  0.00420168  0.39776089  1  -0.131256  0  -0.091951  -0.076802  0  4.024465  0
C  C176  1  0.07849117  0.47705076  0.18156276  1  0.046468  0  -0.093934  -0.137455  0  3.982503  0
C  C177  1  0.92150910  0.02294978  0.68156259  1  0.046426  0  -0.093981  -0.137519  0  3.982593  0
C  C178  1  0.92150734  0.52295020  0.81843802  1  0.046492  0  -0.093906  -0.137467  0  3.982405  0
C  C179  1  0.07849288  0.97705187  0.31843818  1  0.046482  0  -0.093874  -0.13743  0  3.982376  0
N  N180  1  0.70892922  0.44058899  0.52496268  1  -1.252657  0  -0.331054  -0.218056  0  3.542786  0
N  N181  1  0.29106950  0.05941355  0.02496362  1  -1.252677  0  -0.33112  -0.218173  0  3.542815  0
N  N182  1  0.29107248  0.55941128  0.47503873  1  -1.252639  0  -0.331002  -0.218017  0  3.542794  0
N  N183  1  0.70892957  0.94058603  0.97503779  1  -1.252626  0  -0.331044  -0.218087  0  3.542827  0
N  N184  1  0.34693747  0.16879627  0.51210733  1  -1.241318  0  -0.439435  -0.330296  0  3.625589  0
N  N185  1  0.65306317  0.33120349  0.01210618  1  -1.241382  0  -0.439478  -0.33021  0  3.62566  0
N  N186  1  0.65306312  0.83120261  0.48789217  1  -1.241746  0  -0.439504  -0.330356  0  3.625514  0
N  N187  1  0.34693576  0.66879539  0.98789269  1  -1.241334  0  -0.439437  -0.330239  0  3.625569  0
N  N188  1  0.47136405  0.03302232  0.50273368  1  -0.538965  0  -0.172282  -0.151359  0  3.372718  0
N  N189  1  0.52863476  0.46697674  0.00273306  1  -0.584321  0  -0.172297  -0.151314  0  3.372632  0
N  N190  1  0.52863488  0.96697656  0.49726646  1  -0.584357  0  -0.172239  -0.151311  0  3.372756  0
N  N191  1  0.47136430  0.53302283  0.99726581  1  -0.538968  0  -0.172204  -0.15128  0  3.372667  0
O  O192  1  0.88320166  0.10309997  0.05479555  1  -1.173658  0  -0.31174  -0.543  0  2.33864  0
O  O193  1  0.11678921  0.39689635  0.55479332  1  -1.173687  0  -0.311755  -0.542824  0  2.338805  0
O  O194  1  0.11678547  0.89690237  0.94520777  1  -1.173927  0  -0.311859  -0.543018  0  2.338306  0
O  O195  1  0.88321209  0.60309769  0.44520746  1  -1.173946  0  -0.31184  -0.54299  0  2.338211  0
O  O196  1  0.89445073  0.42082132  0.39089010  1  -1.173563  0  -0.311311  -0.550092  0  2.361966  0
O  O197  1  0.10554551  0.07917794  0.89088907  1  -1.173474  0  -0.311295  -0.550022  0  2.362007  0
O  O198  1  0.10553765  0.57917895  0.60911068  1  -1.173624  0  -0.311158  -0.549873  0  2.362513  0
O  O199  1  0.89446937  0.92082163  0.10910917  1  -1.173557  0  -0.311159  -0.549876  0  2.362372  0
O  O200  1  0.08495155  0.45292894  0.37706766  1  -1.167475  0  -0.312224  -0.548023  0  2.333616  0
O  O201  1  0.91504134  0.04707447  0.87706813  1  -1.166997  0  -0.31216  -0.547941  0  2.333494  0
O  O202  1  0.91503629  0.54706857  0.62293376  1  -1.166756  0  -0.312295  -0.548165  0  2.333262  0
O  O203  1  0.08496938  0.95292925  0.12293329  1  -1.166682  0  -0.312278  -0.548123  0  2.333302  0
O  O204  1  0.07435749  0.13724801  0.05986045  1  -1.159142  0  -0.314835  -0.542697  0  2.329712  0
O  O205  1  0.92563520  0.36274901  0.55986227  1  -1.159024  0  -0.314876  -0.542794  0  2.329558  0
O  O206  1  0.92563257  0.86274811  0.94013079  1  -1.159514  0  -0.31477  -0.542664  0  2.330071  0
O  O207  1  0.07436539  0.63725402  0.44013278  1  -1.159478  0  -0.314778  -0.54266  0  2.33001  0
