# generated using pymatgen
data_Ni2H28C40N8O9
_symmetry_space_group_name_H-M   'P 1'
_cell_length_a   13.21105504
_cell_length_b   14.19237535
_cell_length_c   18.69368596
_cell_angle_alpha   86.32315783
_cell_angle_beta   82.10384203
_cell_angle_gamma   62.27863331
_symmetry_Int_Tables_number   1
_chemical_formula_structural   Ni2H28C40N8O9
_chemical_formula_sum   'Ni4 H56 C80 N16 O18'
_cell_volume   3073.27562363
_cell_formula_units_Z   2
loop_
 _symmetry_equiv_pos_site_id
 _symmetry_equiv_pos_as_xyz
  1  'x, y, z'
loop_
 _atom_site_type_symbol
 _atom_site_label
 _atom_site_symmetry_multiplicity
 _atom_site_fract_x
 _atom_site_fract_y
 _atom_site_fract_z
 _atom_site_occupancy
 _atom_site_pbe_bader_charge
 _atom_site_pbe_bader_spin_density
 _atom_site_pbe_cm5_charge
 _atom_site_pbe_ddec_charge
 _atom_site_pbe_ddec_spin_density
 _atom_site_pbe_ddec_sum_bond_order
 _atom_site_pbe_magmom
Ni  Ni0  1  0.01354808  0.21072258  0.22779592  1  1.294933  1.272958  0.748981  0.95865  1.572566  2.77079  1.249
Ni  Ni1  1  0.77629991  0.21073781  0.27221124  1  1.299099  1.269364  0.74899  0.958462  1.568389  2.77116  1.245
Ni  Ni2  1  0.98650162  0.78924429  0.77221310  1  1.294718  1.274738  0.748775  0.958424  1.574738  2.770444  1.25
Ni  Ni3  1  0.22372850  0.78925853  0.72777181  1  1.299127  1.267616  0.749212  0.958711  1.566276  2.771294  1.243
H  H4  1  0.14962617  0.99320742  0.07030995  1  0.083982  0.000463  0.098603  0.100863  0.000214  1.022446  0.0
H  H5  1  0.85671361  0.99397475  0.42974798  1  0.077726  0.000461  0.098308  0.100104  0.000211  1.021743  0.0
H  H6  1  0.85039009  0.00679846  0.92969646  1  0.088225  0.000463  0.098603  0.10075  0.000214  1.022455  0.0
H  H7  1  0.14326197  0.00602714  0.57026566  1  0.078066  0.000461  0.098302  0.100088  0.000211  1.02184  0.0
H  H8  1  0.19814490  0.48169214  0.98046734  1  0.058141  0.000121  0.097221  0.097013  2.6e-05  1.028193  0.0
H  H9  1  0.31991991  0.48210874  0.51887203  1  0.094117  0.00012  0.097141  0.097191  2.5e-05  1.028592  0.0
H  H10  1  0.80185325  0.51831850  0.01958108  1  0.057882  0.000121  0.097227  0.097183  2.6e-05  1.028009  0.0
H  H11  1  0.68007966  0.51787087  0.48110369  1  0.090781  0.000119  0.097188  0.097215  2.5e-05  1.028598  0.0
H  H12  1  0.20485254  0.91630011  0.94480076  1  0.098167  0.000819  0.098606  0.098488  0.000472  1.012509  0.0
H  H13  1  0.87816786  0.91702989  0.55523641  1  0.078037  0.000828  0.0988  0.09881  0.000472  1.012196  0.0
H  H14  1  0.79522342  0.08367155  0.05519681  1  0.098912  0.000819  0.098757  0.098707  0.000472  1.012899  0.0
H  H15  1  0.12183105  0.08298872  0.44476489  1  0.078528  0.000827  0.098876  0.098868  0.000472  1.012262  0.0
H  H16  1  0.19766414  0.17845903  0.09423668  1  0.186495  0.000242  0.139661  0.107621  3.2e-05  1.036123  0.0
H  H17  1  0.62362857  0.17883698  0.40577252  1  0.174565  0.000244  0.139707  0.107522  3.5e-05  1.0372  0.0
H  H18  1  0.80232621  0.82157470  0.90579311  1  0.186588  0.000242  0.13973  0.107651  3.2e-05  1.035953  0.0
H  H19  1  0.37637242  0.82117051  0.59416978  1  0.174387  0.000243  0.139731  0.107611  3.5e-05  1.03715  0.0
H  H20  1  0.57782738  0.98030937  0.11711863  1  0.0737  1.6e-05  0.112669  0.118803  5e-06  0.994264  0.0
H  H21  1  0.44290607  0.97938115  0.38273751  1  0.099206  1.6e-05  0.112629  0.11906  6e-06  0.994171  0.0
H  H22  1  0.42216229  0.01970286  0.88289646  1  0.074045  1.6e-05  0.112688  0.118723  6e-06  0.994301  0.0
H  H23  1  0.55707008  0.02065418  0.61721787  1  0.100483  1.6e-05  0.112598  0.119002  6e-06  0.993882  0.0
H  H24  1  0.15819702  0.34607847  0.05288315  1  0.07028  0.000683  0.093238  0.088087  0.000364  1.030496  0.0
H  H25  1  0.49555222  0.34641016  0.44672064  1  0.044709  0.00069  0.0934  0.088567  0.000364  1.030524  0.0
H  H26  1  0.84180354  0.65392182  0.94717204  1  0.069824  0.000683  0.093272  0.088059  0.000364  1.030519  0.0
H  H27  1  0.50444616  0.65358856  0.55327014  1  0.04422  0.00069  0.09345  0.08859  0.000364  1.030505  0.0
H  H28  1  0.95894940  0.31089357  0.38136108  1  0.246073  0.000494  0.142585  0.129971  0.000162  1.047594  0.0
H  H29  1  0.73079984  0.31084629  0.11850343  1  0.263943  0.00048  0.143013  0.131242  0.000155  1.048294  0.0
H  H30  1  0.04103095  0.68909399  0.61865072  1  0.245171  0.000494  0.142511  0.129897  0.000162  1.047448  0.0
H  H31  1  0.26920597  0.68918267  0.88149321  1  0.263342  0.00048  0.143029  0.131167  0.000155  1.048292  0.0
H  H32  1  0.15603626  0.50259517  0.41023731  1  0.072852  4.1e-05  0.10915  0.114956  2.2e-05  0.995062  0.0
H  H33  1  0.34203507  0.50198057  0.09004631  1  0.082911  4.1e-05  0.109235  0.114733  2.3e-05  0.995131  0.0
H  H34  1  0.84392952  0.49740035  0.58977789  1  0.072539  4.1e-05  0.109263  0.115105  2.2e-05  0.995016  0.0
H  H35  1  0.65797544  0.49804919  0.90996097  1  0.082626  4e-05  0.109238  0.114856  2.2e-05  0.995045  0.0
H  H36  1  0.12595825  0.57397356  0.53268762  1  0.150029  6e-06  0.111301  0.130746  -2.1e-05  1.048079  0.0
H  H37  1  0.29982962  0.57365489  0.96775529  1  0.164223  6e-06  0.111075  0.130162  -2.1e-05  1.047899  0.0
H  H38  1  0.87400344  0.42602593  0.46733211  1  0.149964  6e-06  0.11136  0.130825  -2.1e-05  1.047901  0.0
H  H39  1  0.70016821  0.42637804  0.03226133  1  0.163649  6e-06  0.11102  0.130137  -2.1e-05  1.047985  0.0
H  H40  1  0.70873858  0.94119395  0.00227614  1  0.084875  2.2e-05  0.117381  0.125546  0.0  0.994176  0.0
H  H41  1  0.35082840  0.94023496  0.49746824  1  0.085181  2.2e-05  0.116912  0.125178  0.0  0.993527  0.0
H  H42  1  0.29124912  0.05881749  0.99773763  1  0.084753  2.2e-05  0.117383  0.12558  0.0  0.994308  0.0
H  H43  1  0.64914050  0.05979242  0.50247672  1  0.085166  2.2e-05  0.116819  0.125062  0.0  0.993887  0.0
H  H44  1  0.45320097  0.92898348  0.20464446  1  0.120082  0.000629  0.122609  0.120098  0.000313  1.012619  0.0
H  H45  1  0.61863757  0.92872008  0.29552019  1  0.11425  0.000625  0.122966  0.120574  0.000311  1.01198  0.0
H  H46  1  0.54677380  0.07100169  0.79537028  1  0.119778  0.000631  0.122568  0.120075  0.000314  1.012585  0.0
H  H47  1  0.38132936  0.07128581  0.70443217  1  0.11496  0.000623  0.12285  0.120325  0.00031  1.01188  0.0
H  H48  1  0.10777549  0.38441319  0.18607502  1  0.136107  0.000514  0.119445  0.116305  0.00012  1.028346  0.001
H  H49  1  0.50870673  0.38426995  0.31389585  1  0.137255  0.000508  0.119462  0.116324  0.000117  1.029328  0.001
H  H50  1  0.89226873  0.61554095  0.81394345  1  0.135679  0.000515  0.119301  0.115949  0.00012  1.028599  0.001
H  H51  1  0.49131111  0.61571364  0.68610314  1  0.137086  0.000507  0.119492  0.11631  0.000117  1.029371  0.001
H  H52  1  0.24802288  0.03279370  0.29764848  1  0.123278  0.000292  0.123665  0.123353  0.0001  1.002663  0.0
H  H53  1  0.71995508  0.03267642  0.20252462  1  0.11873  0.000289  0.123308  0.122943  0.0001  1.002848  0.0
H  H54  1  0.75197583  0.96720978  0.70236766  1  0.123434  0.000293  0.123683  0.123414  0.0001  1.002683  0.0
H  H55  1  0.28007316  0.96729763  0.79742980  1  0.118613  0.000287  0.123398  0.123154  9.9e-05  1.002699  0.0
H  H56  1  0.11095418  0.50728787  0.29554226  1  0.08535  0.000818  0.123441  0.122592  0.000388  1.011459  0.0
H  H57  1  0.38256686  0.50701547  0.20450200  1  0.084914  0.000809  0.123402  0.122568  0.000384  1.010564  0.0
H  H58  1  0.88903285  0.49268457  0.70446697  1  0.084636  0.000819  0.123315  0.122408  0.000389  1.011431  0.0
H  H59  1  0.61742506  0.49298722  0.79550805  1  0.084863  0.000807  0.123435  0.122597  0.000383  1.01062  0.0
C  C60  1  0.96957101  0.04231456  0.07026272  1  0.026597  0.019043  -0.011543  -0.013861  0.012208  3.935847  0.015
C  C61  1  0.98820144  0.04245733  0.42975283  1  0.005293  0.019042  -0.011088  -0.01352  0.012201  3.935964  0.015
C  C62  1  0.03047877  0.95766267  0.92972695  1  0.025777  0.019039  -0.011785  -0.014134  0.012206  3.93519  0.015
C  C63  1  0.01178410  0.95756048  0.57024958  1  0.005861  0.019042  -0.011215  -0.013524  0.012204  3.935958  0.015
C  C64  1  0.08484723  0.99583828  0.03873074  1  -0.090224  0.001354  -0.088131  -0.098209  0.000562  3.975291  0.001
C  C65  1  0.91908993  0.99627412  0.46127043  1  -0.079207  0.001334  -0.087742  -0.096721  0.00056  3.972929  0.001
C  C66  1  0.91519594  0.00417159  0.96125295  1  -0.093352  0.001358  -0.08799  -0.097802  0.000567  3.97522  0.001
C  C67  1  0.08092784  0.00370550  0.53871703  1  -0.079131  0.001325  -0.087813  -0.096947  0.000552  3.973159  0.001
C  C68  1  0.97720542  0.42318861  0.04075836  1  -0.045943  0.013079  -0.019593  -0.024412  0.008224  3.961385  0.01
C  C69  1  0.59968210  0.42315868  0.45930442  1  -0.021756  0.013094  -0.018851  -0.02267  0.008229  3.957206  0.01
C  C70  1  0.02279957  0.57680929  0.95928359  1  -0.046499  0.013078  -0.019333  -0.024571  0.008222  3.961743  0.01
C  C71  1  0.40030285  0.57684242  0.54068728  1  -0.021966  0.013106  -0.018703  -0.022546  0.008235  3.956961  0.01
C  C72  1  0.42662371  0.02177824  0.06457561  1  0.258873  0.000301  0.098199  0.165753  0.000186  4.02469  0.0
C  C73  1  0.55168258  0.02186569  0.43544767  1  0.316649  0.000294  0.098338  0.166499  0.000183  4.025125  0.0
C  C74  1  0.57336099  0.97822763  0.93544581  1  0.258648  0.000301  0.098417  0.166247  0.000186  4.024589  0.0
C  C75  1  0.44828877  0.97815771  0.56450740  1  0.317607  0.000295  0.098288  0.166052  0.000184  4.024971  0.0
C  C76  1  0.01618539  0.46109921  0.43074030  1  0.240666  0.000393  0.092853  0.161401  0.000251  4.030269  0.0
C  C77  1  0.52319563  0.46096856  0.06921922  1  0.235956  0.000391  0.092919  0.161639  0.000247  4.029184  0.0
C  C78  1  0.98378377  0.53889392  0.56927250  1  0.240991  0.000394  0.093226  0.162028  0.000251  4.030611  0.0
C  C79  1  0.47680541  0.53906756  0.93078506  1  0.236861  0.000389  0.092925  0.161542  0.000246  4.0294  0.0
C  C80  1  0.95074243  0.34228145  0.08513194  1  1.59306  0.000781  0.206711  0.578657  0.000801  4.213156  0.0
C  C81  1  0.70721274  0.34224710  0.41502631  1  1.599916  0.000733  0.205486  0.575148  0.000805  4.218715  0.0
C  C82  1  0.04925798  0.65771088  0.91490019  1  1.592164  0.000774  0.206267  0.57814  0.000795  4.213779  0.0
C  C83  1  0.29276574  0.65775638  0.58496763  1  1.599502  0.000736  0.205537  0.575171  0.000808  4.218918  0.0
C  C84  1  0.93841135  0.09099490  0.14435493  1  1.57908  0.000801  0.222703  0.588797  0.000501  4.151147  -0.001
C  C85  1  0.97084009  0.09119350  0.35566701  1  1.581618  0.000813  0.2228  0.588078  0.000482  4.151202  -0.001
C  C86  1  0.06162713  0.90899745  0.85563678  1  1.579101  0.000817  0.222773  0.588899  0.000511  4.151096  -0.001
C  C87  1  0.02915763  0.90881078  0.64433636  1  1.581318  0.000806  0.222785  0.588242  0.000473  4.151199  -0.001
C  C88  1  0.11128482  0.48950724  0.98944705  1  0.007064  0.00133  -0.093269  -0.106372  0.000639  4.005056  0.001
C  C89  1  0.39908086  0.48974960  0.51021195  1  -0.057026  0.001375  -0.094419  -0.107377  0.00064  4.004346  0.001
C  C90  1  0.88871560  0.51049624  0.01060635  1  0.007652  0.00133  -0.093223  -0.106817  0.000639  4.005122  0.001
C  C91  1  0.60091223  0.51024752  0.48978008  1  -0.054851  0.001375  -0.094399  -0.107408  0.000639  4.004152  0.001
C  C92  1  0.11519316  0.95387644  0.96917356  1  -0.079367  0.001296  -0.08823  -0.100969  0.00054  3.987608  0.001
C  C93  1  0.93061363  0.95423923  0.53082201  1  -0.038521  0.001252  -0.088652  -0.102059  0.000528  3.988445  0.001
C  C94  1  0.88486077  0.04613184  0.03080948  1  -0.079689  0.00129  -0.088451  -0.101322  0.000535  3.989163  0.001
C  C95  1  0.06940601  0.04575073  0.46916835  1  -0.039342  0.00126  -0.088802  -0.102044  0.000533  3.988522  0.001
C  C96  1  0.23960596  0.12507138  0.13692185  1  0.963338  -0.002204  0.151451  0.106042  -0.002926  3.885423  -0.001
C  C97  1  0.63537226  0.12529879  0.36311665  1  0.98418  -0.002163  0.151301  0.1062  -0.002873  3.885361  -0.001
C  C98  1  0.76038624  0.87493608  0.86309644  1  0.964716  -0.002201  0.151231  0.106001  -0.002924  3.885138  -0.001
C  C99  1  0.36459508  0.87471505  0.63683090  1  0.986249  -0.002168  0.15138  0.106219  -0.002874  3.885469  -0.001
C  C100  1  0.54425015  0.98716555  0.06587293  1  0.075953  -1.3e-05  -0.083689  -0.145078  -4.3e-05  3.983455  0.0
C  C101  1  0.46916508  0.98664770  0.43405548  1  -0.037168  -9e-06  -0.084114  -0.146609  -4.2e-05  3.984585  0.0
C  C102  1  0.45573587  0.01283713  0.93414263  1  0.076904  -1.2e-05  -0.083579  -0.144902  -4.2e-05  3.983282  0.0
C  C103  1  0.53080638  0.01337888  0.56590313  1  -0.038054  -1e-05  -0.08402  -0.146481  -4.3e-05  3.984371  0.0
C  C104  1  0.08871700  0.41379149  0.02964255  1  -0.096875  0.000272  -0.097678  -0.112963  -0.0001  4.01853  0.0
C  C105  1  0.49739366  0.41401739  0.47008867  1  -0.074379  0.000269  -0.097541  -0.114009  -0.000102  4.018537  0.0
C  C106  1  0.91129357  0.58620164  0.97040223  1  -0.097286  0.000273  -0.097928  -0.112948  -0.0001  4.019015  0.0
C  C107  1  0.50259603  0.58598052  0.52990480  1  -0.073732  0.000267  -0.097626  -0.114075  -0.000103  4.01821  0.0
C  C108  1  0.00335176  0.34488243  0.34369288  1  0.974024  -0.003365  0.156519  0.116979  -0.004237  3.824861  -0.002
C  C109  1  0.65246959  0.34479090  0.15620564  1  0.945453  -0.003353  0.15533  0.115551  -0.004213  3.825885  -0.002
C  C110  1  0.99664586  0.65508921  0.65632101  1  0.973205  -0.003369  0.15676  0.117351  -0.004243  3.824858  -0.002
C  C111  1  0.34753012  0.65523010  0.84378899  1  0.945717  -0.003346  0.15525  0.115564  -0.004206  3.826119  -0.002
C  C112  1  0.08659885  0.50262514  0.44920292  1  0.002285  0.000116  -0.090762  -0.156339  6e-05  4.002744  0.0
C  C113  1  0.41118650  0.50225865  0.05094928  1  0.040827  0.000112  -0.091073  -0.155943  5.8e-05  4.001537  0.0
C  C114  1  0.91337342  0.49736799  0.55081058  1  0.002641  0.000116  -0.090949  -0.156639  6e-05  4.002893  0.0
C  C115  1  0.58881993  0.49777270  0.94905357  1  0.040231  0.000111  -0.091193  -0.156243  5.8e-05  4.001891  0.0
C  C116  1  0.07060789  0.54174678  0.51840773  1  0.024556  -6.4e-05  -0.089235  -0.156667  -0.000116  3.96646  0.0
C  C117  1  0.38749395  0.54155193  0.98182334  1  -0.036492  -6.2e-05  -0.087951  -0.155127  -0.000115  3.965373  0.0
C  C118  1  0.92935880  0.45824953  0.48160250  1  0.024564  -6.3e-05  -0.089323  -0.156603  -0.000116  3.966078  0.0
C  C119  1  0.61251018  0.45848101  0.01818022  1  -0.035448  -6.2e-05  -0.087863  -0.155078  -0.000116  3.965587  0.0
C  C120  1  0.61755312  0.96558294  0.00139346  1  -0.008159  5.7e-05  -0.081967  -0.148951  1.4e-05  3.974263  0.0
C  C121  1  0.41733361  0.96498875  0.49847572  1  0.020093  5.5e-05  -0.080722  -0.146993  1.4e-05  3.97241  0.0
C  C122  1  0.38243794  0.03442372  0.99862448  1  -0.008591  5.6e-05  -0.08198  -0.148928  1.4e-05  3.974284  0.0
C  C123  1  0.58263077  0.03504420  0.50148175  1  0.02174  5.7e-05  -0.080692  -0.14701  1.5e-05  3.972867  0.0
C  C124  1  0.37167497  0.99691212  0.19667981  1  0.285736  0.001581  -0.007507  -0.12943  0.000941  3.952162  0.001
C  C125  1  0.63199824  0.99680899  0.30342855  1  0.286444  0.001573  -0.007521  -0.129687  0.000936  3.952096  0.001
C  C126  1  0.62831236  0.00308977  0.80333885  1  0.286748  0.001587  -0.007544  -0.129306  0.000945  3.952052  0.001
C  C127  1  0.36800286  0.00317939  0.69652559  1  0.285689  0.001566  -0.007375  -0.129362  0.000932  3.952007  0.001
C  C128  1  0.08070703  0.38625634  0.24353106  1  0.423172  0.000464  0.001822  -0.025297  0.000104  4.004349  0.001
C  C129  1  0.53394549  0.38607311  0.25643841  1  0.410591  0.000482  0.001086  -0.026402  8e-05  4.006885  0.001
C  C130  1  0.91931598  0.61369699  0.75648518  1  0.423387  0.000466  0.002081  -0.024448  0.000107  4.004116  0.001
C  C131  1  0.46606470  0.61392879  0.74355986  1  0.411002  0.000478  0.001119  -0.026309  7.7e-05  4.006831  0.001
C  C132  1  0.27058054  0.04815322  0.24172219  1  0.416111  0.000392  0.007963  -0.017587  -9e-06  3.984088  0.001
C  C133  1  0.68186965  0.04808728  0.25840870  1  0.42322  0.000389  0.0082  -0.016396  -4e-06  3.982279  0.001
C  C134  1  0.72940779  0.95184628  0.75829222  1  0.415952  0.000396  0.007901  -0.017665  -7e-06  3.98377  0.001
C  C135  1  0.31813715  0.95189871  0.74154330  1  0.425174  0.000384  0.008  -0.016829  -6e-06  3.982734  0.001
C  C136  1  0.08263532  0.44681088  0.29706548  1  0.282949  0.002695  -0.010487  -0.132972  0.001514  3.958834  0.002
C  C137  1  0.47137457  0.44662371  0.20292986  1  0.299482  0.002652  -0.010139  -0.132043  0.001497  3.959428  0.002
C  C138  1  0.91734944  0.55316792  0.70294685  1  0.283674  0.002697  -0.010438  -0.133007  0.001515  3.958821  0.002
C  C139  1  0.52862832  0.55339171  0.79707329  1  0.299219  0.002648  -0.010211  -0.132148  0.001495  3.959663  0.002
N  N140  1  0.35070425  0.04629437  0.12974800  1  -1.261753  0.000462  -0.227192  0.005468  0.000104  3.81648  0.0
N  N141  1  0.60321616  0.04638017  0.37030470  1  -1.264642  0.000465  -0.227428  0.004186  0.00011  3.816713  0.0
N  N142  1  0.64928116  0.95371150  0.87027226  1  -1.264365  0.000467  -0.227217  0.004992  0.000107  3.816955  0.0
N  N143  1  0.39677241  0.95361935  0.62964813  1  -1.265256  0.000459  -0.227374  0.00465  0.000107  3.816071  0.0
N  N144  1  0.19007911  0.12765462  0.20362865  1  -1.164649  0.028568  -0.333277  -0.236924  0.018916  3.551698  0.025
N  N145  1  0.68257946  0.12776279  0.29645659  1  -1.173044  0.028377  -0.333231  -0.237269  0.018769  3.549176  0.025
N  N146  1  0.80991124  0.87234250  0.79638726  1  -1.16519  0.028683  -0.333094  -0.236911  0.01899  3.551013  0.025
N  N147  1  0.31739704  0.87223911  0.70349379  1  -1.175762  0.028259  -0.333278  -0.237421  0.018689  3.549554  0.025
N  N148  1  0.03304286  0.42017342  0.36044900  1  -1.275895  0.001396  -0.224702  0.015257  0.000604  3.795467  0.001
N  N149  1  0.54747684  0.42002867  0.13949335  1  -1.258453  0.001392  -0.224694  0.014593  0.0006  3.797493  0.001
N  N150  1  0.96693236  0.57981652  0.63956059  1  -1.274135  0.001399  -0.224853  0.014898  0.000606  3.795798  0.001
N  N151  1  0.45251936  0.57998596  0.86050584  1  -1.259219  0.001389  -0.224678  0.014658  0.000597  3.797768  0.001
N  N152  1  0.03166648  0.32348606  0.27381893  1  -1.166086  0.05257  -0.340538  -0.238362  0.033368  3.605309  0.045
N  N153  1  0.64569056  0.32343047  0.22610575  1  -1.175055  0.052086  -0.34005  -0.237922  0.033044  3.606115  0.045
N  N154  1  0.96835214  0.67647444  0.72619634  1  -1.166119  0.052648  -0.340696  -0.23889  0.033418  3.605574  0.045
N  N155  1  0.35431544  0.67658416  0.77388959  1  -1.174614  0.051976  -0.33999  -0.237842  0.032977  3.606199  0.045
O  O156  1  0.02087398  0.09180427  0.17202972  1  -1.114922  0.061381  -0.302438  -0.536363  0.035883  2.388054  0.057
O  O157  1  0.88755301  0.09200502  0.32800393  1  -1.116757  0.061117  -0.302049  -0.535255  0.035697  2.389478  0.056
O  O158  1  0.97915995  0.90819604  0.82796635  1  -1.114481  0.06147  -0.302515  -0.53656  0.035936  2.387806  0.057
O  O159  1  0.11249074  0.90794515  0.67197790  1  -1.116806  0.061025  -0.301992  -0.535286  0.035641  2.389958  0.056
O  O160  1  0.86553268  0.33128900  0.07433372  1  -1.173555  0.01628  -0.320072  -0.543653  0.009208  2.165272  0.014
O  O161  1  0.80335213  0.33122551  0.42598711  1  -1.171275  0.016206  -0.319292  -0.542011  0.009162  2.166644  0.014
O  O162  1  0.13444973  0.66873199  0.92570205  1  -1.172947  0.016262  -0.319996  -0.543491  0.009197  2.165118  0.014
O  O163  1  0.19662083  0.66880027  0.57399545  1  -1.170922  0.016202  -0.319294  -0.54198  0.009159  2.166796  0.014
O  O164  1  0.83414486  0.12746652  0.17300627  1  -1.112037  0.115424  -0.28484  -0.530358  0.068672  2.321648  0.106
O  O165  1  0.03873681  0.12756488  0.32699938  1  -1.116177  0.115183  -0.285081  -0.52974  0.068594  2.321673  0.105
O  O166  1  0.16588480  0.87254653  0.82698526  1  -1.112769  0.115414  -0.284873  -0.530311  0.068664  2.321478  0.106
O  O167  1  0.96126710  0.87243622  0.67302056  1  -1.116106  0.11517  -0.285039  -0.529724  0.068586  2.321607  0.105
O  O168  1  0.02263519  0.29165036  0.13108301  1  -1.133814  0.103128  -0.307783  -0.563012  0.061159  2.35333  0.093
O  O169  1  0.68610983  0.29161439  0.36899005  1  -1.134828  0.103271  -0.307826  -0.561969  0.061195  2.355431  0.093
O  O170  1  0.97738888  0.70830218  0.86893101  1  -1.132701  0.103119  -0.307561  -0.562676  0.06116  2.353246  0.093
O  O171  1  0.31388295  0.70837079  0.63101559  1  -1.13495  0.103344  -0.307879  -0.562056  0.06124  2.355468  0.093
O  O172  1  0.86131413  0.27810520  0.25015115  1  -0.629181  0.613484  -0.388201  -0.549067  0.361326  1.858044  0.514
O  O173  1  0.13873975  0.72186884  0.74984303  1  -0.629214  0.613482  -0.388235  -0.54907  0.361344  1.857995  0.514
