# generated using pymatgen
data_SnPH5(C2O)3
_symmetry_space_group_name_H-M   'P 1'
_cell_length_a   4.83937087
_cell_length_b   6.78000228
_cell_length_c   12.60024060
_cell_angle_alpha   86.81421720
_cell_angle_beta   78.92697703
_cell_angle_gamma   73.15179047
_symmetry_Int_Tables_number   1
_chemical_formula_structural   SnPH5(C2O)3
_chemical_formula_sum   'Sn2 P2 H10 C12 O6'
_cell_volume   388.31360852
_cell_formula_units_Z   2
loop_
 _symmetry_equiv_pos_site_id
 _symmetry_equiv_pos_as_xyz
  1  'x, y, z'
loop_
 _atom_site_type_symbol
 _atom_site_label
 _atom_site_symmetry_multiplicity
 _atom_site_fract_x
 _atom_site_fract_y
 _atom_site_fract_z
 _atom_site_occupancy
 _atom_site_hle17_bader_spin_density
 _atom_site_hle17_ddec_charge
 _atom_site_hle17_ddec_spin_density
 _atom_site_hle17_ddec_sum_bond_order
 _atom_site_hle17_magmom
 _atom_site_hse06_10hf_bader_spin_density
 _atom_site_hse06_10hf_ddec_charge
 _atom_site_hse06_10hf_ddec_spin_density
 _atom_site_hse06_10hf_ddec_sum_bond_order
 _atom_site_hse06_10hf_magmom
 _atom_site_hse06_bader_spin_density
 _atom_site_hse06_ddec_charge
 _atom_site_hse06_ddec_spin_density
 _atom_site_hse06_ddec_sum_bond_order
 _atom_site_hse06_magmom
 _atom_site_pbe_bader_spin_density
 _atom_site_pbe_cm5_charge
 _atom_site_pbe_ddec_charge
 _atom_site_pbe_ddec_spin_density
 _atom_site_pbe_ddec_sum_bond_order
 _atom_site_pbe_magmom
Sn  Sn0  1  0.65756337  0.09444409  0.89406924  1  0  1.202582  0  1.880249  0  0  1.036775  0  2.314629  0  0  1.074711  0  2.285109  0  0  0.585099  1.009468  0  2.335494  0
Sn  Sn1  1  0.55150559  0.59435919  0.10584888  1  0  1.202571  0  1.881284  0  0  1.037143  0  2.315623  0  0  1.074917  0  2.286013  0  0  0.585384  1.00985  0  2.336507  0
P  P2  1  0.15483570  0.23504797  0.12110829  1  0  1.446169  0  4.856359  0  0  1.286652  0  5.332826  0  0  1.338754  0  5.293348  0  0  0.373095  1.250459  0  5.359187  0
P  P3  1  0.27626210  0.73498944  0.87881485  1  0  1.448589  0  4.851926  0  0  1.289237  0  5.327975  0  0  1.341152  0  5.288547  0  0  0.37428  1.253198  0  5.35425  0
H  H4  1  0.85158188  0.91591098  0.15772674  1  0  0.087394  0  0.988942  0  0  0.090782  0  1.066768  0  0  0.093338  0  1.066114  0  0  0.100814  0.088893  0  1.067308  0
H  H5  1  0.00884355  0.41625500  0.84239305  1  0  0.088325  0  0.987825  0  0  0.091487  0  1.065641  0  0  0.094007  0  1.065088  0  0  0.101134  0.089564  0  1.066274  0
H  H6  1  0.72487896  0.71452389  0.32055632  1  0  0.064774  0  0.989819  0  0  0.070454  0  1.064148  0  0  0.072453  0  1.064865  0  0  0.093394  0.069008  0  1.063798  0
H  H7  1  0.04447982  0.21462393  0.67972135  1  0  0.063711  0  0.989735  0  0  0.06942  0  1.064163  0  0  0.071345  0  1.065039  0  0  0.09301  0.068026  0  1.063698  0
H  H8  1  0.83721217  0.78751925  0.49735548  1  0  0.082838  0  0.974662  0  0  0.095369  0  1.034353  0  0  0.097605  0  1.033598  0  0  0.098248  0.093795  0  1.034889  0
H  H9  1  0.33393908  0.28697062  0.50283743  1  0  0.083056  0  0.975404  0  0  0.095326  0  1.035228  0  0  0.097656  0  1.034368  0  0  0.097915  0.093689  0  1.035827  0
H  H10  1  0.06739645  0.06457485  0.51051394  1  0  0.082907  0  0.964982  0  0  0.096415  0  1.023265  0  0  0.098847  0  1.022746  0  0  0.098899  0.09474  0  1.023651  0
H  H11  1  0.57769145  0.56381691  0.48940328  1  0  0.083324  0  0.964586  0  0  0.097189  0  1.022335  0  0  0.099602  0  1.02182  0  0  0.098695  0.095498  0  1.02277  0
H  H12  1  0.20182388  0.26496889  0.34530180  1  0  0.092781  0  0.95462  0  0  0.104062  0  1.014399  0  0  0.107247  0  1.012445  0  0  0.101346  0.101675  0  1.015979  0
H  H13  1  0.54720895  0.76456940  0.65448299  1  0  0.094017  0  0.954974  0  0  0.104863  0  1.015316  0  0  0.108075  0  1.013316  0  0  0.101531  0.102502  0  1.016902  0
C  C14  1  0.03956637  0.10107502  0.24137508  1  0  -0.253316  0  3.804283  0  0  -0.210001  0  4.03899  0  0  -0.221396  0  4.064031  0  0  -0.026733  -0.202358  0  4.022055  0
C  C15  1  0.28083096  0.60092321  0.75857836  1  0  -0.254926  0  3.805949  0  0  -0.211453  0  4.040135  0  0  -0.222812  0  4.065104  0  0  -0.027444  -0.203826  0  4.023271  0
C  C16  1  0.90328612  0.94649073  0.23471665  1  0  -0.070904  0  3.795982  0  0  -0.090023  0  4.037295  0  0  -0.091453  0  4.062442  0  0  -0.082018  -0.088973  0  4.020433  0
C  C17  1  0.13750097  0.44658099  0.76535177  1  0  -0.070642  0  3.794976  0  0  -0.089258  0  4.035812  0  0  -0.090652  0  4.060843  0  0  -0.082054  -0.088223  0  4.018962  0
C  C18  1  0.82988377  0.83461666  0.32670663  1  0  -0.075526  0  3.800429  0  0  -0.085967  0  4.047106  0  0  -0.089814  0  4.07119  0  0  -0.092089  -0.083419  0  4.030856  0
C  C19  1  0.15587580  0.33457229  0.67344552  1  0  -0.07415  0  3.799445  0  0  -0.084574  0  4.045946  0  0  -0.088418  0  4.069989  0  0  -0.091994  -0.082008  0  4.029661  0
C  C20  1  0.89064579  0.87633258  0.42565745  1  0  -0.067669  0  3.764567  0  0  -0.079576  0  4.004524  0  0  -0.080051  0  4.025208  0  0  -0.089645  -0.079053  0  3.990355  0
C  C21  1  0.31567453  0.37597052  0.57445746  1  0  -0.068443  0  3.764067  0  0  -0.08014  0  4.004098  0  0  -0.080683  0  4.024783  0  0  -0.089261  -0.079566  0  3.989901  0
C  C22  1  0.02194313  0.03200056  0.43296247  1  0  -0.07363  0  3.774208  0  0  -0.084127  0  4.019951  0  0  -0.087437  0  4.042055  0  0  -0.093217  -0.081937  0  4.004813  0
C  C23  1  0.45454768  0.53149497  0.56699892  1  0  -0.074358  0  3.772068  0  0  -0.085086  0  4.01789  0  0  -0.088393  0  4.040073  0  0  -0.093639  -0.082872  0  4.002672  0
C  C24  1  0.09665400  0.14414271  0.34121446  1  0  -0.044536  0  3.760741  0  0  -0.066906  0  4.00245  0  0  -0.066946  0  4.024628  0  0  -0.084745  -0.066644  0  3.987404  0
C  C25  1  0.43770547  0.64385953  0.65867003  1  0  -0.04505  0  3.761572  0  0  -0.067331  0  4.003588  0  0  -0.067362  0  4.025692  0  0  -0.083552  -0.067111  0  3.98852  0
O  O26  1  0.41140893  0.07427795  0.05233041  1  0  -0.816789  0  2.093206  0  0  -0.711597  0  2.360579  0  0  -0.739663  0  2.343715  0  0  -0.32072  -0.691689  0  2.371528  0
O  O27  1  0.46383180  0.57417128  0.94763150  1  0  -0.818149  0  2.094793  0  0  -0.712979  0  2.362459  0  0  -0.740744  0  2.345372  0  0  -0.320997  -0.693208  0  2.373486  0
O  O28  1  0.89732525  0.30979485  0.05797911  1  0  -0.810028  0  2.009492  0  0  -0.70685  0  2.269957  0  0  -0.734134  0  2.251939  0  0  -0.323535  -0.687549  0  2.281859  0
O  O29  1  0.95567054  0.81001234  0.94196964  1  0  -0.810451  0  2.007578  0  0  -0.707665  0  2.268506  0  0  -0.734929  0  2.250505  0  0  -0.324223  -0.688457  0  2.280469  0
O  O30  1  0.24048423  0.41665112  0.16002592  1  0  -0.846485  0  2.07634  0  0  -0.745331  0  2.342837  0  0  -0.771864  0  2.324308  0  0  -0.337969  -0.726221  0  2.354652  0
O  O31  1  0.40135369  0.91631149  0.83979835  1  0  -0.847985  0  2.074474  0  0  -0.74631  0  2.340527  0  0  -0.772958  0  2.322274  0  0  -0.339008  -0.727248  0  2.352407  0
