# generated using pymatgen
data_Cd2H19C27NO9
_symmetry_space_group_name_H-M   'P 1'
_cell_length_a   8.38900587
_cell_length_b   11.98001326
_cell_length_c   12.43900000
_cell_angle_alpha   99.22587898
_cell_angle_beta   91.23783862
_cell_angle_gamma   92.98702343
_symmetry_Int_Tables_number   1
_chemical_formula_structural   Cd2H19C27NO9
_chemical_formula_sum   'Cd4 H38 C54 N2 O18'
_cell_volume   1231.70711580
_cell_formula_units_Z   2
loop_
 _symmetry_equiv_pos_site_id
 _symmetry_equiv_pos_as_xyz
  1  'x, y, z'
loop_
 _atom_site_type_symbol
 _atom_site_label
 _atom_site_symmetry_multiplicity
 _atom_site_fract_x
 _atom_site_fract_y
 _atom_site_fract_z
 _atom_site_occupancy
 _atom_site_hle17_bader_spin_density
 _atom_site_hle17_ddec_charge
 _atom_site_hle17_ddec_spin_density
 _atom_site_hle17_ddec_sum_bond_order
 _atom_site_hle17_magmom
 _atom_site_hse06_10hf_bader_spin_density
 _atom_site_hse06_10hf_ddec_charge
 _atom_site_hse06_10hf_ddec_spin_density
 _atom_site_hse06_10hf_ddec_sum_bond_order
 _atom_site_hse06_10hf_magmom
 _atom_site_hse06_bader_spin_density
 _atom_site_hse06_ddec_charge
 _atom_site_hse06_ddec_spin_density
 _atom_site_hse06_ddec_sum_bond_order
 _atom_site_hse06_magmom
 _atom_site_pbe_bader_charge
 _atom_site_pbe_bader_spin_density
 _atom_site_pbe_cm5_charge
 _atom_site_pbe_ddec_charge
 _atom_site_pbe_ddec_spin_density
 _atom_site_pbe_ddec_sum_bond_order
 _atom_site_pbe_magmom
Cd  Cd0  1  0.92590294  0.23872477  0.01727391  1  0  1.259252  0  1.562183  0  0  1.08657  0  1.993155  0  0  1.14553  0  1.933985  0  1.328291  0  0.781143  1.044308  0  2.033899  0
Cd  Cd1  1  0.07409289  0.76127407  0.98272545  1  0  1.259263  0  1.56221  0  0  1.086597  0  1.993187  0  0  1.145556  0  1.934016  0  1.32825  0  0.781136  1.044331  0  2.033931  0
Cd  Cd2  1  0.68175602  0.89899238  0.99954931  1  0  1.241197  0  1.632909  0  0  1.057276  0  2.076813  0  0  1.111505  0  2.021963  0  1.307243  0  0.79873  1.018272  0  2.114731  0
Cd  Cd3  1  0.31824001  0.10100901  0.00044803  1  0  1.241219  0  1.632943  0  0  1.057286  0  2.076862  0  0  1.111515  0  2.022008  0  1.30723  0  0.798732  1.018282  0  2.114782  0
H  H4  1  0.02451770  0.51093090  0.86460796  1  0  0.386378  0  0.898269  0  0  0.359727  0  0.970512  0  0  0.3717  0  0.957974  0  0.642307  0  0.300858  0.351307  0  0.979174  0
H  H5  1  0.97547853  0.48907303  0.13539621  1  0  0.386379  0  0.898251  0  0  0.359716  0  0.970511  0  0  0.371689  0  0.957974  0  0.642304  0  0.300874  0.351297  0  0.979172  0
H  H6  1  0.65276974  0.17377541  0.14761573  1  0  0.436205  0  0.867693  0  0  0.403003  0  0.934187  0  0  0.413987  0  0.918357  0  0.63714  0  0.286816  0.39528  0  0.945301  0
H  H7  1  0.34722848  0.82622344  0.85238447  1  0  0.436157  0  0.867762  0  0  0.402988  0  0.934211  0  0  0.413971  0  0.918382  0  0.637153  0  0.286821  0.395266  0  0.945323  0
H  H8  1  0.74018585  0.28919879  0.21296407  1  0  0.414937  0  0.867201  0  0  0.388343  0  0.935282  0  0  0.396194  0  0.924303  0  0.609303  0  0.297894  0.382762  0  0.943104  0
H  H9  1  0.25981369  0.71080175  0.78703641  1  0  0.414989  0  0.867119  0  0  0.388396  0  0.935203  0  0  0.396246  0  0.924226  0  0.609304  0  0.297923  0.382815  0  0.943025  0
H  H10  1  0.58207652  0.65491536  0.92807588  1  0  0.415379  0  0.851945  0  0  0.389885  0  0.923313  0  0  0.397284  0  0.912817  0  0.612309  0  0.30251  0.384623  0  0.930326  0
H  H11  1  0.41793123  0.34508348  0.07192848  1  0  0.415369  0  0.852047  0  0  0.389865  0  0.923348  0  0  0.397272  0  0.912843  0  0.612239  0  0.302527  0.384601  0  0.930421  0
H  H12  1  0.45983930  0.69034060  0.02083330  1  0  0.430621  0  0.86778  0  0  0.398734  0  0.932383  0  0  0.409596  0  0.91646  0  0.658552  0  0.2888  0.391007  0  0.943702  0
H  H13  1  0.54016859  0.30965994  0.97916891  1  0  0.430673  0  0.867702  0  0  0.398787  0  0.932301  0  0  0.409649  0  0.916378  0  0.658491  0  0.288851  0.39106  0  0.94362  0
H  H14  1  0.52430940  0.38106181  0.80881269  1  0  0.10402  0  0.963642  0  0  0.111568  0  1.03249  0  0  0.114664  0  1.03002  0  0.097102  0  0.105778  0.109336  0  1.034217  0
H  H15  1  0.47569120  0.61893703  0.19118594  1  0  0.104033  0  0.963639  0  0  0.111604  0  1.03246  0  0  0.114701  0  1.02999  0  0.097104  0  0.105791  0.109372  0  1.034188  0
H  H16  1  0.28981670  0.43818313  0.71329602  1  0  0.095922  0  0.945779  0  0  0.108208  0  1.004911  0  0  0.110928  0  1.003536  0  0.061544  0  0.103262  0.106243  0  1.005918  0
H  H17  1  0.71018410  0.56181825  0.28670622  1  0  0.09591  0  0.945749  0  0  0.108173  0  1.004906  0  0  0.110892  0  1.003533  0  0.061569  0  0.103277  0.106209  0  1.00591  0
H  H18  1  0.16636342  0.56944640  0.60345255  1  0  0.091632  0  0.974942  0  0  0.100965  0  1.038999  0  0  0.103305  0  1.038653  0  0.052296  0  0.097767  0.099276  0  1.039383  0
H  H19  1  0.83363255  0.43055414  0.39655350  1  0  0.091621  0  0.975053  0  0  0.101029  0  1.039027  0  0  0.103374  0  1.03867  0  0.052248  0  0.09779  0.099338  0  1.039418  0
H  H20  1  0.33365537  0.72220501  0.54087630  1  0  0.08957  0  0.96497  0  0  0.100639  0  1.024945  0  0  0.102375  0  1.02559  0  0.087043  0  0.098633  0.099343  0  1.024572  0
H  H21  1  0.66633947  0.27779637  0.45912906  1  0  0.08955  0  0.965017  0  0  0.100625  0  1.024976  0  0  0.102361  0  1.025622  0  0.087026  0  0.098636  0.099318  0  1.024616  0
H  H22  1  0.62075862  0.75058484  0.59306297  1  0  0.083448  0  0.988215  0  0  0.094189  0  1.052049  0  0  0.096884  0  1.051516  0  0.075968  0  0.096423  0.092268  0  1.052554  0
H  H23  1  0.37923622  0.24941655  0.40693918  1  0  0.083457  0  0.98817  0  0  0.09416  0  1.052054  0  0  0.096854  0  1.051522  0  0.075934  0  0.096418  0.09224  0  1.052559  0
H  H24  1  0.07453258  0.03249374  0.67600117  1  0  0.102336  0  0.961736  0  0  0.110253  0  1.030027  0  0  0.11293  0  1.028814  0  0.094323  0  0.103198  0.108318  0  1.030896  0
H  H25  1  0.92547729  0.96750171  0.32400028  1  0  0.102371  0  0.961773  0  0  0.110263  0  1.030082  0  0  0.112939  0  1.028871  0  0.094257  0  0.10322  0.10833  0  1.030945  0
H  H26  1  0.14696288  0.95568681  0.48818073  1  0  0.086733  0  0.967192  0  0  0.098776  0  1.02839  0  0  0.101023  0  1.027885  0  0.091897  0  0.098281  0.097163  0  1.028819  0
H  H27  1  0.85305183  0.04430949  0.51182333  1  0  0.08676  0  0.967188  0  0  0.09878  0  1.02841  0  0  0.101029  0  1.027894  0  0.091856  0  0.09827  0.09717  0  1.028838  0
H  H28  1  0.13429765  0.79844075  0.33032472  1  0  0.098587  0  0.946619  0  0  0.109779  0  1.004209  0  0  0.112586  0  1.003981  0  0.045405  0  0.099111  0.107779  0  1.00449  0
H  H29  1  0.86571123  0.20155725  0.66967550  1  0  0.098569  0  0.946646  0  0  0.109772  0  1.004231  0  0  0.112576  0  1.004006  0  0.04545  0  0.099108  0.107773  0  1.00451  0
H  H30  1  0.99538472  0.61307236  0.34760583  1  0  0.087151  0  0.964549  0  0  0.096935  0  1.027641  0  0  0.09965  0  1.02644  0  0.056726  0  0.095929  0.094995  0  1.028467  0
H  H31  1  0.00461482  0.38692818  0.65239304  1  0  0.087112  0  0.96452  0  0  0.096902  0  1.02761  0  0  0.099615  0  1.026407  0  0.05644  0  0.095922  0.094962  0  1.028436  0
H  H32  1  0.87034470  0.58496611  0.52077292  1  0  0.085789  0  0.98426  0  0  0.092823  0  1.05503  0  0  0.095211  0  1.055396  0  0.068517  0  0.094465  0.091155  0  1.054821  0
H  H33  1  0.12965252  0.41503527  0.47922605  1  0  0.085711  0  0.984278  0  0  0.092765  0  1.055035  0  0  0.095153  0  1.055402  0  0.068514  0  0.094448  0.091099  0  1.054819  0
H  H34  1  0.64904231  0.91780610  0.68461623  1  0  0.111022  0  0.984974  0  0  0.118914  0  1.050284  0  0  0.121315  0  1.051726  0  0.090534  0  0.100183  0.11716  0  1.04954  0
H  H35  1  0.35095233  0.08219274  0.31538231  1  0  0.11104  0  0.984934  0  0  0.118948  0  1.050218  0  0  0.121344  0  1.051668  0  0.090863  0  0.100195  0.117207  0  1.049457  0
H  H36  1  0.60610964  0.05656908  0.55772776  1  0  0.078909  0  0.968819  0  0  0.092432  0  1.027695  0  0  0.094339  0  1.026204  0  0.070513  0  0.101462  0.091036  0  1.028728  0
H  H37  1  0.39389097  0.94342977  0.44226845  1  0  0.078897  0  0.968779  0  0  0.092425  0  1.027653  0  0  0.094331  0  1.026162  0  0.070643  0  0.101444  0.091029  0  1.028686  0
H  H38  1  0.41762959  0.21230577  0.60872135  1  0  0.101374  0  0.956427  0  0  0.114065  0  1.013279  0  0  0.11655  0  1.014383  0  0.060782  0  0.101742  0.112307  0  1.012667  0
H  H39  1  0.58237002  0.78769562  0.39127363  1  0  0.101328  0  0.9565  0  0  0.114037  0  1.013329  0  0  0.116522  0  1.014433  0  0.06077  0  0.101744  0.112271  0  1.012726  0
H  H40  1  0.28716244  0.22446286  0.79037875  1  0  0.085596  0  0.923247  0  0  0.098531  0  0.980882  0  0  0.100859  0  0.97793  0  0.106141  0  0.119817  0.096769  0  0.98312  0
H  H41  1  0.71283353  0.77553767  0.20961685  1  0  0.08561  0  0.923295  0  0  0.098563  0  0.980905  0  0  0.100891  0  0.977951  0  0.106217  0  0.119834  0.096799  0  0.983146  0
C  C42  1  0.78535047  0.63207242  0.72347691  1  0  -0.078273  0  3.734351  0  0  -0.074899  0  3.979282  0  0  -0.079687  0  4.002495  0  0.058321  0  -0.02056  -0.071908  0  3.963875  0
C  C43  1  0.21464789  0.36792811  0.27652435  1  0  -0.078275  0  3.734387  0  0  -0.074939  0  3.979324  0  0  -0.079728  0  4.002536  0  0.058115  0  -0.02062  -0.071923  0  3.963884  0
C  C44  1  0.84981843  0.55980576  0.78797801  1  0  0.279315  0  3.776597  0  0  0.254473  0  4.049297  0  0  0.267447  0  4.064629  0  0.483292  0  0.082789  0.245626  0  4.038896  0
C  C45  1  0.15017754  0.44019478  0.21202242  1  0  0.279251  0  3.776688  0  0  0.254443  0  4.049345  0  0  0.267418  0  4.064676  0  0.48333  0  0.082783  0.24559  0  4.038941  0
C  C46  1  0.75443873  0.46758191  0.81819415  1  0  -0.1956  0  3.799645  0  0  -0.176333  0  4.044198  0  0  -0.189363  0  4.066382  0  -0.029753  0  -0.035056  -0.167935  0  4.029364  0
C  C47  1  0.24556200  0.53241863  0.18180715  1  0  -0.195551  0  3.799655  0  0  -0.176292  0  4.044189  0  0  -0.189322  0  4.066373  0  -0.029852  0  -0.03503  -0.167901  0  4.029363  0
C  C48  1  0.59579234  0.45045542  0.78381712  1  0  -0.086757  0  3.738367  0  0  -0.120086  0  3.988644  0  0  -0.114782  0  4.005062  0  -0.015639  0  -0.080726  -0.123214  0  3.977344  0
C  C49  1  0.40420482  0.54954511  0.21618332  1  0  -0.086773  0  3.738433  0  0  -0.120132  0  3.988695  0  0  -0.114829  0  4.005113  0  -0.015357  0  -0.080725  -0.123258  0  3.977396  0
C  C50  1  0.36139062  0.50687543  0.68676492  1  0  -0.10368  0  3.743884  0  0  -0.123932  0  3.990577  0  0  -0.124165  0  4.010134  0  -0.083561  0  -0.088691  -0.12354  0  3.977272  0
C  C51  1  0.63860396  0.49312257  0.31323831  1  0  -0.103568  0  3.743943  0  0  -0.123793  0  3.990625  0  0  -0.124028  0  4.01019  0  -0.083545  0  -0.088648  -0.1234  0  3.977318  0
C  C52  1  0.29317760  0.57887189  0.62535750  1  0  -0.094338  0  3.800335  0  0  -0.107484  0  4.05108  0  0  -0.109874  0  4.070512  0  -0.00721  0  -0.099177  -0.10601  0  4.03798  0
C  C53  1  0.70682718  0.42113457  0.37464719  1  0  -0.094443  0  3.800214  0  0  -0.107661  0  4.050957  0  0  -0.11005  0  4.070389  0  -0.007179  0  -0.099275  -0.106186  0  4.037852  0
C  C54  1  0.38867673  0.66666844  0.59054195  1  0  -0.056363  0  3.762291  0  0  -0.068732  0  4.00815  0  0  -0.067888  0  4.027659  0  -0.099703  0  -0.090256  -0.068994  0  3.994767  0
C  C55  1  0.61131320  0.33333125  0.40946228  1  0  -0.056371  0  3.762121  0  0  -0.068737  0  4.007996  0  0  -0.067895  0  4.027505  0  -0.099416  0  -0.090281  -0.06899  0  3.994614  0
C  C56  1  0.54860779  0.68275056  0.61994808  1  0  -0.113125  0  3.742014  0  0  -0.135946  0  3.994271  0  0  -0.140042  0  4.014748  0  -0.02791  0  -0.0939  -0.13332  0  3.980383  0
C  C57  1  0.45139162  0.31724828  0.38005375  1  0  -0.113062  0  3.742069  0  0  -0.135873  0  3.99432  0  0  -0.139969  0  4.014797  0  -0.028478  0  -0.093887  -0.133247  0  3.98043  0
C  C58  1  0.62257951  0.61226855  0.68582229  1  0  0.042913  0  3.74514  0  0  0.053361  0  3.973037  0  0  0.056315  0  3.996093  0  -0.022402  0  -0.002367  0.051593  0  3.957425  0
C  C59  1  0.37741633  0.38773030  0.31417868  1  0  0.042886  0  3.745068  0  0  0.053358  0  3.972921  0  0  0.056314  0  3.995974  0  -0.022097  0  -0.002322  0.051581  0  3.957305  0
C  C60  1  0.52593916  0.52122627  0.71805797  1  0  0.028165  0  3.83242  0  0  0.045638  0  4.062308  0  0  0.04158  0  4.087338  0  -0.031024  0  -0.017495  0.048112  0  4.045364  0
C  C61  1  0.47406045  0.47877511  0.28194345  1  0  0.028123  0  3.832393  0  0  0.04561  0  4.062234  0  0  0.04155  0  4.087264  0  -0.031306  0  -0.017538  0.048084  0  4.045291  0
C  C62  1  0.87526990  0.73783314  0.70674826  1  0  -0.105854  0  3.741879  0  0  -0.097854  0  3.986106  0  0  -0.105283  0  4.010319  0  -0.033765  0  -0.030785  -0.093108  0  3.96993  0
C  C63  1  0.12472825  0.26216485  0.29325019  1  0  -0.105854  0  3.741948  0  0  -0.097838  0  3.986184  0  0  -0.105268  0  4.010397  0  -0.033392  0  -0.030758  -0.093099  0  3.970002  0
C  C64  1  0.89133464  0.82501391  0.79673952  1  0  0.30429  0  3.851283  0  0  0.276858  0  4.114218  0  0  0.293084  0  4.129742  0  0.577144  0  0.074383  0.265957  0  4.103386  0
C  C65  1  0.10866119  0.17498493  0.20326065  1  0  0.304358  0  3.851218  0  0  0.276837  0  4.114242  0  0  0.293061  0  4.129767  0  0.577176  0  0.074366  0.265936  0  4.10341  0
C  C66  1  0.95465935  0.93569828  0.78296668  1  0  -0.178823  0  3.73799  0  0  -0.159313  0  3.986111  0  0  -0.172093  0  4.006616  0  0.003802  0  -0.032962  -0.151092  0  3.972372  0
C  C67  1  0.04533655  0.06430141  0.21703281  1  0  -0.178914  0  3.738041  0  0  -0.159365  0  3.986148  0  0  -0.172143  0  4.006651  0  0.003697  0  -0.03302  -0.151145  0  3.972413  0
C  C68  1  0.02155844  0.94955532  0.68472762  1  0  -0.074831  0  3.701006  0  0  -0.110616  0  3.954239  0  0  -0.105326  0  3.971005  0  -0.04209  0  -0.079927  -0.113698  0  3.942676  0
C  C69  1  0.97844567  0.05044267  0.31527093  1  0  -0.074794  0  3.701187  0  0  -0.110606  0  3.954357  0  0  -0.105316  0  3.971124  0  -0.041694  0  -0.07992  -0.113687  0  3.942793  0
C  C70  1  0.08882783  0.87364822  0.49484697  1  0  -0.115795  0  3.769379  0  0  -0.135085  0  4.019324  0  0  -0.135457  0  4.040113  0  -0.126531  0  -0.091444  -0.134592  0  4.00519  0
C  C71  1  0.91118442  0.12634723  0.50515532  1  0  -0.115783  0  3.769413  0  0  -0.135092  0  4.019319  0  0  -0.135462  0  4.040108  0  -0.125982  0  -0.091394  -0.1346  0  4.005186  0
C  C72  1  0.08092309  0.78663008  0.40714458  1  0  -0.089542  0  3.786453  0  0  -0.106005  0  4.043632  0  0  -0.109573  0  4.064805  0  0.019291  0  -0.102079  -0.103727  0  4.02927  0
C  C73  1  0.91908579  0.21336792  0.59285805  1  0  -0.08948  0  3.786292  0  0  -0.105958  0  4.043474  0  0  -0.109528  0  4.06465  0  0.019298  0  -0.10205  -0.103681  0  4.029111  0
C  C74  1  0.00108134  0.68178836  0.41690253  1  0  -0.063276  0  3.774028  0  0  -0.07719  0  4.025968  0  0  -0.076778  0  4.046134  0  -0.079243  0  -0.094476  -0.077119  0  4.012029  0
C  C75  1  0.99892284  0.31821048  0.58309615  1  0  -0.063278  0  3.773955  0  0  -0.077202  0  4.025924  0  0  -0.076787  0  4.046087  0  -0.078971  0  -0.09452  -0.077131  0  4.011985  0
C  C76  1  0.93161030  0.66572233  0.51323798  1  0  -0.132679  0  3.762331  0  0  -0.150837  0  4.014519  0  0  -0.155013  0  4.03539  0  -0.04571  0  -0.099982  -0.148095  0  4.0003  0
C  C77  1  0.06839149  0.33427651  0.48676227  1  0  -0.13254  0  3.762242  0  0  -0.150721  0  4.014431  0  0  -0.154897  0  4.0353  0  -0.045747  0  -0.099954  -0.147977  0  4.000213  0
C  C78  1  0.93926851  0.75335963  0.60519590  1  0  0.040674  0  3.784143  0  0  0.048733  0  4.012745  0  0  0.051853  0  4.036196  0  -0.018644  0  -0.008198  0.046901  0  3.996786  0
C  C79  1  0.06073321  0.24663836  0.39480582  1  0  0.040678  0  3.784199  0  0  0.048722  0  4.012726  0  0  0.051841  0  4.036179  0  -0.018568  0  -0.008175  0.04689  0  3.996768  0
C  C80  1  0.01901400  0.86014523  0.59524029  1  0  0.029051  0  3.811751  0  0  0.046944  0  4.043316  0  0  0.042711  0  4.068164  0  0.002669  0  -0.02006  0.049508  0  4.026506  0
C  C81  1  0.98099355  0.13985107  0.40475965  1  0  0.028964  0  3.812117  0  0  0.046985  0  4.043475  0  0  0.042753  0  4.068323  0  0.001749  0  -0.020036  0.049548  0  4.026666  0
C  C82  1  0.82364500  0.39225247  0.88810453  1  0  0.655769  0  3.895871  0  0  0.605815  0  4.179994  0  0  0.640979  0  4.174336  0  1.482455  0  0.203029  0.581999  0  4.183029  0
C  C83  1  0.17635222  0.60774891  0.11189605  1  0  0.655872  0  3.895721  0  0  0.605924  0  4.179832  0  0  0.641087  0  4.174174  0  1.482713  0  0.203052  0.582109  0  4.182869  0
C  C84  1  0.94553441  0.03757578  0.86881397  1  0  0.669851  0  3.871579  0  0  0.618035  0  4.160466  0  0  0.654611  0  4.153502  0  1.494365  0  0.201916  0.593119  0  4.16439  0
C  C85  1  0.05446520  0.96242560  0.13118422  1  0  0.669917  0  3.871444  0  0  0.61812  0  4.160288  0  0  0.654697  0  4.153321  0  1.494169  0  0.201922  0.593204  0  4.164217  0
C  C86  1  0.48733243  0.99535470  0.80315254  1  0  0.535672  0  3.881536  0  0  0.502675  0  4.143756  0  0  0.526811  0  4.152853  0  1.215504  0  0.200724  0.486395  0  4.137062  0
C  C87  1  0.51266234  0.00464584  0.19684465  1  0  0.535853  0  3.881284  0  0  0.502829  0  4.14353  0  0  0.526965  0  4.152624  0  1.215774  0  0.200814  0.486548  0  4.13684  0
C  C88  1  0.56850414  0.98592582  0.70373620  1  0  -0.2358  0  3.687571  0  0  -0.249188  0  3.934196  0  0  -0.261885  0  3.955363  0  -0.023802  0  -0.105645  -0.241043  0  3.920121  0
C  C89  1  0.43149050  0.01407303  0.29625993  1  0  -0.235915  0  3.687471  0  0  -0.249313  0  3.934113  0  0  -0.262007  0  3.955286  0  -0.024472  0  -0.105694  -0.241175  0  3.920025  0
C  C90  1  0.54428287  0.06348574  0.63440357  1  0  0.00698  0  3.789397  0  0  -0.009993  0  4.035564  0  0  -0.003528  0  4.054577  0  -0.076085  0  -0.077516  -0.013835  0  4.022421  0
C  C91  1  0.45571422  0.93651395  0.36559031  1  0  0.007094  0  3.789249  0  0  -0.009877  0  4.035432  0  0  -0.003411  0  4.054445  0  -0.076075  0  -0.077438  -0.013718  0  4.022285  0
C  C92  1  0.44018300  0.15091214  0.66223267  1  0  -0.175124  0  3.778541  0  0  -0.188252  0  4.033312  0  0  -0.199367  0  4.056924  0  0.04161  0  -0.106309  -0.181128  0  4.017384  0
C  C93  1  0.55981528  0.84908755  0.33776364  1  0  -0.175182  0  3.778596  0  0  -0.188328  0  4.033373  0  0  -0.199443  0  4.056985  0  0.041738  0  -0.106359  -0.181195  0  4.017447  0
C  C94  1  0.36831349  0.15859619  0.76208911  1  0  0.162429  0  3.741492  0  0  0.126233  0  3.998218  0  0  0.137146  0  4.016365  0  0.395934  0  0.043028  0.119095  0  3.985746  0
C  C95  1  0.63168592  0.84140265  0.23790467  1  0  0.162539  0  3.741557  0  0  0.126322  0  3.998286  0  0  0.137237  0  4.016431  0  0.395852  0  0.043097  0.119183  0  3.985813  0
N  N96  1  0.39356718  0.08413408  0.83041259  1  0  -0.469594  0  3.255123  0  0  -0.380183  0  3.518319  0  0  -0.408454  0  3.534785  0  -1.245818  0  -0.359488  -0.360919  0  3.506631  0
N  N97  1  0.60642998  0.91586645  0.16958383  1  0  -0.469712  0  3.255071  0  0  -0.38029  0  3.518291  0  0  -0.408562  0  3.534756  0  -1.245912  0  -0.359575  -0.361026  0  3.506605  0
O  O98  1  0.73265930  0.32063546  0.92762418  1  0  -0.651456  0  2.021389  0  0  -0.575238  0  2.252234  0  0  -0.60567  0  2.240655  0  -1.166327  0  -0.319005  -0.553957  0  2.259525  0
O  O99  1  0.26734137  0.67936423  0.07237458  1  0  -0.651498  0  2.021294  0  0  -0.575292  0  2.252141  0  0  -0.605725  0  2.240563  0  -1.16633  0  -0.319032  -0.554011  0  2.259432  0
O  O100  1  0.97489112  0.39941307  0.90792872  1  0  -0.623574  0  1.954239  0  0  -0.560652  0  2.171684  0  0  -0.587852  0  2.160645  0  -1.134389  0  -0.315004  -0.541734  0  2.178662  0
O  O101  1  0.02510870  0.60059086  0.09207309  1  0  -0.623628  0  1.954212  0  0  -0.560704  0  2.171658  0  0  -0.587904  0  2.160618  0  -1.134544  0  -0.314998  -0.541787  0  2.178636  0
O  O102  1  0.00432345  0.57834082  0.82567444  1  0  -0.539297  0  2.153193  0  0  -0.480995  0  2.385196  0  0  -0.503073  0  2.376065  0  -1.168903  0  -0.346766  -0.465189  0  2.391026  0
O  O103  1  0.99567152  0.42166226  0.17432878  1  0  -0.539304  0  2.15336  0  0  -0.480996  0  2.385353  0  0  -0.503073  0  2.376221  0  -1.168951  0  -0.346783  -0.46519  0  2.391182  0
O  O104  1  0.03775066  0.12446857  0.86454945  1  0  -0.652196  0  1.985263  0  0  -0.590249  0  2.234352  0  0  -0.620093  0  2.224165  0  -1.153706  0  -0.318759  -0.569074  0  2.240384  0
O  O105  1  0.96224749  0.87552943  0.13544820  1  0  -0.652227  0  1.985193  0  0  -0.590288  0  2.234268  0  0  -0.620134  0  2.224082  0  -1.153688  0  -0.318742  -0.569107  0  2.240288  0
O  O106  1  0.84114613  0.04145084  0.94424650  1  0  -0.688615  0  2.039589  0  0  -0.608442  0  2.303272  0  0  -0.640929  0  2.288919  0  -1.144224  0  -0.336605  -0.585507  0  2.312354  0
O  O107  1  0.15885460  0.95854969  0.05575078  1  0  -0.688659  0  2.039621  0  0  -0.608507  0  2.303313  0  0  -0.640994  0  2.288959  0  -1.144036  0  -0.336608  -0.585571  0  2.312396  0
O  O108  1  0.85313010  0.80111729  0.89472148  1  0  -0.705819  0  2.197433  0  0  -0.60976  0  2.471478  0  0  -0.642222  0  2.463151  0  -1.153691  0  -0.374155  -0.586618  0  2.476275  0
O  O109  1  0.14686825  0.19888324  0.10527657  1  0  -0.705852  0  2.197279  0  0  -0.609737  0  2.471324  0  0  -0.642198  0  2.462994  0  -1.153709  0  -0.374143  -0.586604  0  2.476136  0
O  O110  1  0.49373894  0.92228592  0.87086831  1  0  -0.7287  0  2.080769  0  0  -0.649451  0  2.33777  0  0  -0.676498  0  2.322591  0  -1.219211  0  -0.35877  -0.630012  0  2.347356  0
O  O111  1  0.50625835  0.07771631  0.12912919  1  0  -0.728795  0  2.080689  0  0  -0.649513  0  2.337696  0  0  -0.67656  0  2.322515  0  -1.219376  0  -0.358824  -0.630078  0  2.347295  0
O  O112  1  0.75206620  0.22548435  0.15482077  1  0  -0.852542  0  1.898281  0  0  -0.788852  0  2.100896  0  0  -0.811801  0  2.070195  0  -1.227018  0  -0.5884  -0.772706  0  2.122268  0
O  O113  1  0.24793321  0.77451449  0.84518025  1  0  -0.852563  0  1.898274  0  0  -0.788891  0  2.10084  0  0  -0.811839  0  2.070141  0  -1.22702  0  -0.588434  -0.772746  0  2.122212  0
O  O114  1  0.57084093  0.70357932  0.99774415  1  0  -0.829492  0  1.821779  0  0  -0.774833  0  2.008655  0  0  -0.79427  0  1.977934  0  -1.251948  0  -0.584118  -0.760956  0  2.029691  0
O  O115  1  0.42916345  0.29642206  0.00225894  1  0  -0.829552  0  1.821789  0  0  -0.774868  0  2.008631  0  0  -0.794319  0  1.977884  0  -1.251792  0  -0.584206  -0.760989  0  2.029729  0
