# generated using pymatgen
data_AlH3C12(SO2)3
_symmetry_space_group_name_H-M   'P 1'
_cell_length_a   3.96315607
_cell_length_b   20.14404121
_cell_length_c   20.14398945
_cell_angle_alpha   119.99996469
_cell_angle_beta   90.00004161
_cell_angle_gamma   90.00007550
_symmetry_Int_Tables_number   1
_chemical_formula_structural   AlH3C12(SO2)3
_chemical_formula_sum   'Al2 H6 C24 S6 O12'
_cell_volume   1392.72075600
_cell_formula_units_Z   2
loop_
 _symmetry_equiv_pos_site_id
 _symmetry_equiv_pos_as_xyz
  1  'x, y, z'
loop_
 _atom_site_type_symbol
 _atom_site_label
 _atom_site_symmetry_multiplicity
 _atom_site_fract_x
 _atom_site_fract_y
 _atom_site_fract_z
 _atom_site_occupancy
 _atom_site_pbe_bader_charge
 _atom_site_pbe_bader_spin_density
 _atom_site_pbe_cm5_charge
 _atom_site_pbe_ddec_charge
 _atom_site_pbe_ddec_spin_density
 _atom_site_pbe_ddec_sum_bond_order
 _atom_site_pbe_magmom
Al  Al0  1  0.00182935  0.50000156  0.50000012  1  2.503351  0  0.425212  1.59725  0  2.563932  0
Al  Al1  1  0.00183432  0.16666683  0.83333260  1  2.503301  0  0.425132  1.597407  0  2.563706  0
H  H2  1  0.47854840  0.49041661  0.71930660  1  0.090717  0  0.118212  0.144042  0  0.970521  0
H  H3  1  0.47851452  0.17624626  0.61402111  1  0.090335  0  0.118167  0.143944  0  0.970645  0
H  H4  1  0.47854600  0.72889285  0.50958115  1  0.085049  0  0.118218  0.144046  0  0.97052  0
H  H5  1  0.47851451  0.93777865  0.82375293  1  0.085032  0  0.118196  0.143991  0  0.970609  0
H  H6  1  0.47854677  0.28069373  0.27110874  1  0.089877  0  0.118222  0.144054  0  0.970535  0
H  H7  1  0.47851626  0.38597879  0.06222294  1  0.089648  0  0.118178  0.143937  0  0.970573  0
C  C8  1  0.50154176  0.44101313  0.38222752  1  1.572467  0  0.274628  0.67228  0  4.081684  0
C  C9  1  0.50153966  0.44121729  0.55898844  1  1.559387  0  0.274533  0.672269  0  4.08168  0
C  C10  1  0.50154517  0.61777434  0.55878496  1  1.569281  0  0.27463  0.672345  0  4.081421  0
C  C11  1  0.50154971  0.22544907  0.77434275  1  1.559373  0  0.274609  0.672337  0  4.081522  0
C  C12  1  0.50154924  0.04889471  0.77454950  1  1.569232  0  0.274564  0.672259  0  4.081738  0
C  C13  1  0.50155013  0.22565686  0.95110501  1  1.572504  0  0.274598  0.672375  0  4.081636  0
C  C14  1  0.48822477  0.42908102  0.67930799  1  0.053  0  -0.097574  -0.155931  0  3.988932  0
C  C15  1  0.48820655  0.23758058  0.65401902  1  0.053128  0  -0.09763  -0.155975  0  3.989053  0
C  C16  1  0.49876408  0.39832049  0.60084892  1  -0.128175  0  -0.014812  -0.101033  0  3.946747  0
C  C17  1  0.49876911  0.26834289  0.73247929  1  -0.128215  0  -0.014788  -0.100927  0  3.94682  0
C  C18  1  0.50549843  0.29603575  0.63460650  1  -0.137677  0  -0.025416  -0.008639  0  4.074526  0
C  C19  1  0.50551644  0.37062594  0.69871944  1  -0.190501  0  -0.025393  -0.00863  0  4.074571  0
C  C20  1  0.48823040  0.75022924  0.57091652  1  0.058755  0  -0.097619  -0.155988  0  3.988956  0
C  C21  1  0.48820607  0.91644069  0.76241715  1  0.058789  0  -0.097624  -0.15593  0  3.988999  0
C  C22  1  0.49876741  0.70253140  0.60167853  1  -0.131519  0  -0.014799  -0.100989  0  3.946859  0
C  C23  1  0.49876589  0.96413804  0.73165465  1  -0.131514  0  -0.014767  -0.100968  0  3.946808  0
C  C24  1  0.50550002  0.83857403  0.70396256  1  -0.122491  0  -0.025384  -0.008598  0  4.074529  0
C  C25  1  0.50551748  0.82809612  0.62937190  1  -0.194388  0  -0.025448  -0.008756  0  4.074634  0
C  C26  1  0.48822345  0.32069216  0.24977178  1  0.10948  0  -0.097593  -0.155962  0  3.988908  0
C  C27  1  0.48820798  0.34598037  0.08355991  1  0.109833  0  -0.097654  -0.155921  0  3.989113  0
C  C28  1  0.49876083  0.39915124  0.29747012  1  -0.185936  0  -0.014808  -0.101021  0  3.946724  0
C  C29  1  0.49877247  0.26752071  0.03586214  1  -0.18569  0  -0.014775  -0.100985  0  3.946933  0
C  C30  1  0.50549999  0.36539372  0.16142716  1  -0.119709  0  -0.025408  -0.008662  0  4.074486  0
C  C31  1  0.50551499  0.30128116  0.17190516  1  -0.192463  0  -0.025443  -0.008717  0  4.074563  0
S  S32  1  0.52136942  0.29883436  0.55055778  1  0.244513  0  0.0797  0.103521  0  2.76944  0
S  S33  1  0.52140801  0.36782762  0.78276788  1  0.244657  0  0.079712  0.103509  0  2.769564  0
S  S34  1  0.52137602  0.75172757  0.70116480  1  0.246065  0  0.079725  0.103543  0  2.769504  0
S  S35  1  0.52140909  0.91494210  0.63216917  1  0.245932  0  0.07967  0.103516  0  2.769522  0
S  S36  1  0.52136404  0.44944230  0.24827493  1  0.243711  0  0.079698  0.103541  0  2.769431  0
S  S37  1  0.52141098  0.21723244  0.08505954  1  0.243911  0  0.079741  0.103572  0  2.769563  0
O  O38  1  0.73681469  0.58427273  0.57423081  1  -1.251655  0  -0.239405  -0.597633  0  2.35204  0
O  O39  1  0.73681405  0.48995980  0.41572818  1  -1.252162  0  -0.239372  -0.597595  0  2.352148  0
O  O40  1  0.73681159  0.42577219  0.51004126  1  -1.243291  0  -0.239322  -0.597563  0  2.352102  0
O  O41  1  0.26864472  0.58396019  0.50938025  1  -1.25206  0  -0.237026  -0.589032  0  2.336848  0
O  O42  1  0.26864211  0.49062205  0.57457944  1  -1.246428  0  -0.237074  -0.589104  0  2.337043  0
O  O43  1  0.26864408  0.42542305  0.41604239  1  -1.255919  0  -0.237087  -0.589018  0  2.33695  0
O  O44  1  0.73682201  0.17670952  0.91760422  1  -1.252206  0  -0.23937  -0.597665  0  2.352165  0
O  O45  1  0.73682447  0.24089643  0.82328986  1  -1.243244  0  -0.23935  -0.597653  0  2.352116  0
O  O46  1  0.73682138  0.08239515  0.75910302  1  -1.251694  0  -0.239332  -0.597631  0  2.352228  0
O  O47  1  0.26865490  0.24124654  0.91729035  1  -1.256005  0  -0.23699  -0.589068  0  2.336953  0
O  O48  1  0.26864921  0.08270953  0.82395434  1  -1.252048  0  -0.23705  -0.589056  0  2.336982  0
O  O49  1  0.26865434  0.17604461  0.75875324  1  -1.24634  0  -0.237033  -0.589089  0  2.33695  0
