# generated using pymatgen
data_NiH16C12(N2O3)2
_symmetry_space_group_name_H-M   'P 1'
_cell_length_a   7.58782182
_cell_length_b   8.58308910
_cell_length_c   11.93425246
_cell_angle_alpha   100.55932255
_cell_angle_beta   89.99952771
_cell_angle_gamma   89.99950287
_symmetry_Int_Tables_number   1
_chemical_formula_structural   NiH16C12(N2O3)2
_chemical_formula_sum   'Ni2 H32 C24 N8 O12'
_cell_volume   764.07943093
_cell_formula_units_Z   2
loop_
 _symmetry_equiv_pos_site_id
 _symmetry_equiv_pos_as_xyz
  1  'x, y, z'
loop_
 _atom_site_type_symbol
 _atom_site_label
 _atom_site_symmetry_multiplicity
 _atom_site_fract_x
 _atom_site_fract_y
 _atom_site_fract_z
 _atom_site_occupancy
 _atom_site_hle17_bader_spin_density
 _atom_site_hle17_ddec_charge
 _atom_site_hle17_ddec_spin_density
 _atom_site_hle17_ddec_sum_bond_order
 _atom_site_hle17_magmom
 _atom_site_hse06_10hf_bader_spin_density
 _atom_site_hse06_10hf_ddec_charge
 _atom_site_hse06_10hf_ddec_spin_density
 _atom_site_hse06_10hf_ddec_sum_bond_order
 _atom_site_hse06_10hf_magmom
 _atom_site_hse06_bader_spin_density
 _atom_site_hse06_ddec_charge
 _atom_site_hse06_ddec_spin_density
 _atom_site_hse06_ddec_sum_bond_order
 _atom_site_hse06_magmom
 _atom_site_pbe_bader_spin_density
 _atom_site_pbe_cm5_charge
 _atom_site_pbe_ddec_charge
 _atom_site_pbe_ddec_spin_density
 _atom_site_pbe_ddec_sum_bond_order
 _atom_site_pbe_magmom
Ni  Ni0  1  0.49999461  0.99999598  0.49999816  1  0  0.578546  0  2.255322  0  0  0.530362  0  2.734702  0  0  0.621435  0  2.643855  0  0  0.588459  0.476411  0  2.795577  0
Ni  Ni1  1  0.00000290  0.50000294  0.00000314  1  0  0.578512  0  2.255249  0  0  0.530503  0  2.734614  0  0  0.621563  0  2.643791  0  0  0.588468  0.476432  0  2.795504  0
H  H2  1  0.75737730  0.70349743  0.43012115  1  0  0.124856  0  0.994559  0  0  0.13159  0  1.058195  0  0  0.134766  0  1.056627  0  0  0.112903  0.129076  0  1.059717  0
H  H3  1  0.25738058  0.79650230  0.06988399  1  0  0.124802  0  0.994541  0  0  0.131593  0  1.058115  0  0  0.134769  0  1.056545  0  0  0.112896  0.129083  0  1.059641  0
H  H4  1  0.24261929  0.29649778  0.56987704  1  0  0.124861  0  0.994558  0  0  0.13159  0  1.0582  0  0  0.134766  0  1.056633  0  0  0.112896  0.129074  0  1.05973  0
H  H5  1  0.74262523  0.20350690  0.93012061  1  0  0.124837  0  0.994574  0  0  0.131564  0  1.058214  0  0  0.13474  0  1.056646  0  0  0.112906  0.129054  0  1.05974  0
H  H6  1  0.40609755  0.83854060  0.70702266  1  0  0.097922  0  0.945902  0  0  0.1053  0  1.011144  0  0  0.107981  0  1.007491  0  0  0.137563  0.10318  0  1.013833  0
H  H7  1  0.90610695  0.66146101  0.79298405  1  0  0.097964  0  0.945983  0  0  0.105401  0  1.011159  0  0  0.108085  0  1.007503  0  0  0.137575  0.103281  0  1.013851  0
H  H8  1  0.59389377  0.16144759  0.29297275  1  0  0.097988  0  0.945879  0  0  0.105354  0  1.011142  0  0  0.108039  0  1.007482  0  0  0.13756  0.103241  0  1.013832  0
H  H9  1  0.09389755  0.33854095  0.20702192  1  0  0.09797  0  0.945804  0  0  0.105308  0  1.011089  0  0  0.107989  0  1.007436  0  0  0.137559  0.103194  0  1.013776  0
H  H10  1  0.85866436  0.41232526  0.47755288  1  0  0.125411  0  0.93353  0  0  0.150651  0  0.984183  0  0  0.151817  0  0.984874  0  0  0.099164  0.149818  0  0.983437  0
H  H11  1  0.35866495  0.08767222  0.02244856  1  0  0.125413  0  0.933423  0  0  0.150627  0  0.984114  0  0  0.151792  0  0.984807  0  0  0.09914  0.149792  0  0.983373  0
H  H12  1  0.14133618  0.58767026  0.52243950  1  0  0.125375  0  0.933505  0  0  0.150623  0  0.984179  0  0  0.15179  0  0.984868  0  0  0.099172  0.14979  0  0.983442  0
H  H13  1  0.64133690  0.91233351  0.97755381  1  0  0.125419  0  0.933445  0  0  0.15063  0  0.984147  0  0  0.151797  0  0.984836  0  0  0.099131  0.149797  0  0.983404  0
H  H14  1  0.69567546  0.32879192  0.55511197  1  0  0.111949  0  0.974286  0  0  0.126973  0  1.046012  0  0  0.128405  0  1.045295  0  0  0.089614  0.125554  0  1.046857  0
H  H15  1  0.19567913  0.17120469  0.94488885  1  0  0.111836  0  0.974462  0  0  0.126946  0  1.04608  0  0  0.12838  0  1.045361  0  0  0.089616  0.125525  0  1.046918  0
H  H16  1  0.30432903  0.67119982  0.44488400  1  0  0.111876  0  0.974443  0  0  0.126961  0  1.046104  0  0  0.128395  0  1.045385  0  0  0.089599  0.125535  0  1.046951  0
H  H17  1  0.80432536  0.82879986  0.05511334  1  0  0.11184  0  0.974495  0  0  0.126944  0  1.046121  0  0  0.128383  0  1.045397  0  0  0.089606  0.125521  0  1.046965  0
H  H18  1  0.88115202  0.42598978  0.62724970  1  0  0.140667  0  0.972384  0  0  0.160697  0  1.032066  0  0  0.162391  0  1.031389  0  0  0.094203  0.159142  0  1.032792  0
H  H19  1  0.38115752  0.07400491  0.87275237  1  0  0.140686  0  0.972298  0  0  0.16066  0  1.032066  0  0  0.162353  0  1.031389  0  0  0.094181  0.159112  0  1.032784  0
H  H20  1  0.11885643  0.57400446  0.37274415  1  0  0.140658  0  0.972337  0  0  0.160685  0  1.032032  0  0  0.162379  0  1.031356  0  0  0.094205  0.159132  0  1.032745  0
H  H21  1  0.61884829  0.92599845  0.12724963  1  0  0.140651  0  0.972352  0  0  0.160672  0  1.03205  0  0  0.162365  0  1.031375  0  0  0.094193  0.159117  0  1.032773  0
H  H22  1  0.55140001  0.25365911  0.74585728  1  0  0.397539  0  0.878371  0  0  0.371293  0  0.952015  0  0  0.380374  0  0.938391  0  0  0.290259  0.364847  0  0.961702  0
H  H23  1  0.05141329  0.24634126  0.75414486  1  0  0.397384  0  0.878506  0  0  0.371224  0  0.952092  0  0  0.380301  0  0.938472  0  0  0.290195  0.364781  0  0.961776  0
H  H24  1  0.44858999  0.74633715  0.25414359  1  0  0.397539  0  0.878447  0  0  0.371302  0  0.952021  0  0  0.380381  0  0.938402  0  0  0.290263  0.364859  0  0.961704  0
H  H25  1  0.94857935  0.75366921  0.24585827  1  0  0.397523  0  0.878493  0  0  0.371292  0  0.952041  0  0  0.380372  0  0.938418  0  0  0.290271  0.364845  0  0.96173  0
H  H26  1  0.69294073  0.11543664  0.72825869  1  0  0.400702  0  0.909738  0  0  0.365394  0  0.982886  0  0  0.376048  0  0.967059  0  0  0.278033  0.357788  0  0.99415  0
H  H27  1  0.19294326  0.38457057  0.77174549  1  0  0.400792  0  0.90961  0  0  0.365491  0  0.982759  0  0  0.376151  0  0.966924  0  0  0.278059  0.357884  0  0.994026  0
H  H28  1  0.30705190  0.88456208  0.27174090  1  0  0.400734  0  0.909677  0  0  0.365434  0  0.982828  0  0  0.376088  0  0.967001  0  0  0.278049  0.357826  0  0.994094  0
H  H29  1  0.80705333  0.61543631  0.22825790  1  0  0.400746  0  0.90966  0  0  0.365451  0  0.982801  0  0  0.376106  0  0.966972  0  0  0.278051  0.357844  0  0.994066  0
H  H30  1  0.52787809  0.56653166  0.72166188  1  0  0.305022  0  0.930642  0  0  0.28534  0  0.991064  0  0  0.294237  0  0.984234  0  0  0.309423  0.279084  0  0.995829  0
H  H31  1  0.02788797  0.93346670  0.77834206  1  0  0.305103  0  0.930551  0  0  0.285376  0  0.991025  0  0  0.294265  0  0.984198  0  0  0.309466  0.279129  0  0.995787  0
H  H32  1  0.47212245  0.43346004  0.27833493  1  0  0.305054  0  0.930604  0  0  0.285376  0  0.991008  0  0  0.294271  0  0.984181  0  0  0.309437  0.27911  0  0.99577  0
H  H33  1  0.97211520  0.06653425  0.22166040  1  0  0.305109  0  0.930568  0  0  0.285426  0  0.990968  0  0  0.294319  0  0.984141  0  0  0.309463  0.279173  0  0.995732  0
C  C34  1  0.12809851  0.99595160  0.52956650  1  0  0.177932  0  3.810458  0  0  0.159407  0  4.093691  0  0  0.176614  0  4.109451  0  0  0.108176  0.147274  0  4.083071  0
C  C35  1  0.62811243  0.50405312  0.97043373  1  0  0.177759  0  3.81054  0  0  0.15913  0  4.093837  0  0  0.176343  0  4.109608  0  0  0.108041  0.146991  0  4.083221  0
C  C36  1  0.87189017  0.00404966  0.47043013  1  0  0.17766  0  3.81055  0  0  0.159117  0  4.093799  0  0  0.176323  0  4.109563  0  0  0.107997  0.146981  0  4.083184  0
C  C37  1  0.37189470  0.49595353  0.02957382  1  0  0.177761  0  3.810529  0  0  0.159189  0  4.093748  0  0  0.176399  0  4.109519  0  0  0.108021  0.147055  0  4.08312  0
C  C38  1  0.04686252  0.98774963  0.41624582  1  0  0.214375  0  3.870926  0  0  0.185739  0  4.152361  0  0  0.194429  0  4.168432  0  0  0.113547  0.180222  0  4.140804  0
C  C39  1  0.54687335  0.51225349  0.08375758  1  0  0.214563  0  3.870747  0  0  0.186014  0  4.15209  0  0  0.194705  0  4.168161  0  0  0.113781  0.180498  0  4.140538  0
C  C40  1  0.95312484  0.01225405  0.58375036  1  0  0.214712  0  3.870607  0  0  0.18605  0  4.152085  0  0  0.194771  0  4.168114  0  0  0.113716  0.180519  0  4.14055  0
C  C41  1  0.45313378  0.48775101  0.91624545  1  0  0.214481  0  3.870816  0  0  0.18589  0  4.152206  0  0  0.194587  0  4.168275  0  0  0.113656  0.180377  0  4.140649  0
C  C42  1  0.68533903  0.69893167  0.50817857  1  0  -0.114785  0  3.687471  0  0  -0.151005  0  3.949744  0  0  -0.151568  0  3.973277  0  0  -0.019438  -0.15054  0  3.935085  0
C  C43  1  0.18534218  0.80106509  0.99182598  1  0  -0.11486  0  3.687651  0  0  -0.151124  0  3.949962  0  0  -0.151681  0  3.973502  0  0  -0.019527  -0.150692  0  3.935293  0
C  C44  1  0.31466020  0.30106007  0.49181740  1  0  -0.114784  0  3.687428  0  0  -0.150999  0  3.949686  0  0  -0.15156  0  3.973223  0  0  -0.019442  -0.150563  0  3.935019  0
C  C45  1  0.81466495  0.19894056  0.00817805  1  0  -0.114779  0  3.687569  0  0  -0.150977  0  3.949883  0  0  -0.151536  0  3.973416  0  0  -0.01947  -0.150532  0  3.935226  0
C  C46  1  0.68758619  0.58177973  0.57307359  1  0  0.226445  0  3.744423  0  0  0.226055  0  4.005082  0  0  0.229859  0  4.028946  0  0  0.083115  0.223189  0  3.98939  0
C  C47  1  0.18759038  0.91821823  0.92693031  1  0  0.22656  0  3.744332  0  0  0.226131  0  4.005043  0  0  0.229923  0  4.028902  0  0  0.083219  0.223276  0  3.989356  0
C  C48  1  0.31241435  0.41821679  0.42692230  1  0  0.226428  0  3.744404  0  0  0.226076  0  4.005017  0  0  0.22988  0  4.02888  0  0  0.083154  0.223199  0  3.989317  0
C  C49  1  0.81241543  0.08178504  0.07307336  1  0  0.226469  0  3.74451  0  0  0.22605  0  4.005176  0  0  0.229851  0  4.029041  0  0  0.083156  0.223191  0  3.989484  0
C  C50  1  0.50210864  0.77263941  0.65018067  1  0  0.221797  0  3.641242  0  0  0.162715  0  3.913234  0  0  0.181261  0  3.923152  0  0  0.144414  0.150544  0  3.906594  0
C  C51  1  0.00211694  0.72736038  0.84982363  1  0  0.221646  0  3.641458  0  0  0.162497  0  3.913462  0  0  0.181028  0  3.923389  0  0  0.144377  0.150322  0  3.906804  0
C  C52  1  0.49788531  0.22734996  0.34981493  1  0  0.221691  0  3.64118  0  0  0.162613  0  3.913172  0  0  0.181156  0  3.923096  0  0  0.144391  0.150389  0  3.906524  0
C  C53  1  0.99788756  0.27264285  0.15018087  1  0  0.221828  0  3.641068  0  0  0.16277  0  3.913068  0  0  0.181316  0  3.922988  0  0  0.14444  0.150592  0  3.906415  0
C  C54  1  0.78586686  0.42968982  0.55824664  1  0  -0.373245  0  3.731243  0  0  -0.449936  0  3.960779  0  0  -0.453273  0  3.971481  0  0  -0.244083  -0.446814  0  3.953276  0
C  C55  1  0.28587152  0.07031057  0.94175599  1  0  -0.37313  0  3.731133  0  0  -0.449807  0  3.960661  0  0  -0.453145  0  3.971365  0  0  -0.244054  -0.446689  0  3.953152  0
C  C56  1  0.21413500  0.57031035  0.44174815  1  0  -0.373058  0  3.731198  0  0  -0.449834  0  3.960715  0  0  -0.453171  0  3.971416  0  0  -0.244073  -0.446711  0  3.953212  0
C  C57  1  0.71413165  0.92969630  0.05824741  1  0  -0.373068  0  3.731252  0  0  -0.449805  0  3.960793  0  0  -0.453148  0  3.971489  0  0  -0.244008  -0.446684  0  3.953289  0
N  N58  1  0.56876188  0.81691881  0.55716733  1  0  -0.315148  0  3.427549  0  0  -0.264035  0  3.74355  0  0  -0.295669  0  3.759441  0  0  -0.372946  -0.245411  0  3.734914  0
N  N59  1  0.06877073  0.68308267  0.94283773  1  0  -0.315092  0  3.427682  0  0  -0.264018  0  3.743753  0  0  -0.295661  0  3.759669  0  0  -0.372912  -0.245297  0  3.735018  0
N  N60  1  0.43123207  0.18307179  0.44282763  1  0  -0.315165  0  3.427461  0  0  -0.264093  0  3.743507  0  0  -0.295734  0  3.75941  0  0  -0.372972  -0.245388  0  3.734807  0
N  N61  1  0.93123640  0.31692171  0.05716778  1  0  -0.315201  0  3.427618  0  0  -0.26418  0  3.743724  0  0  -0.29582  0  3.759626  0  0  -0.373004  -0.245498  0  3.735029  0
N  N62  1  0.57171946  0.63178583  0.66206972  1  0  -0.335013  0  3.411113  0  0  -0.268999  0  3.64144  0  0  -0.28529  0  3.653034  0  0  -0.37628  -0.258029  0  3.633741  0
N  N63  1  0.07172526  0.86821324  0.83793495  1  0  -0.335027  0  3.411033  0  0  -0.268946  0  3.641383  0  0  -0.285201  0  3.652946  0  0  -0.37633  -0.258011  0  3.633715  0
N  N64  1  0.42827976  0.36820587  0.33792709  1  0  -0.335022  0  3.411128  0  0  -0.26899  0  3.641389  0  0  -0.285279  0  3.652985  0  0  -0.376289  -0.257978  0  3.633651  0
N  N65  1  0.92827792  0.13178885  0.16206853  1  0  -0.335171  0  3.411184  0  0  -0.269094  0  3.641429  0  0  -0.28538  0  3.653016  0  0  -0.376327  -0.258135  0  3.633748  0
O  O66  1  0.27971884  0.99190944  0.57358222  1  0  -0.390786  0  2.281607  0  0  -0.356034  0  2.57008  0  0  -0.396416  0  2.564179  0  0  -0.267249  -0.330069  0  2.574164  0
O  O67  1  0.77972669  0.50809255  0.92641849  1  0  -0.390691  0  2.281744  0  0  -0.355948  0  2.570262  0  0  -0.396327  0  2.56437  0  0  -0.26722  -0.329961  0  2.574337  0
O  O68  1  0.72027116  0.00808476  0.42641247  1  0  -0.390628  0  2.281647  0  0  -0.35584  0  2.570088  0  0  -0.396225  0  2.564194  0  0  -0.267105  -0.329877  0  2.574173  0
O  O69  1  0.22027781  0.49191186  0.07358619  1  0  -0.390738  0  2.281778  0  0  -0.355995  0  2.570256  0  0  -0.396367  0  2.564354  0  0  -0.267228  -0.330007  0  2.574324  0
O  O70  1  0.58543907  0.15586544  0.77048093  1  0  -0.816441  0  1.820492  0  0  -0.774147  0  1.993458  0  0  -0.790459  0  1.963416  0  0  -0.59446  -0.762538  0  2.014833  0
O  O71  1  0.08544383  0.34413815  0.72952155  1  0  -0.816365  0  1.820509  0  0  -0.774212  0  1.993413  0  0  -0.790518  0  1.963379  0  0  -0.59442  -0.7626  0  2.014783  0
O  O72  1  0.41455884  0.84413547  0.22952236  1  0  -0.816453  0  1.820517  0  0  -0.774203  0  1.993378  0  0  -0.790516  0  1.963339  0  0  -0.594486  -0.762596  0  2.01475  0
O  O73  1  0.91455803  0.65586780  0.27047667  1  0  -0.816458  0  1.820525  0  0  -0.774229  0  1.993391  0  0  -0.790542  0  1.963351  0  0  -0.594501  -0.762617  0  2.014765  0
O  O74  1  0.09880173  0.97183798  0.31483435  1  0  -0.488542  0  2.096922  0  0  -0.432214  0  2.306138  0  0  -0.456252  0  2.305773  0  0  -0.280173  -0.414561  0  2.305522  0
O  O75  1  0.59880321  0.52816148  0.18516065  1  0  -0.488577  0  2.097012  0  0  -0.432295  0  2.306206  0  0  -0.456346  0  2.305867  0  0  -0.280295  -0.414636  0  2.305592  0
O  O76  1  0.90118959  0.02816332  0.68516145  1  0  -0.488689  0  2.096827  0  0  -0.432351  0  2.306071  0  0  -0.456419  0  2.305719  0  0  -0.28032  -0.414698  0  2.305466  0
O  O77  1  0.40119864  0.47184302  0.81484237  1  0  -0.488481  0  2.097018  0  0  -0.432173  0  2.306218  0  0  -0.456234  0  2.305883  0  0  -0.28017  -0.41452  0  2.305605  0
