# generated using pymatgen
data_CdH28C21N4O5
_symmetry_space_group_name_H-M   'P 1'
_cell_length_a   8.73829060
_cell_length_b   14.20864597
_cell_length_c   22.60378125
_cell_angle_alpha   89.99991728
_cell_angle_beta   94.74360864
_cell_angle_gamma   90.00017159
_symmetry_Int_Tables_number   1
_chemical_formula_structural   CdH28C21N4O5
_chemical_formula_sum   'Cd4 H112 C84 N16 O20'
_cell_volume   2796.85624353
_cell_formula_units_Z   4
loop_
 _symmetry_equiv_pos_site_id
 _symmetry_equiv_pos_as_xyz
  1  'x, y, z'
loop_
 _atom_site_type_symbol
 _atom_site_label
 _atom_site_symmetry_multiplicity
 _atom_site_fract_x
 _atom_site_fract_y
 _atom_site_fract_z
 _atom_site_occupancy
 _atom_site_pbe_bader_charge
 _atom_site_pbe_bader_spin_density
 _atom_site_pbe_cm5_charge
 _atom_site_pbe_ddec_charge
 _atom_site_pbe_ddec_spin_density
 _atom_site_pbe_ddec_sum_bond_order
 _atom_site_pbe_magmom
Cd  Cd0  1  0.74810198  0.85656928  0.00377869  1  1.272781  0  0.757221  0.88595  0  2.163305  0
Cd  Cd1  1  0.75189682  0.35656823  0.49622094  1  1.272658  0  0.757216  0.885923  0  2.163357  0
Cd  Cd2  1  0.25189564  0.14343217  0.99622178  1  1.272682  0  0.757216  0.885909  0  2.163285  0
Cd  Cd3  1  0.24810426  0.64343112  0.50377832  1  1.27264  0  0.757184  0.885871  0  2.163326  0
H  H4  1  0.65996633  0.05963499  0.98644152  1  0.653563  0  0.279457  0.383309  0  0.963587  0
H  H5  1  0.84003666  0.55963408  0.51355804  1  0.654007  0  0.279486  0.38338  0  0.963525  0
H  H6  1  0.34003360  0.94036787  0.01355859  1  0.653886  0  0.279468  0.383349  0  0.963531  0
H  H7  1  0.15996557  0.44036597  0.48644170  1  0.653873  0  0.279512  0.383433  0  0.963445  0
H  H8  1  0.83844128  0.06078980  0.01198222  1  0.648036  0  0.279289  0.383652  0  0.962727  0
H  H9  1  0.66156070  0.56078958  0.48802044  1  0.647964  0  0.279325  0.383721  0  0.962625  0
H  H10  1  0.16155861  0.93921095  0.98802099  1  0.648004  0  0.279275  0.383619  0  0.962756  0
H  H11  1  0.33844152  0.43920976  0.51197974  1  0.648034  0  0.279307  0.383697  0  0.962661  0
H  H12  1  0.91490890  0.00557761  0.09802216  1  0.142494  0  0.118153  0.095919  0  1.024455  0
H  H13  1  0.58508939  0.50557394  0.40197822  1  0.142562  0  0.118178  0.095967  0  1.024479  0
H  H14  1  0.08509102  0.99442596  0.90197839  1  0.14251  0  0.118163  0.095941  0  1.024459  0
H  H15  1  0.41490594  0.49442752  0.59802174  1  0.142537  0  0.11814  0.095922  0  1.024535  0
H  H16  1  0.10222239  0.00825541  0.18764243  1  0.108674  0  0.102584  0.10739  0  1.032011  0
H  H17  1  0.39778278  0.50825392  0.31235757  1  0.108718  0  0.102618  0.107455  0  1.031972  0
H  H18  1  0.89778213  0.99174675  0.81235739  1  0.108725  0  0.102624  0.107449  0  1.031976  0
H  H19  1  0.60221599  0.49174613  0.68764250  1  0.108728  0  0.102581  0.107379  0  1.032054  0
H  H20  1  0.09029822  0.70557167  0.18826754  1  0.091924  0  0.108801  0.115037  0  0.99695  0
H  H21  1  0.40969755  0.20556992  0.31173152  1  0.092131  0  0.108861  0.115119  0  0.99699  0
H  H22  1  0.90969825  0.29443119  0.81173289  1  0.092129  0  0.10883  0.11503  0  0.996914  0
H  H23  1  0.59030811  0.79442942  0.68826878  1  0.092109  0  0.108879  0.115096  0  0.997005  0
H  H24  1  0.89835813  0.71440798  0.09839161  1  0.1339  0  0.124815  0.103133  0  0.972461  0
H  H25  1  0.60163656  0.21440476  0.40160801  1  0.133885  0  0.124824  0.103182  0  0.97243  0
H  H26  1  0.10163835  0.28559559  0.90160838  1  0.133846  0  0.124808  0.103152  0  0.972466  0
H  H27  1  0.39837025  0.78559670  0.59839233  1  0.13362  0  0.124816  0.103154  0  0.972485  0
H  H28  1  0.25302619  0.92848812  0.26322671  1  0.030686  0  0.090385  0.05811  0  0.983221  0
H  H29  1  0.24697638  0.42848836  0.23677238  1  0.030785  0  0.090374  0.058038  0  0.983254  0
H  H30  1  0.74697488  0.07151193  0.73677388  1  0.030699  0  0.090376  0.058075  0  0.98326  0
H  H31  1  0.75302584  0.57151099  0.76322781  1  0.030764  0  0.090387  0.058089  0  0.983229  0
H  H32  1  0.14649817  0.83297432  0.28961424  1  0.074572  0  0.107087  0.08818  0  1.00746  0
H  H33  1  0.35350166  0.33297551  0.21038440  1  0.074539  0  0.107073  0.088163  0  1.007429  0
H  H34  1  0.85350176  0.16702573  0.71038587  1  0.074571  0  0.107085  0.088179  0  1.00747  0
H  H35  1  0.64650057  0.66702524  0.78961534  1  0.074572  0  0.107087  0.088188  0  1.007464  0
H  H36  1  0.33073091  0.74042022  0.33631161  1  0.049367  0  0.104532  0.088158  0  0.986981  0
H  H37  1  0.16926388  0.24042259  0.16368651  1  0.049302  0  0.104538  0.088186  0  0.986972  0
H  H38  1  0.66926672  0.25957772  0.66368798  1  0.04938  0  0.104536  0.088161  0  0.98698  0
H  H39  1  0.83073720  0.75957816  0.83631276  1  0.049306  0  0.104536  0.088148  0  0.987017  0
H  H40  1  0.46503476  0.83354394  0.32956496  1  0.002313  0  0.08948  0.055244  0  0.986122  0
H  H41  1  0.03496391  0.33354675  0.17043408  1  0.002221  0  0.089487  0.055229  0  0.986164  0
H  H42  1  0.53496630  0.16645400  0.67043563  1  0.002268  0  0.089496  0.055237  0  0.986164  0
H  H43  1  0.96503716  0.66645401  0.82956562  1  0.002241  0  0.089485  0.05522  0  0.986147  0
H  H44  1  0.60047493  0.68189483  0.34537333  1  0.051459  0  0.106084  0.089255  0  0.998609  0
H  H45  1  0.89951731  0.18189905  0.15462580  1  0.0515  0  0.106098  0.089323  0  0.998607  0
H  H46  1  0.39952155  0.31810100  0.65462578  1  0.051524  0  0.106114  0.089359  0  0.998594  0
H  H47  1  0.10048262  0.81810170  0.84537387  1  0.051498  0  0.106063  0.089245  0  0.998616  0
H  H48  1  0.48883558  0.63081181  0.28389399  1  0.001328  0  0.085405  0.04245  0  1.024603  0
H  H49  1  0.01115755  0.13081377  0.21610417  1  0.000965  0  0.085365  0.042396  0  1.024681  0
H  H50  1  0.51115862  0.36918683  0.71610416  1  0.000941  0  0.085374  0.042419  0  1.024654  0
H  H51  1  0.98884352  0.86918628  0.78389598  1  0.000988  0  0.085404  0.042452  0  1.024668  0
H  H52  1  0.50205880  0.89198315  0.22734790  1  0.008743  0  0.084905  0.041256  0  1.018849  0
H  H53  1  0.99794248  0.39198377  0.27265089  1  0.008715  0  0.084914  0.041294  0  1.018869  0
H  H54  1  0.49794227  0.10801690  0.77265269  1  0.008757  0  0.084894  0.04123  0  1.018875  0
H  H55  1  0.00205860  0.60801628  0.72734837  1  0.008725  0  0.084914  0.041298  0  1.018887  0
H  H56  1  0.39132676  0.83994931  0.16588485  1  0.071788  0  0.105894  0.088867  0  0.995996  0
H  H57  1  0.10867539  0.33994977  0.33411431  1  0.07184  0  0.10592  0.088878  0  0.995981  0
H  H58  1  0.60867316  0.16005215  0.83411570  1  0.071779  0  0.105893  0.088872  0  0.995988  0
H  H59  1  0.89132568  0.66005098  0.66588540  1  0.071833  0  0.105915  0.088928  0  0.99596  0
H  H60  1  0.52682368  0.68920810  0.18164999  1  0.028529  0  0.089511  0.05507  0  0.990849  0
H  H61  1  0.97317665  0.18920786  0.31834807  1  0.02852  0  0.089514  0.055035  0  0.990898  0
H  H62  1  0.47317512  0.31079336  0.81834743  1  0.028509  0  0.089511  0.055033  0  0.990881  0
H  H63  1  0.02682443  0.81079219  0.68165163  1  0.028514  0  0.089514  0.055043  0  0.990885  0
H  H64  1  0.66151612  0.78207000  0.17508892  1  0.037896  0  0.104282  0.088182  0  0.985118  0
H  H65  1  0.83848578  0.28207090  0.32491132  1  0.037898  0  0.104299  0.08823  0  0.985048  0
H  H66  1  0.33848381  0.21793075  0.82491119  1  0.037837  0  0.104284  0.088193  0  0.985091  0
H  H67  1  0.16151645  0.71792985  0.67508842  1  0.037883  0  0.104279  0.088212  0  0.985062  0
H  H68  1  0.84135426  0.68570555  0.22013068  1  0.070683  0  0.107095  0.087866  0  1.013023  0
H  H69  1  0.65864373  0.18570763  0.27987041  1  0.070676  0  0.107129  0.087938  0  1.012959  0
H  H70  1  0.15864223  0.31429169  0.77986843  1  0.070725  0  0.107085  0.087903  0  1.01302  0
H  H71  1  0.34135849  0.81429312  0.72013022  1  0.070684  0  0.107127  0.08797  0  1.012915  0
H  H72  1  0.73164687  0.59202443  0.24670574  1  0.015058  0  0.091061  0.059143  0  0.984383  0
H  H73  1  0.76834838  0.09202818  0.25329401  1  0.015114  0  0.091036  0.059106  0  0.984437  0
H  H74  1  0.26834848  0.40797281  0.75329200  1  0.015185  0  0.091031  0.059106  0  0.984395  0
H  H75  1  0.23165154  0.90797398  0.74670565  1  0.015074  0  0.091031  0.059081  0  0.984466  0
H  H76  1  0.09106889  0.79534210  0.41547496  1  0.10709  0  0.125016  0.102903  0  0.970655  0
H  H77  1  0.40893421  0.29534510  0.08452294  1  0.107017  0  0.124974  0.102835  0  0.970704  0
H  H78  1  0.90893222  0.20465232  0.58452165  1  0.106934  0  0.124988  0.102844  0  0.970652  0
H  H79  1  0.59107032  0.70465777  0.91547600  1  0.107074  0  0.125006  0.102905  0  0.970626  0
H  H80  1  0.89486645  0.80980245  0.32727211  1  0.089064  0  0.109437  0.116249  0  0.99692  0
H  H81  1  0.60513444  0.30980609  0.17272675  1  0.088631  0  0.109476  0.116256  0  0.996977  0
H  H82  1  0.10513350  0.19019197  0.67272579  1  0.088622  0  0.109469  0.116224  0  0.997001  0
H  H83  1  0.39486894  0.69019607  0.82727215  1  0.088708  0  0.109452  0.116227  0  0.996935  0
H  H84  1  0.89967317  0.50758789  0.31455282  1  0.035314  0  0.103722  0.109269  0  1.026104  0
H  H85  1  0.60032052  0.00759079  0.18544917  1  0.035374  0  0.103722  0.109244  0  1.026083  0
H  H86  1  0.10032448  0.49240653  0.68544545  1  0.035413  0  0.103708  0.109252  0  1.026157  0
H  H87  1  0.39967364  0.99241138  0.81455251  1  0.035341  0  0.103719  0.109233  0  1.026067  0
H  H88  1  0.09168189  0.50468670  0.40251808  1  0.155583  0  0.117641  0.09355  0  1.02786  0
H  H89  1  0.40831867  0.00469036  0.09748177  1  0.155636  0  0.117665  0.093537  0  1.027878  0
H  H90  1  0.90831921  0.49530772  0.59747942  1  0.155456  0  0.117653  0.093526  0  1.027855  0
H  H91  1  0.59168125  0.99531180  0.90251790  1  0.155602  0  0.117645  0.093561  0  1.027888  0
H  H92  1  0.23910020  0.79892145  0.06846209  1  0.033215  0  0.090269  0.101942  0  1.012976  0
H  H93  1  0.26089828  0.29892337  0.43153919  1  0.033236  0  0.090271  0.101976  0  1.012976  0
H  H94  1  0.76089856  0.20108001  0.93153931  1  0.033163  0  0.090272  0.101997  0  1.012935  0
H  H95  1  0.73910393  0.70107598  0.56846099  1  0.03328  0  0.090269  0.101979  0  1.012972  0
H  H96  1  0.34062502  0.69983184  0.09930519  1  0.040875  0  0.09593  0.108253  0  0.994565  0
H  H97  1  0.15937416  0.19983365  0.40069532  1  0.040909  0  0.095957  0.108307  0  0.994496  0
H  H98  1  0.65937489  0.30016962  0.90069669  1  0.040915  0  0.095936  0.10828  0  0.994574  0
H  H99  1  0.84062806  0.80016640  0.59930486  1  0.040906  0  0.095938  0.108266  0  0.99453  0
H  H100  1  0.33774590  0.63123454  0.99499417  1  0.033176  0  0.092684  0.091193  0  0.978107  0
H  H101  1  0.16225049  0.13123516  0.50500672  1  0.033266  0  0.092681  0.091214  0  0.978062  0
H  H102  1  0.66225401  0.36876692  0.00500771  1  0.033311  0  0.092658  0.091187  0  0.97808  0
H  H103  1  0.83774828  0.86876490  0.49499335  1  0.033274  0  0.092677  0.091203  0  0.978048  0
H  H104  1  0.15759077  0.63427238  0.02548737  1  0.033871  0  0.092347  0.090103  0  0.978581  0
H  H105  1  0.34240580  0.13427435  0.47451355  1  0.033947  0  0.092345  0.090113  0  0.978581  0
H  H106  1  0.84240913  0.36572697  0.97451539  1  0.03483  0  0.092344  0.090123  0  0.978575  0
H  H107  1  0.65759412  0.86572500  0.52548656  1  0.03395  0  0.092353  0.09015  0  0.978567  0
H  H108  1  0.25755451  0.78786592  0.94137762  1  0.010396  0  0.089701  0.100461  0  1.015938  0
H  H109  1  0.24244376  0.28786726  0.55862363  1  0.010338  0  0.089682  0.100397  0  1.015939  0
H  H110  1  0.74243849  0.21213554  0.05862491  1  0.01032  0  0.089701  0.10042  0  1.015893  0
H  H111  1  0.75755846  0.71213349  0.44137655  1  0.010323  0  0.089709  0.100438  0  1.015918  0
H  H112  1  0.15364382  0.68531984  0.91749327  1  0.051427  0  0.097095  0.110383  0  0.987178  0
H  H113  1  0.34635398  0.18532132  0.58250717  1  0.051561  0  0.09706  0.110318  0  0.987274  0
H  H114  1  0.84635494  0.31467951  0.08250857  1  0.051507  0  0.097079  0.11035  0  0.987189  0
H  H115  1  0.65364594  0.81467873  0.41749293  1  0.051575  0  0.09706  0.110336  0  0.987253  0
C  C116  1  0.95283293  0.94041758  0.12009745  1  0.494544  0  0.051399  0.110184  0  3.928932  0
C  C117  1  0.54716627  0.44041501  0.37990256  1  0.494346  0  0.051297  0.110028  0  3.929084  0
C  C118  1  0.04716930  0.05958529  0.87990229  1  0.49439  0  0.051247  0.109951  0  3.929113  0
C  C119  1  0.45283136  0.55958575  0.62009703  1  0.494412  0  0.05131  0.110041  0  3.929128  0
C  C120  1  0.05748240  0.94141539  0.17002314  1  -0.099275  0  -0.087749  -0.189904  0  3.956415  0
C  C121  1  0.44252023  0.44141366  0.32997638  1  -0.099273  0  -0.087729  -0.189915  0  3.956405  0
C  C122  1  0.94252098  0.05858607  0.82997620  1  -0.099705  0  -0.087665  -0.189822  0  3.956427  0
C  C123  1  0.55747969  0.55858710  0.67002417  1  -0.099244  0  -0.087696  -0.189843  0  3.95647  0
C  C124  1  0.10603746  0.85686477  0.19675976  1  -0.044893  0  0.011024  0.141166  0  3.955751  0
C  C125  1  0.39396247  0.35686371  0.30324019  1  -0.044982  0  0.011022  0.141256  0  3.955752  0
C  C126  1  0.89396361  0.14313810  0.80324083  1  -0.044427  0  0.010926  0.141144  0  3.955784  0
C  C127  1  0.60603746  0.64313634  0.69675992  1  -0.044974  0  0.011047  0.141271  0  3.955764  0
C  C128  1  0.04992159  0.77321005  0.17030132  1  0.011594  0  -0.083296  -0.179174  0  3.958108  0
C  C129  1  0.45007336  0.27320833  0.32969766  1  0.011432  0  -0.083421  -0.179405  0  3.958322  0
C  C130  1  0.95007489  0.22679211  0.82969868  1  0.011198  0  -0.083319  -0.179192  0  3.958135  0
C  C131  1  0.54992770  0.72679313  0.67030337  1  0.011185  0  -0.083459  -0.179408  0  3.95834  0
C  C132  1  0.94530401  0.77766174  0.12050986  1  0.409536  0  0.04825  0.085243  0  3.966169  0
C  C133  1  0.55469098  0.27765918  0.37948971  1  0.409436  0  0.048271  0.085213  0  3.966203  0
C  C134  1  0.05469246  0.22234183  0.87949057  1  0.409653  0  0.048247  0.085159  0  3.96618  0
C  C135  1  0.44531125  0.72234228  0.62051003  1  0.409981  0  0.048312  0.085264  0  3.966211  0
C  C136  1  0.21255156  0.85564160  0.25269855  1  0.293388  0  -0.059693  -0.105147  0  3.975523  0
C  C137  1  0.28744951  0.35564119  0.24730055  1  0.293283  0  -0.059652  -0.105062  0  3.975513  0
C  C138  1  0.78744836  0.14435915  0.74730156  1  0.293329  0  -0.059686  -0.105138  0  3.975584  0
C  C139  1  0.71255385  0.64435886  0.75270012  1  0.293275  0  -0.059726  -0.105201  0  3.975546  0
C  C140  1  0.41523967  0.76901982  0.30769708  1  0.311246  0  -0.068007  -0.073163  0  3.950508  0
C  C141  1  0.08475411  0.26902268  0.19230142  1  0.311473  0  -0.068065  -0.073177  0  3.950647  0
C  C142  1  0.58475681  0.23097812  0.69230203  1  0.311239  0  -0.068007  -0.073056  0  3.950552  0
C  C143  1  0.91524467  0.73097808  0.80769821  1  0.311331  0  -0.068052  -0.073107  0  3.950529  0
C  C144  1  0.54172481  0.69735231  0.30160750  1  0.287914  0  -0.069527  -0.075196  0  3.945412  0
C  C145  1  0.95827096  0.19735584  0.19839084  1  0.288353  0  -0.069481  -0.075229  0  3.945517  0
C  C146  1  0.45827283  0.30264492  0.69839120  1  0.288337  0  -0.069554  -0.075348  0  3.945562  0
C  C147  1  0.04173012  0.80264562  0.80160842  1  0.28814  0  -0.069466  -0.075167  0  3.945354  0
C  C148  1  0.45013803  0.82504994  0.20973368  1  0.275939  0  -0.069006  -0.074007  0  3.9479  0
C  C149  1  0.04986176  0.32505109  0.29026497  1  0.275923  0  -0.069033  -0.074062  0  3.947958  0
C  C150  1  0.54986074  0.17495082  0.79026683  1  0.275933  0  -0.068958  -0.073925  0  3.947776  0
C  C151  1  0.95013932  0.67494896  0.70973430  1  0.275914  0  -0.06902  -0.074096  0  3.947907  0
C  C152  1  0.57684694  0.75356541  0.20366577  1  0.286763  0  -0.068968  -0.075305  0  3.951606  0
C  C153  1  0.92315139  0.25356654  0.29633349  1  0.286809  0  -0.069023  -0.075353  0  3.951675  0
C  C154  1  0.42315069  0.24643393  0.79633382  1  0.286831  0  -0.068977  -0.075253  0  3.951563  0
C  C155  1  0.07684854  0.74643351  0.70366617  1  0.286814  0  -0.068989  -0.075303  0  3.951585  0
C  C156  1  0.77625640  0.66392293  0.25749650  1  0.3058  0  -0.060666  -0.108876  0  3.979539  0
C  C157  1  0.72373919  0.16392593  0.24250408  1  0.306006  0  -0.060676  -0.108873  0  3.97953  0
C  C158  1  0.22373894  0.33607289  0.74250213  1  0.30597  0  -0.060613  -0.108799  0  3.979479  0
C  C159  1  0.27626073  0.83607483  0.75749603  1  0.306013  0  -0.060683  -0.10887  0  3.979481  0
C  C160  1  0.04682533  0.73367330  0.39082877  1  0.459016  0  0.048883  0.087394  0  3.964904  0
C  C161  1  0.45317517  0.23367632  0.10916954  1  0.458641  0  0.048941  0.087439  0  3.964815  0
C  C162  1  0.95317347  0.26632112  0.60916821  1  0.459162  0  0.048987  0.087515  0  3.964762  0
C  C163  1  0.54682707  0.76632654  0.89082843  1  0.458996  0  0.048851  0.087346  0  3.965018  0
C  C164  1  0.93955762  0.74130826  0.34201150  1  -0.058517  0  -0.083491  -0.180167  0  3.95819  0
C  C165  1  0.56044179  0.24131256  0.15798869  1  -0.058086  0  -0.083529  -0.180151  0  3.958111  0
C  C166  1  0.06044232  0.25868475  0.65798728  1  -0.058606  0  -0.083503  -0.180094  0  3.958104  0
C  C167  1  0.43956272  0.75868890  0.84201201  1  -0.05821  0  -0.083517  -0.180143  0  3.958148  0
C  C168  1  0.88598470  0.65954958  0.31245835  1  0.041605  0  0.011602  0.140996  0  3.953721  0
C  C169  1  0.61400972  0.15955390  0.18754220  1  0.042038  0  0.011574  0.14097  0  3.953534  0
C  C170  1  0.11401066  0.34044414  0.68753940  1  0.042004  0  0.011544  0.140877  0  3.953616  0
C  C171  1  0.38598905  0.84044966  0.81245787  1  0.041989  0  0.011622  0.140999  0  3.953606  0
C  C172  1  0.94134109  0.57336687  0.33480001  1  -0.046288  0  -0.087891  -0.187942  0  3.951768  0
C  C173  1  0.55865521  0.07337044  0.16520157  1  -0.046662  0  -0.087829  -0.187849  0  3.951489  0
C  C174  1  0.05865771  0.42662755  0.66519785  1  -0.0465  0  -0.08782  -0.187822  0  3.951808  0
C  C175  1  0.44134356  0.92663102  0.83479939  1  -0.046644  0  -0.087815  -0.187772  0  3.95178  0
C  C176  1  0.04872981  0.57125741  0.38379785  1  0.474111  0  0.050973  0.111562  0  3.93308  0
C  C177  1  0.45126877  0.07125901  0.11620143  1  0.474117  0  0.050899  0.1115  0  3.933012  0
C  C178  1  0.95126669  0.42873841  0.61619993  1  0.47433  0  0.05095  0.11156  0  3.933191  0
C  C179  1  0.54873116  0.92874245  0.88379735  1  0.474106  0  0.050887  0.111425  0  3.933212  0
C  C180  1  0.47197854  0.78435872  0.04452956  1  1.511108  0  0.189614  0.610432  0  4.174084  0
C  C181  1  0.02801989  0.28435946  0.45547040  1  1.511036  0  0.189629  0.610486  0  4.174188  0
C  C182  1  0.52802137  0.21564273  0.95547143  1  1.511028  0  0.189647  0.610502  0  4.174157  0
C  C183  1  0.97198118  0.71564270  0.54452974  1  1.511045  0  0.189647  0.610492  0  4.17417  0
C  C184  1  0.31866326  0.74217791  0.05872997  1  -0.033165  0  -0.170671  -0.296837  0  3.917595  0
C  C185  1  0.18133496  0.24217896  0.44127047  1  -0.033179  0  -0.170657  -0.296902  0  3.917609  0
C  C186  1  0.68133664  0.25782425  0.94127191  1  -0.033046  0  -0.170671  -0.296979  0  3.917748  0
C  C187  1  0.81866726  0.75782109  0.55872927  1  -0.033239  0  -0.170632  -0.296867  0  3.917619  0
C  C188  1  0.24774035  0.67855537  0.00878235  1  0.013542  0  -0.160285  -0.096669  0  3.918079  0
C  C189  1  0.25225642  0.17855644  0.49121854  1  0.013425  0  -0.160265  -0.096701  0  3.917985  0
C  C190  1  0.75225840  0.32144608  0.99121993  1  0.012439  0  -0.160262  -0.096692  0  3.918098  0
C  C191  1  0.74774350  0.82144361  0.50878157  1  0.013427  0  -0.160274  -0.096724  0  3.917943  0
C  C192  1  0.17714621  0.73411828  0.95494409  1  -0.031598  0  -0.170795  -0.296745  0  3.918991  0
C  C193  1  0.32285180  0.23411839  0.54505720  1  -0.031713  0  -0.170742  -0.296585  0  3.918958  0
C  C194  1  0.82285138  0.26588177  0.04505859  1  -0.031697  0  -0.17077  -0.296605  0  3.918822  0
C  C195  1  0.67714812  0.76588025  0.45494291  1  -0.031702  0  -0.170761  -0.296641  0  3.918904  0
C  C196  1  0.02520805  0.78050256  0.96670389  1  1.504351  0  0.189321  0.609843  0  4.174441  0
C  C197  1  0.47479018  0.28050298  0.53329692  1  1.504299  0  0.189287  0.609773  0  4.174427  0
C  C198  1  0.97478839  0.21949397  0.03329920  1  1.504303  0  0.189352  0.609844  0  4.174437  0
C  C199  1  0.52520859  0.71949707  0.46670315  1  1.504301  0  0.189293  0.609786  0  4.174448  0
N  N200  1  0.89621229  0.85987434  0.09605487  1  -1.217579  0  -0.325473  -0.24105  0  3.497637  0
N  N201  1  0.60378537  0.35987111  0.40394516  1  -1.217285  0  -0.325402  -0.240898  0  3.497499  0
N  N202  1  0.10378762  0.14012782  0.90394568  1  -1.217387  0  -0.325348  -0.240814  0  3.49749  0
N  N203  1  0.39621570  0.64013034  0.59605498  1  -1.217349  0  -0.32539  -0.240856  0  3.497477  0
N  N204  1  0.33886297  0.78997678  0.24922220  1  -1.037109  0  -0.345463  -0.150457  0  3.502497  0
N  N205  1  0.16113436  0.28997753  0.25077595  1  -1.037201  0  -0.345474  -0.150455  0  3.502623  0
N  N206  1  0.66113581  0.21002327  0.75077743  1  -1.03708  0  -0.345531  -0.150588  0  3.502501  0
N  N207  1  0.83886557  0.71002252  0.74922371  1  -1.037064  0  -0.345485  -0.150492  0  3.502547  0
N  N208  1  0.65338456  0.73174138  0.26202350  1  -1.003938  0  -0.345604  -0.14949  0  3.494552  0
N  N209  1  0.84661366  0.23174461  0.23797622  1  -1.004298  0  -0.345572  -0.149493  0  3.494564  0
N  N210  1  0.34661423  0.26825585  0.73797568  1  -1.004299  0  -0.345596  -0.149538  0  3.49457  0
N  N211  1  0.15338626  0.76825614  0.76202389  1  -1.004118  0  -0.345586  -0.149562  0  3.494565  0
N  N212  1  0.10158649  0.65010309  0.41124943  1  -1.228804  0  -0.326496  -0.244206  0  3.498239  0
N  N213  1  0.39841705  0.15010535  0.08874994  1  -1.228562  0  -0.326506  -0.244181  0  3.498257  0
N  N214  1  0.89841460  0.34989133  0.58874851  1  -1.228708  0  -0.326593  -0.244319  0  3.498408  0
N  N215  1  0.60158978  0.84989541  0.91124863  1  -1.228812  0  -0.326458  -0.24419  0  3.498257  0
O  O216  1  0.48499983  0.87437365  0.04105330  1  -1.166735  0  -0.335621  -0.588958  0  2.21445  0
O  O217  1  0.01499789  0.37437365  0.45894611  1  -1.166765  0  -0.33567  -0.589018  0  2.214482  0
O  O218  1  0.51500010  0.12562781  0.95894681  1  -1.166715  0  -0.335635  -0.58897  0  2.214452  0
O  O219  1  0.98500434  0.62562710  0.54105363  1  -1.166723  0  -0.335646  -0.588978  0  2.214422  0
O  O220  1  0.58239357  0.72953025  0.03613206  1  -1.172869  0  -0.343258  -0.570395  0  2.124498  0
O  O221  1  0.91760464  0.22952957  0.46386722  1  -1.172795  0  -0.343262  -0.57041  0  2.124572  0
O  O222  1  0.41760519  0.27047121  0.96386933  1  -1.172818  0  -0.343276  -0.570396  0  2.124565  0
O  O223  1  0.08239645  0.77047119  0.53613116  1  -1.172821  0  -0.343292  -0.570435  0  2.124605  0
O  O224  1  0.01456699  0.87073141  0.96579603  1  -1.159283  0  -0.335285  -0.589575  0  2.206707  0
O  O225  1  0.48543398  0.37073185  0.53420435  1  -1.159318  0  -0.335296  -0.58959  0  2.20667  0
O  O226  1  0.98543288  0.12926652  0.03420939  1  -1.159344  0  -0.335332  -0.58963  0  2.206744  0
O  O227  1  0.51456594  0.62926679  0.46579576  1  -1.159336  0  -0.335317  -0.589601  0  2.20664  0
O  O228  1  0.91330207  0.72828656  0.97765912  1  -1.164908  0  -0.343144  -0.568406  0  2.134146  0
O  O229  1  0.58669367  0.22828629  0.52234049  1  -1.164801  0  -0.343121  -0.568379  0  2.134176  0
O  O230  1  0.08669440  0.27171208  0.02234132  1  -1.164691  0  -0.343126  -0.568406  0  2.134105  0
O  O231  1  0.41330513  0.77171235  0.47765781  1  -1.164764  0  -0.343095  -0.568361  0  2.134249  0
O  O232  1  0.74841509  0.01883710  0.00116123  1  -1.299265  0  -0.610546  -0.795604  0  2.096614  0
O  O233  1  0.75159019  0.51883773  0.49883627  1  -1.299646  0  -0.61061  -0.795743  0  2.096552  0
O  O234  1  0.25158484  0.98116365  0.99883887  1  -1.299561  0  -0.610539  -0.795588  0  2.096659  0
O  O235  1  0.24841319  0.48116232  0.50116263  1  -1.299582  0  -0.610598  -0.795741  0  2.096538  0
