# generated using pymatgen
data_SmFe2H25C36(NO4)2
_symmetry_space_group_name_H-M   'P 1'
_cell_length_a   11.52939059
_cell_length_b   12.00011359
_cell_length_c   13.76520000
_cell_angle_alpha   94.75683258
_cell_angle_beta   109.33036065
_cell_angle_gamma   117.28912878
_symmetry_Int_Tables_number   1
_chemical_formula_structural   SmFe2H25C36(NO4)2
_chemical_formula_sum   'Sm2 Fe4 H50 C72 N4 O16'
_cell_volume   1533.27861619
_cell_formula_units_Z   2
loop_
 _symmetry_equiv_pos_site_id
 _symmetry_equiv_pos_as_xyz
  1  'x, y, z'
loop_
 _atom_site_type_symbol
 _atom_site_label
 _atom_site_symmetry_multiplicity
 _atom_site_fract_x
 _atom_site_fract_y
 _atom_site_fract_z
 _atom_site_occupancy
 _atom_site_hle17_bader_spin_density
 _atom_site_hle17_ddec_charge
 _atom_site_hle17_ddec_spin_density
 _atom_site_hle17_ddec_sum_bond_order
 _atom_site_hle17_magmom
 _atom_site_hse06_10hf_bader_spin_density
 _atom_site_hse06_10hf_ddec_charge
 _atom_site_hse06_10hf_ddec_spin_density
 _atom_site_hse06_10hf_ddec_sum_bond_order
 _atom_site_hse06_10hf_magmom
 _atom_site_hse06_bader_spin_density
 _atom_site_hse06_ddec_charge
 _atom_site_hse06_ddec_spin_density
 _atom_site_hse06_ddec_sum_bond_order
 _atom_site_hse06_magmom
 _atom_site_pbe_bader_charge
 _atom_site_pbe_bader_spin_density
 _atom_site_pbe_cm5_charge
 _atom_site_pbe_ddec_charge
 _atom_site_pbe_ddec_spin_density
 _atom_site_pbe_ddec_sum_bond_order
 _atom_site_pbe_magmom
Sm  Sm0  1  0.80054674  0.35941036  0.38356610  1  0  2.248817  0  1.664728  0  0  2.074249  0  2.147816  0  0  2.189875  0  1.974968  0  2.221835  0  1.499026  2.037193  0  2.182475  0
Sm  Sm1  1  0.19945360  0.64058882  0.61643386  1  0  2.248819  0  1.66477  0  0  2.074277  0  2.147831  0  0  2.189881  0  1.975011  0  2.221789  0  1.499012  2.037212  0  2.182503  0
Fe  Fe2  1  0.85038214  0.76087998  0.25048541  1  0  0.113673  0  3.541927  0  0  0.21237  0  3.957995  0  0  0.217986  0  3.943385  0  0.724538  0  0.537287  0.21608  0  3.96072  0
Fe  Fe3  1  0.14961838  0.23912115  0.74951402  1  0  0.113698  0  3.541896  0  0  0.212386  0  3.957992  0  0  0.21792  0  3.943381  0  0.724643  0  0.53728  0.216084  0  3.960694  0
Fe  Fe4  1  0.77234413  0.65344434  0.74950563  1  0  0.125383  0  3.562976  0  0  0.22568  0  3.975142  0  0  0.230624  0  3.961363  0  0.738619  0  0.545401  0.22975  0  3.976995  0
Fe  Fe5  1  0.22765823  0.34655680  0.25049576  1  0  0.125399  0  3.562965  0  0  0.225723  0  3.975091  0  0  0.23063  0  3.961341  0  0.738678  0  0.545417  0.229791  0  3.97694  0
H  H6  1  0.52360640  0.32114367  0.11670225  1  0  0.388486  0  0.920281  0  0  0.354874  0  1.004061  0  0  0.368739  0  0.990058  0  0.638  0  0.294952  0.345231  0  1.013516  0
H  H7  1  0.47639229  0.67885747  0.88329449  1  0  0.388607  0  0.920037  0  0  0.354914  0  1.003963  0  0  0.368779  0  0.989986  0  0.63848  0  0.294974  0.34527  0  1.013421  0
H  H8  1  0.68875679  0.59132824  0.34496621  1  0  0.136571  0  0.956327  0  0  0.149137  0  1.013415  0  0  0.152411  0  1.012424  0  0.124198  0  0.116948  0.146588  0  1.014828  0
H  H9  1  0.31124354  0.40867094  0.65503303  1  0  0.136611  0  0.956227  0  0  0.149157  0  1.013342  0  0  0.152437  0  1.012349  0  0.124198  0  0.116928  0.146601  0  1.014757  0
H  H10  1  0.60811685  0.75650137  0.26345962  1  0  0.108885  0  0.966623  0  0  0.121931  0  1.025005  0  0  0.124298  0  1.025281  0  0.09056  0  0.102804  0.120289  0  1.024975  0
H  H11  1  0.39188422  0.24350074  0.73654149  1  0  0.10888  0  0.966637  0  0  0.121927  0  1.025016  0  0  0.124295  0  1.02529  0  0.090537  0  0.102789  0.120278  0  1.024987  0
H  H12  1  0.84796232  0.99084053  0.31476537  1  0  0.119364  0  0.943604  0  0  0.134048  0  0.996983  0  0  0.136836  0  0.996446  0  0.090095  0  0.109858  0.132136  0  0.997457  0
H  H13  1  0.15203801  0.00915865  0.68523386  1  0  0.119388  0  0.943581  0  0  0.134084  0  0.996945  0  0  0.136872  0  0.996405  0  0.09009  0  0.109861  0.132165  0  0.997424  0
H  H14  1  0.07765732  0.97260332  0.42787331  1  0  0.122721  0  0.938611  0  0  0.139763  0  0.989263  0  0  0.142685  0  0.988299  0  0.126652  0  0.111419  0.137699  0  0.990126  0
H  H15  1  0.92234393  0.02739586  0.57212618  1  0  0.122731  0  0.938614  0  0  0.13977  0  0.98927  0  0  0.142693  0  0.988303  0  0.126652  0  0.111421  0.137698  0  0.990139  0
H  H16  1  0.62005303  0.63478128  0.04512682  1  0  0.136502  0  0.961915  0  0  0.147126  0  1.021135  0  0  0.151306  0  1.017656  0  0.156992  0  0.112361  0.144157  0  1.023715  0
H  H17  1  0.37994695  0.36522376  0.95487201  1  0  0.136525  0  0.961898  0  0  0.147121  0  1.021154  0  0  0.151303  0  1.017675  0  0.157039  0  0.112333  0.144143  0  1.023738  0
H  H18  1  0.83644484  0.88021787  0.08165727  1  0  0.108953  0  0.954339  0  0  0.124564  0  1.009436  0  0  0.127478  0  1.008198  0  0.092765  0  0.107037  0.122523  0  1.010517  0
H  H19  1  0.16355715  0.11978424  0.91834264  1  0  0.108924  0  0.954353  0  0  0.124542  0  1.009442  0  0  0.127456  0  1.008202  0  0.092766  0  0.107004  0.122494  0  1.010528  0
H  H20  1  0.08781097  0.89906552  0.20120028  1  0  0.113503  0  0.966064  0  0  0.128092  0  1.020846  0  0  0.130591  0  1.021035  0  0.136272  0  0.104125  0.126405  0  1.020802  0
H  H21  1  0.91218936  0.10093366  0.79879823  1  0  0.113531  0  0.966126  0  0  0.128118  0  1.020905  0  0  0.130617  0  1.021091  0  0.136422  0  0.104138  0.126422  0  1.020868  0
H  H22  1  0.02405696  0.66161846  0.23947926  1  0  0.125039  0  0.939252  0  0  0.140491  0  0.993217  0  0  0.143686  0  0.991267  0  0.110887  0  0.115022  0.138284  0  0.994569  0
H  H23  1  0.97593915  0.33837974  0.76051801  1  0  0.125014  0  0.939209  0  0  0.140425  0  0.993232  0  0  0.143617  0  0.991284  0  0.110838  0  0.115011  0.138211  0  0.994583  0
H  H24  1  0.57558405  0.39531633  0.62362907  1  0  0.11573  0  0.948552  0  0  0.133262  0  1.000687  0  0  0.136316  0  0.998732  0  0.091152  0  0.110513  0.131145  0  1.002111  0
H  H25  1  0.42441647  0.60468481  0.37637254  1  0  0.115712  0  0.94856  0  0  0.133244  0  1.000693  0  0  0.136298  0  0.998738  0  0.091113  0  0.110498  0.131125  0  1.002121  0
H  H26  1  0.56620619  0.47482380  0.81019599  1  0  0.121138  0  0.932664  0  0  0.138846  0  0.981421  0  0  0.14136  0  0.981117  0  0.109827  0  0.113919  0.13702  0  0.981757  0
H  H27  1  0.43379617  0.52517733  0.18980613  1  0  0.121114  0  0.932667  0  0  0.138821  0  0.981426  0  0  0.141336  0  0.981121  0  0.109799  0  0.113903  0.136993  0  0.981764  0
H  H28  1  0.83806037  0.62666674  0.96019867  1  0  0.120295  0  0.975677  0  0  0.138388  0  1.023217  0  0  0.140146  0  1.024954  0  0.084402  0  0.104599  0.137164  0  1.022148  0
H  H29  1  0.16194327  0.37333342  0.03980373  1  0  0.120256  0  0.975679  0  0  0.138356  0  1.02322  0  0  0.140116  0  1.024954  0  0.084421  0  0.104579  0.137131  0  1.022146  0
H  H30  1  0.01780607  0.64334121  0.86802485  1  0  0.11846  0  0.953632  0  0  0.136304  0  1.003385  0  0  0.139542  0  1.001197  0  0.073203  0  0.110743  0.134157  0  1.004833  0
H  H31  1  0.98219499  0.35665602  0.13197444  1  0  0.11848  0  0.953639  0  0  0.136328  0  1.00337  0  0  0.139565  0  1.001191  0  0.073224  0  0.110747  0.134178  0  1.00482  0
H  H32  1  0.56881796  0.63351448  0.55807223  1  0  0.120881  0  0.940911  0  0  0.136716  0  0.994751  0  0  0.139945  0  0.992369  0  0.103051  0  0.114358  0.134414  0  0.996447  0
H  H33  1  0.43118605  0.36648470  0.44192948  1  0  0.120888  0  0.940935  0  0  0.136727  0  0.994773  0  0  0.139954  0  0.992386  0  0.10293  0  0.114391  0.13442  0  0.996476  0
H  H34  1  0.84527826  0.73758925  0.58242422  1  0  0.123985  0  0.943921  0  0  0.141559  0  0.989989  0  0  0.14393  0  0.990306  0  0.09633  0  0.113116  0.140006  0  0.989694  0
H  H35  1  0.15472630  0.26241090  0.41757844  1  0  0.123987  0  0.94393  0  0  0.141564  0  0.989994  0  0  0.143935  0  0.990309  0  0.096422  0  0.113105  0.14001  0  0.989695  0
H  H36  1  0.01903339  0.89384499  0.78471613  1  0  0.103366  0  0.967841  0  0  0.117228  0  1.02797  0  0  0.119611  0  1.02765  0  0.096487  0  0.105799  0.11556  0  1.02841  0
H  H37  1  0.98097117  0.10615517  0.21528653  1  0  0.103355  0  0.967942  0  0  0.117237  0  1.028016  0  0  0.11962  0  1.027696  0  0.096547  0  0.105808  0.115569  0  1.028462  0
H  H38  1  0.85025538  0.88527334  0.88721384  1  0  0.118532  0  0.94087  0  0  0.135152  0  0.992343  0  0  0.138889  0  0.989239  0  0.102472  0  0.108932  0.132476  0  0.994711  0
H  H39  1  0.14974623  0.11472486  0.11278785  1  0  0.11849  0  0.940791  0  0  0.135107  0  0.992276  0  0  0.138846  0  0.98917  0  0.102684  0  0.108904  0.132428  0  0.994646  0
H  H40  1  0.83696222  0.23454134  0.17620874  1  0  0.08182  0  0.976224  0  0  0.085882  0  1.047064  0  0  0.088973  0  1.04383  0  0.127434  0  0.120795  0.08326  0  1.050217  0
H  H41  1  0.16303535  0.76545784  0.82379046  1  0  0.081847  0  0.97626  0  0  0.085912  0  1.047082  0  0  0.089003  0  1.043848  0  0.127427  0  0.120799  0.083289  0  1.050234  0
H  H42  1  0.73976097  0.03362144  0.02867215  1  0  0.107634  0  0.932708  0  0  0.12107  0  0.984553  0  0  0.124563  0  0.983477  0  0.084195  0  0.111832  0.118487  0  0.985585  0
H  H43  1  0.26023789  0.96637677  0.97132878  1  0  0.107648  0  0.932713  0  0  0.121086  0  0.984552  0  0  0.124579  0  0.983476  0  0.084146  0  0.111832  0.118501  0  0.985586  0
H  H44  1  0.52659960  0.82557363  0.01331462  1  0  0.110275  0  0.953802  0  0  0.121202  0  1.012984  0  0  0.12397  0  1.011173  0  0.116453  0  0.114976  0.119162  0  1.014347  0
H  H45  1  0.47339834  0.17442457  0.98668606  1  0  0.110292  0  0.953801  0  0  0.121212  0  1.012982  0  0  0.123978  0  1.011171  0  0.11636  0  0.114986  0.119171  0  1.014344  0
H  H46  1  0.22781837  0.84009737  0.36235902  1  0  0.110699  0  0.934577  0  0  0.122203  0  0.993637  0  0  0.124704  0  0.992146  0  0.117292  0  0.116493  0.120442  0  0.994527  0
H  H47  1  0.77217976  0.15990278  0.63764113  1  0  0.110704  0  0.934549  0  0  0.122209  0  0.993611  0  0  0.124708  0  0.992122  0  0.117309  0  0.116501  0.120449  0  0.994499  0
H  H48  1  0.34101816  0.05172874  0.49783272  1  0  0.112105  0  0.930498  0  0  0.12608  0  0.981804  0  0  0.129356  0  0.981169  0  0.073888  0  0.113279  0.123584  0  0.982642  0
H  H49  1  0.65898329  0.94827239  0.50216914  1  0  0.1121  0  0.930565  0  0  0.126063  0  0.981865  0  0  0.129337  0  0.981234  0  0.073897  0  0.113281  0.123566  0  0.982705  0
H  H50  1  0.56690253  0.24413658  0.50585117  1  0  0.080149  0  0.960944  0  0  0.085755  0  1.029807  0  0  0.088993  0  1.026277  0  0.100048  0  0.119074  0.08322  0  1.032732  0
H  H51  1  0.43309928  0.75586358  0.49414926  1  0  0.080138  0  0.960819  0  0  0.085721  0  1.029731  0  0  0.088959  0  1.026202  0  0.100061  0  0.119049  0.083187  0  1.032658  0
H  H52  1  0.33903393  0.70833666  0.08019334  1  0  0.106309  0  0.938527  0  0  0.120133  0  0.992133  0  0  0.122737  0  0.991708  0  0.106092  0  0.108193  0.118232  0  0.99252  0
H  H53  1  0.66096364  0.29166252  0.91980877  1  0  0.106294  0  0.938497  0  0  0.120123  0  0.9921  0  0  0.122727  0  0.991676  0  0.106433  0  0.108184  0.11822  0  0.992491  0
H  H54  1  0.22872585  0.71301512  0.20579024  1  0  0.103468  0  0.954043  0  0  0.117888  0  1.007986  0  0  0.119805  0  1.008905  0  0.073062  0  0.106009  0.116331  0  1.007772  0
H  H55  1  0.77127192  0.28698601  0.79421206  1  0  0.103486  0  0.954029  0  0  0.117873  0  1.008002  0  0  0.11979  0  1.008921  0  0.07312  0  0.106006  0.11631  0  1.007793  0
C  C56  1  0.00148614  0.71125801  0.46247485  1  0  0.713074  0  3.885607  0  0  0.6708  0  4.171938  0  0  0.707565  0  4.165293  0  1.593491  0  0.217728  0.645455  0  4.180352  0
C  C57  1  0.99851124  0.28873921  0.53752343  1  0  0.713072  0  3.885685  0  0  0.670777  0  4.172029  0  0  0.707541  0  4.165385  0  1.593501  0  0.21779  0.645436  0  4.180433  0
C  C58  1  0.91368450  0.76518827  0.40769446  1  0  -0.101047  0  3.72144  0  0  -0.092029  0  3.982423  0  0  -0.101896  0  3.999853  0  -0.147103  0  -0.07831  -0.08607  0  3.970478  0
C  C59  1  0.08631639  0.23481189  0.59230427  1  0  -0.101067  0  3.72152  0  0  -0.092005  0  3.982455  0  0  -0.101857  0  3.999861  0  -0.147121  0  -0.078342  -0.086049  0  3.970497  0
C  C60  1  0.75898589  0.69376897  0.35296276  1  0  -0.114876  0  3.657578  0  0  -0.154553  0  3.932713  0  0  -0.157163  0  3.950015  0  -0.172979  0  -0.142962  -0.153309  0  3.921384  0
C  C61  1  0.24101352  0.30623021  0.64703622  1  0  -0.114902  0  3.657537  0  0  -0.154572  0  3.932653  0  0  -0.157184  0  3.949951  0  -0.172995  0  -0.142942  -0.153329  0  3.92132  0
C  C62  1  0.71723215  0.78074440  0.31024297  1  0  -0.109944  0  3.720212  0  0  -0.135896  0  3.99339  0  0  -0.139743  0  4.011387  0  -0.147963  0  -0.149101  -0.133907  0  3.981531  0
C  C63  1  0.28276873  0.21925576  0.68975722  1  0  -0.10993  0  3.720254  0  0  -0.135879  0  3.99343  0  0  -0.139717  0  4.011417  0  -0.148003  0  -0.149102  -0.133897  0  3.981571  0
C  C64  1  0.84446679  0.90484474  0.33660612  1  0  -0.096378  0  3.705533  0  0  -0.126628  0  3.982896  0  0  -0.129546  0  3.99873  0  -0.137838  0  -0.145295  -0.125421  0  3.972493  0
C  C65  1  0.15553557  0.09515639  0.66339309  1  0  -0.096413  0  3.705527  0  0  -0.126675  0  3.98289  0  0  -0.129583  0  3.998709  0  -0.137838  0  -0.145307  -0.125475  0  3.972492  0
C  C66  1  0.96577697  0.89574958  0.39679171  1  0  -0.104009  0  3.681145  0  0  -0.140445  0  3.952093  0  0  -0.140713  0  3.96685  0  -0.108436  0  -0.141745  -0.140695  0  3.94217  0
C  C67  1  0.03422336  0.10424960  0.60320680  1  0  -0.104036  0  3.681103  0  0  -0.140488  0  3.952055  0  0  -0.140745  0  3.966793  0  -0.108446  0  -0.141757  -0.140741  0  3.942133  0
C  C68  1  0.71929532  0.46974293  0.15057044  1  0  0.700666  0  3.825932  0  0  0.655154  0  4.116229  0  0  0.693369  0  4.10265  0  1.561599  0  0.237293  0.629145  0  4.126138  0
C  C69  1  0.28070245  0.53025820  0.84942604  1  0  0.700442  0  3.825926  0  0  0.654941  0  4.116212  0  0  0.693159  0  4.102626  0  1.561626  0  0.23719  0.628935  0  4.126112  0
C  C70  1  0.79662515  0.60216488  0.14083202  1  0  -0.114999  0  3.766985  0  0  -0.105667  0  4.027087  0  0  -0.117013  0  4.045563  0  -0.16139  0  -0.083302  -0.098676  0  4.014464  0
C  C71  1  0.20337206  0.39783527  0.85916496  1  0  -0.115023  0  3.767113  0  0  -0.1057  0  4.027209  0  0  -0.117039  0  4.045669  0  -0.161216  0  -0.08331  -0.098711  0  4.014574  0
C  C72  1  0.73394706  0.67341033  0.08967799  1  0  -0.115042  0  3.667613  0  0  -0.154894  0  3.945747  0  0  -0.15423  0  3.958507  0  -0.159146  0  -0.146737  -0.15566  0  3.937176  0
C  C73  1  0.26605015  0.32658982  0.91031900  1  0  -0.11506  0  3.66778  0  0  -0.154888  0  3.945913  0  0  -0.15422  0  3.958666  0  -0.159141  0  -0.14674  -0.155656  0  3.937338  0
C  C74  1  0.84890513  0.80237960  0.10874470  1  0  -0.101592  0  3.722306  0  0  -0.131747  0  4.000342  0  0  -0.134679  0  4.015844  0  -0.138976  0  -0.147604  -0.130554  0  3.990094  0
C  C75  1  0.15109687  0.19762251  0.89125448  1  0  -0.101555  0  3.722332  0  0  -0.131711  0  4.000352  0  0  -0.134638  0  4.01585  0  -0.138924  0  -0.147577  -0.130521  0  3.990095  0
C  C76  1  0.98202818  0.81192112  0.17159415  1  0  -0.11723  0  3.730761  0  0  -0.143982  0  4.003333  0  0  -0.146986  0  4.01971  0  -0.170553  0  -0.150862  -0.142479  0  3.992434  0
C  C77  1  0.01797087  0.18807904  0.82840408  1  0  -0.117206  0  3.730873  0  0  -0.143959  0  4.003443  0  0  -0.146953  0  4.019809  0  -0.170831  0  -0.150842  -0.142459  0  3.992539  0
C  C78  1  0.95001274  0.68865587  0.19229425  1  0  -0.12033  0  3.69576  0  0  -0.161136  0  3.974378  0  0  -0.161634  0  3.988909  0  -0.141526  0  -0.148774  -0.161117  0  3.964407  0
C  C79  1  0.04998612  0.31134234  0.80770451  1  0  -0.120293  0  3.695885  0  0  -0.16107  0  3.974513  0  0  -0.161557  0  3.989031  0  -0.141695  0  -0.148795  -0.161055  0  3.964533  0
C  C80  1  0.87422698  0.50963195  0.63691756  1  0  0.732823  0  3.852738  0  0  0.688614  0  4.142544  0  0  0.726419  0  4.132319  0  1.604261  0  0.233299  0.662765  0  4.151777  0
C  C81  1  0.12576543  0.49036137  0.36307833  1  0  0.732769  0  3.852769  0  0  0.688553  0  4.142608  0  0  0.726358  0  4.132383  0  1.604176  0  0.233269  0.662715  0  4.151824  0
C  C82  1  0.81597421  0.51321844  0.71803904  1  0  -0.109679  0  3.734115  0  0  -0.102923  0  3.998233  0  0  -0.112306  0  4.015514  0  -0.126224  0  -0.084896  -0.097222  0  3.986268  0
C  C83  1  0.18402576  0.48678172  0.28196089  1  0  -0.109595  0  3.734072  0  0  -0.102851  0  3.998207  0  0  -0.112229  0  4.015483  0  -0.126173  0  -0.084867  -0.097159  0  3.98625  0
C  C84  1  0.66714437  0.45555714  0.69976875  1  0  -0.125608  0  3.702924  0  0  -0.165166  0  3.983033  0  0  -0.166211  0  3.99831  0  -0.166427  0  -0.150288  -0.164803  0  3.972377  0
C  C85  1  0.33285707  0.54444400  0.30023238  1  0  -0.125604  0  3.702965  0  0  -0.165159  0  3.983072  0  0  -0.166199  0  3.998344  0  -0.166374  0  -0.150277  -0.164801  0  3.972427  0
C  C86  1  0.66214345  0.49678034  0.79816958  1  0  -0.098604  0  3.705796  0  0  -0.130461  0  3.987123  0  0  -0.134073  0  4.004376  0  -0.161579  0  -0.147152  -0.128263  0  3.975162  0
C  C87  1  0.33785891  0.50322079  0.20183253  1  0  -0.098612  0  3.705918  0  0  -0.130479  0  3.987256  0  0  -0.134088  0  4.004505  0  -0.161631  0  -0.147168  -0.128282  0  3.975299  0
C  C88  1  0.80659987  0.57839947  0.87792758  1  0  -0.105081  0  3.710899  0  0  -0.130535  0  3.97589  0  0  -0.133585  0  3.993523  0  -0.109312  0  -0.149964  -0.128963  0  3.963801  0
C  C89  1  0.19340194  0.42160069  0.12207359  1  0  -0.104988  0  3.710934  0  0  -0.13045  0  3.975918  0  0  -0.133497  0  3.993547  0  -0.109376  0  -0.149939  -0.128881  0  3.963822  0
C  C90  1  0.90147066  0.58896166  0.82901839  1  0  -0.12197  0  3.705337  0  0  -0.158159  0  3.974509  0  0  -0.158793  0  3.988727  0  -0.114881  0  -0.149264  -0.158093  0  3.964613  0
C  C91  1  0.09853059  0.41103752  0.17098110  1  0  -0.12206  0  3.705378  0  0  -0.158249  0  3.974554  0  0  -0.158885  0  3.988772  0  -0.114846  0  -0.149273  -0.158183  0  3.964662  0
C  C92  1  0.54210784  0.71364901  0.75526211  1  0  0.697798  0  3.873536  0  0  0.647717  0  4.174142  0  0  0.684995  0  4.164061  0  1.588763  0  0.220366  0.621814  0  4.183032  0
C  C93  1  0.45789710  0.28635506  0.24474166  1  0  0.697776  0  3.873443  0  0  0.647683  0  4.174057  0  0  0.684965  0  4.163977  0  1.588553  0  0.220345  0.621775  0  4.182948  0
C  C94  1  0.66689988  0.75184342  0.72914511  1  0  -0.113137  0  3.767585  0  0  -0.105245  0  4.029744  0  0  -0.115963  0  4.049211  0  -0.120827  0  -0.086589  -0.098599  0  4.016436  0
C  C95  1  0.33310248  0.24815771  0.27085628  1  0  -0.113337  0  3.767808  0  0  -0.105413  0  4.029921  0  0  -0.116145  0  4.049406  0  -0.120801  0  -0.08665  -0.098743  0  4.016583  0
C  C96  1  0.66493791  0.70289929  0.62904242  1  0  -0.120945  0  3.702655  0  0  -0.158637  0  3.978343  0  0  -0.159404  0  3.993332  0  -0.14942  0  -0.146809  -0.158251  0  3.967754  0
C  C97  1  0.33506720  0.29710184  0.37095974  1  0  -0.120924  0  3.702627  0  0  -0.158631  0  3.978317  0  0  -0.159383  0  3.9933  0  -0.149191  0  -0.146848  -0.158253  0  3.967726  0
C  C98  1  0.81030900  0.75828388  0.64216454  1  0  -0.085792  0  3.67472  0  0  -0.112164  0  3.94237  0  0  -0.115243  0  3.959404  0  -0.133854  0  -0.141746  -0.110657  0  3.930829  0
C  C99  1  0.18969556  0.24171628  0.35783739  1  0  -0.085766  0  3.674674  0  0  -0.112142  0  3.942324  0  0  -0.115218  0  3.959357  0  -0.134148  0  -0.14172  -0.110638  0  3.930784  0
C  C100  1  0.90260269  0.84037378  0.74998423  1  0  -0.09997  0  3.712168  0  0  -0.128763  0  3.988982  0  0  -0.131893  0  4.005832  0  -0.160175  0  -0.148081  -0.127281  0  3.977793  0
C  C101  1  0.09740151  0.15962735  0.25001840  1  0  -0.100058  0  3.712316  0  0  -0.128855  0  3.989139  0  0  -0.131982  0  4.005984  0  -0.160428  0  -0.148122  -0.127385  0  3.977968  0
C  C102  1  0.81484391  0.83655874  0.80413755  1  0  -0.121475  0  3.704004  0  0  -0.158079  0  3.975971  0  0  -0.15786  0  3.98973  0  -0.14748  0  -0.148726  -0.158648  0  3.966602  0
C  C103  1  0.18515937  0.16344240  0.19586554  1  0  -0.121273  0  3.703945  0  0  -0.157898  0  3.975922  0  0  -0.157669  0  3.98968  0  -0.147427  0  -0.148672  -0.158478  0  3.966555  0
C  C104  1  0.74320364  0.14191073  0.16487729  1  0  0.14657  0  3.713819  0  0  0.116096  0  3.977398  0  0  0.123555  0  3.996157  0  0.480915  0  0.061464  0.110838  0  3.967607  0
C  C105  1  0.25679449  0.85808943  0.83512286  1  0  0.146508  0  3.713859  0  0  0.116043  0  3.977413  0  0  0.1235  0  3.996171  0  0.480581  0  0.061436  0.110784  0  3.967624  0
C  C106  1  0.68972330  0.02931999  0.08409278  1  0  -0.125292  0  3.744804  0  0  -0.139372  0  4.003764  0  0  -0.146501  0  4.024631  0  -0.018278  0  -0.081724  -0.134585  0  3.989434  0
C  C107  1  0.31027464  0.97067822  0.91590572  1  0  -0.12528  0  3.744854  0  0  -0.139371  0  4.003809  0  0  -0.1465  0  4.024677  0  -0.017951  0  -0.081731  -0.134581  0  3.989472  0
C  C108  1  0.57171260  0.91453472  0.07526412  1  0  -0.032564  0  3.665223  0  0  -0.0583  0  3.914446  0  0  -0.055659  0  3.932934  0  -0.01906  0  -0.058352  -0.059783  0  3.901592  0
C  C109  1  0.42828442  0.08546348  0.92473630  1  0  -0.032594  0  3.665237  0  0  -0.058334  0  3.914423  0  0  -0.055689  0  3.932908  0  -0.018932  0  -0.058366  -0.059814  0  3.901565  0
C  C110  1  0.50756340  0.91314681  0.14684827  1  0  0.021461  0  3.79258  0  0  0.038049  0  4.023821  0  0  0.035069  0  4.048519  0  -0.022995  0  -0.000757  0.040072  0  4.006714  0
C  C111  1  0.49243326  0.08685237  0.85315139  1  0  0.021375  0  3.792648  0  0  0.038054  0  4.023827  0  0  0.035075  0  4.048525  0  -0.023018  0  -0.000753  0.040078  0  4.00672  0
C  C112  1  0.56953768  0.03159182  0.22648700  1  0  0.151939  0  3.732194  0  0  0.147742  0  3.96933  0  0  0.152514  0  3.991713  0  0.459556  0  0.128206  0.144364  0  3.955981  0
C  C113  1  0.43046045  0.96840833  0.77351242  1  0  0.152111  0  3.732096  0  0  0.147753  0  3.969343  0  0  0.152526  0  3.991725  0  0.459601  0  0.128226  0.144376  0  3.955992  0
C  C114  1  0.50695016  0.03387734  0.30121063  1  0  0.146374  0  3.738741  0  0  0.142122  0  3.976285  0  0  0.146349  0  3.999075  0  0.502381  0  0.12692  0.139223  0  3.962474  0
C  C115  1  0.49304797  0.96612282  0.69878952  1  0  0.146286  0  3.738838  0  0  0.14217  0  3.976231  0  0  0.146398  0  3.999019  0  0.502347  0  0.126933  0.13927  0  3.962417  0
C  C116  1  0.38181625  0.91858614  0.29176604  1  0  0.016971  0  3.77989  0  0  0.033232  0  4.010312  0  0  0.030533  0  4.034386  0  0.052654  0  -0.002353  0.03496  0  3.993844  0
C  C117  1  0.61818280  0.08141402  0.70823436  1  0  0.016973  0  3.780052  0  0  0.033233  0  4.010392  0  0  0.030536  0  4.034467  0  0.052657  0  -0.002333  0.034964  0  3.993919  0
C  C118  1  0.32167857  0.92631097  0.36471653  1  0  -0.041372  0  3.671795  0  0  -0.06528  0  3.923356  0  0  -0.062817  0  3.940608  0  -0.027987  0  -0.057997  -0.066606  0  3.911173  0
C  C119  1  0.67832159  0.07369114  0.63528577  1  0  -0.041408  0  3.671795  0  0  -0.065334  0  3.923344  0  0  -0.062872  0  3.9406  0  -0.028009  0  -0.058063  -0.066659  0  3.911156  0
C  C120  1  0.38460508  0.04327040  0.44030633  1  0  -0.106179  0  3.721336  0  0  -0.121686  0  3.976404  0  0  -0.127843  0  3.996903  0  -0.049157  0  -0.077858  -0.117472  0  3.962303  0
C  C121  1  0.61539415  0.95672683  0.55969390  1  0  -0.10624  0  3.721305  0  0  -0.121698  0  3.976371  0  0  -0.127854  0  3.996867  0  -0.049251  0  -0.077867  -0.117486  0  3.962272  0
C  C122  1  0.51015167  0.15092873  0.44513371  1  0  0.149695  0  3.71406  0  0  0.121288  0  3.974085  0  0  0.128708  0  3.992902  0  0.530985  0  0.060986  0.116363  0  3.963209  0
C  C123  1  0.48984922  0.84907142  0.55486792  1  0  0.149819  0  3.714062  0  0  0.12137  0  3.974158  0  0  0.128791  0  3.992973  0  0.531107  0  0.061013  0.116441  0  3.963282  0
C  C124  1  0.38354662  0.79836237  0.14113220  1  0  -0.110193  0  3.758632  0  0  -0.131648  0  4.01011  0  0  -0.135098  0  4.032866  0  -0.062349  0  -0.085865  -0.129211  0  3.994683  0
C  C125  1  0.61645095  0.20163681  0.85886845  1  0  -0.110202  0  3.75864  0  0  -0.131675  0  4.010089  0  0  -0.135126  0  4.032845  0  -0.062687  0  -0.085884  -0.129238  0  3.994661  0
C  C126  1  0.32273241  0.80115480  0.21061595  1  0  -0.093308  0  3.745818  0  0  -0.112455  0  3.990922  0  0  -0.115063  0  4.014423  0  -0.043136  0  -0.082229  -0.110772  0  3.975459  0
C  C127  1  0.67726572  0.19884536  0.78938564  1  0  -0.093282  0  3.745791  0  0  -0.112412  0  3.990892  0  0  -0.11502  0  4.014393  0  -0.043179  0  -0.082228  -0.110722  0  3.975426  0
N  N128  1  0.68564185  0.14367956  0.23407728  1  0  -0.421706  0  3.233198  0  0  -0.374237  0  3.50535  0  0  -0.395531  0  3.523235  0  -1.244964  0  -0.368822  -0.364826  0  3.494862  0
N  N129  1  0.31435609  0.85631865  0.76592122  1  0  -0.421729  0  3.233077  0  0  -0.374228  0  3.505273  0  0  -0.395518  0  3.523157  0  -1.244963  0  -0.368815  -0.364819  0  3.49479  0
N  N130  1  0.57014842  0.14710978  0.37823028  1  0  -0.40745  0  3.233217  0  0  -0.358719  0  3.497719  0  0  -0.379829  0  3.5176  0  -1.222869  0  -0.354084  -0.348787  0  3.485582  0
N  N131  1  0.42985100  0.85288940  0.62176942  1  0  -0.407441  0  3.233371  0  0  -0.358725  0  3.497846  0  0  -0.379832  0  3.517726  0  -1.222881  0  -0.354045  -0.34881  0  3.485756  0
O  O132  1  0.94323254  0.58708539  0.44315641  1  0  -0.81164  0  2.156332  0  0  -0.750693  0  2.420499  0  0  -0.791431  0  2.406837  0  -1.218221  0  -0.426335  -0.732074  0  2.428609  0
O  O133  1  0.05676706  0.41291574  0.55684131  1  0  -0.811667  0  2.156402  0  0  -0.750687  0  2.420513  0  0  -0.791425  0  2.406854  0  -1.21822  0  -0.426374  -0.732075  0  2.428621  0
O  O134  1  0.13105611  0.78849560  0.52947292  1  0  -0.686995  0  1.942716  0  0  -0.644105  0  2.182715  0  0  -0.674755  0  2.172291  0  -1.193156  0  -0.371514  -0.627302  0  2.188567  0
O  O135  1  0.86894478  0.21150455  0.47052799  1  0  -0.686975  0  1.942797  0  0  -0.644085  0  2.182806  0  0  -0.674735  0  2.172383  0  -1.193207  0  -0.371541  -0.627301  0  2.188661  0
O  O136  1  0.78163523  0.42587967  0.21374888  1  0  -0.678418  0  2.063642  0  0  -0.632825  0  2.317269  0  0  -0.662688  0  2.303125  0  -1.193016  0  -0.355376  -0.617401  0  2.325072  0
O  O137  1  0.21836014  0.57412049  0.78624832  1  0  -0.678276  0  2.063546  0  0  -0.632702  0  2.317178  0  0  -0.662561  0  2.303034  0  -1.1932  0  -0.355342  -0.617289  0  2.32498  0
O  O138  1  0.58115645  0.40293568  0.08749946  1  0  -0.569438  0  2.080187  0  0  -0.511371  0  2.29739  0  0  -0.53489  0  2.281782  0  -1.194514  0  -0.322947  -0.495079  0  2.307435  0
O  O139  1  0.41883984  0.59706448  0.91249582  1  0  -0.569496  0  2.080164  0  0  -0.511356  0  2.297379  0  0  -0.534876  0  2.281787  0  -1.194929  0  -0.322955  -0.495075  0  2.307427  0
O  O140  1  0.79179653  0.41551478  0.55066118  1  0  -0.729139  0  2.008674  0  0  -0.677562  0  2.26287  0  0  -0.711208  0  2.247757  0  -1.203746  0  -0.395681  -0.659913  0  2.271313  0
O  O141  1  0.20820399  0.58448635  0.44933971  1  0  -0.729176  0  2.00837  0  0  -0.677595  0  2.262563  0  0  -0.711241  0  2.247451  0  -1.203692  0  -0.395707  -0.65995  0  2.271004  0
O  O142  1  0.00153699  0.60076428  0.65989428  1  0  -0.716435  0  2.061575  0  0  -0.664779  0  2.319815  0  0  -0.698127  0  2.306935  0  -1.193591  0  -0.388035  -0.646533  0  2.32722  0
O  O143  1  0.99846556  0.39923881  0.34010513  1  0  -0.716333  0  2.061746  0  0  -0.664661  0  2.319984  0  0  -0.698009  0  2.307102  0  -1.193649  0  -0.388001  -0.646428  0  2.327387  0
O  O144  1  0.41670087  0.62959884  0.68395231  1  0  -0.739554  0  2.015515  0  0  -0.688038  0  2.273033  0  0  -0.720803  0  2.258716  0  -1.214114  0  -0.394136  -0.67087  0  2.281869  0
O  O145  1  0.58329983  0.37039937  0.31604768  1  0  -0.739476  0  2.015622  0  0  -0.68797  0  2.273157  0  0  -0.720733  0  2.258835  0  -1.214275  0  -0.394127  -0.670816  0  2.282004  0
O  O146  1  0.56873975  0.76858138  0.85042912  1  0  -0.612766  0  1.960661  0  0  -0.562674  0  2.187139  0  0  -0.587299  0  2.177092  0  -1.183953  0  -0.322718  -0.546029  0  2.194516  0
O  O147  1  0.43126097  0.23142171  0.14956832  1  0  -0.612732  0  1.960469  0  0  -0.562651  0  2.186864  0  0  -0.587278  0  2.176807  0  -1.183738  0  -0.322697  -0.546009  0  2.194244  0
