# generated using pymatgen
data_ZnH26C28(N3O2)2
_symmetry_space_group_name_H-M   'P 1'
_cell_length_a   10.54361684
_cell_length_b   13.07046223
_cell_length_c   22.01068181
_cell_angle_alpha   89.99981760
_cell_angle_beta   89.99967141
_cell_angle_gamma   102.33937180
_symmetry_Int_Tables_number   1
_chemical_formula_structural   ZnH26C28(N3O2)2
_chemical_formula_sum   'Zn4 H104 C112 N24 O16'
_cell_volume   2963.21868057
_cell_formula_units_Z   4
loop_
 _symmetry_equiv_pos_site_id
 _symmetry_equiv_pos_as_xyz
  1  'x, y, z'
loop_
 _atom_site_type_symbol
 _atom_site_label
 _atom_site_symmetry_multiplicity
 _atom_site_fract_x
 _atom_site_fract_y
 _atom_site_fract_z
 _atom_site_occupancy
 _atom_site_pbe_bader_charge
 _atom_site_pbe_bader_spin_density
 _atom_site_pbe_cm5_charge
 _atom_site_pbe_ddec_charge
 _atom_site_pbe_ddec_spin_density
 _atom_site_pbe_ddec_sum_bond_order
 _atom_site_pbe_magmom
Zn  Zn0  1  0.78269931  0.49032825  0.14168785  1  1.250153  0  0.692495  0.769507  0  2.410294  0
Zn  Zn1  1  0.21730056  0.50967205  0.64168993  1  1.250164  0  0.692505  0.769517  0  2.410365  0
Zn  Zn2  1  0.31078605  0.98955751  0.06912053  1  1.249514  0  0.694205  0.769087  0  2.412718  0
Zn  Zn3  1  0.68921484  0.01044336  0.56912271  1  1.249633  0  0.694201  0.769078  0  2.412725  0
H  H4  1  0.45042971  0.69252672  0.22620208  1  0.079549  0  0.120184  0.094751  0  0.993124  0
H  H5  1  0.54956590  0.30746820  0.72620408  1  0.079674  0  0.120186  0.094815  0  0.993108  0
H  H6  1  0.37470246  0.47830991  0.37843847  1  0.091644  0  0.116106  0.125395  0  0.98398  0
H  H7  1  0.62529484  0.52168778  0.87843850  1  0.091658  0  0.116064  0.125346  0  0.98405  0
H  H8  1  0.21090136  0.50524915  0.45466121  1  0.162014  0  0.106851  0.131112  0  1.041827  0
H  H9  1  0.78909431  0.49474950  0.95466084  1  0.162011  0  0.106814  0.131068  0  1.04189  0
H  H10  1  0.06670356  0.61406950  0.49474593  1  0.087019  0  0.109509  0.117691  0  0.980206  0
H  H11  1  0.93329308  0.38593119  0.99474582  1  0.087025  0  0.109538  0.117729  0  0.980201  0
H  H12  1  0.96296610  0.76671520  0.48311384  1  0.082775  0  0.112938  0.119553  0  1.009025  0
H  H13  1  0.03703107  0.23328325  0.98311421  1  0.08262  0  0.112946  0.119561  0  1.009078  0
H  H14  1  0.09994968  0.98825261  0.33935598  1  0.11918  0  0.121977  0.09823  0  0.979006  0
H  H15  1  0.90004836  0.01174616  0.83935849  1  0.119121  0  0.121959  0.098247  0  0.978955  0
H  H16  1  0.62749984  0.63360568  0.21393921  1  0.189837  0  0.139981  0.107808  0  1.028611  0
H  H17  1  0.37250016  0.36639485  0.71393932  1  0.189843  0  0.139979  0.107807  0  1.028642  0
H  H18  1  0.44558888  0.36694215  0.31673253  1  0.110957  0  0.132598  0.133526  0  0.99382  0
H  H19  1  0.55441004  0.63305525  0.81673345  1  0.111012  0  0.132591  0.133526  0  0.993848  0
H  H20  1  0.63962114  0.31786959  0.24346016  1  0.156902  0  0.133424  0.139459  0  0.978742  0
H  H21  1  0.36037996  0.68212917  0.74346379  1  0.157003  0  0.133379  0.13939  0  0.978776  0
H  H22  1  0.90227208  0.89890096  0.52648410  1  0.154919  0  0.133981  0.097506  0  1.056404  0
H  H23  1  0.09772521  0.10109863  0.02648509  1  0.154862  0  0.133965  0.097464  0  1.056381  0
H  H24  1  0.89365982  0.02302258  0.34858541  1  0.15032  0  0.131753  0.134542  0  1.003859  0
H  H25  1  0.10632858  0.97697602  0.84858600  1  0.150155  0  0.131726  0.134523  0  1.003901  0
H  H26  1  0.72528424  0.10228637  0.42503708  1  0.180726  0  0.125752  0.136013  0  1.001877  0
H  H27  1  0.27470575  0.89771088  0.92503645  1  0.180942  0  0.125755  0.13605  0  1.001963  0
H  H28  1  0.46841685  0.15520261  0.93858758  1  0.10187  0  0.125636  0.107142  0  0.96302  0
H  H29  1  0.53158782  0.84480095  0.43858870  1  0.101947  0  0.125646  0.107182  0  0.962981  0
H  H30  1  0.38873649  0.45566848  0.98793072  1  0.085869  0  0.116595  0.128298  0  0.984549  0
H  H31  1  0.61126500  0.54433232  0.48793174  1  0.085873  0  0.116602  0.128285  0  0.98456  0
H  H32  1  0.24460892  0.53239965  0.91972260  1  0.085342  0  0.109976  0.116491  0  0.978631  0
H  H33  1  0.75539009  0.46759930  0.41972382  1  0.085329  0  0.109946  0.116446  0  0.978629  0
H  H34  1  0.09690191  0.51416436  0.83113674  1  0.096845  0  0.111719  0.119223  0  0.984295  0
H  H35  1  0.90309491  0.48583290  0.33113570  1  0.096759  0  0.111711  0.119208  0  0.984322  0
H  H36  1  0.98048614  0.40521265  0.74722183  1  0.104766  0  0.115656  0.126634  0  1.005683  0
H  H37  1  0.01950976  0.59478446  0.24722029  1  0.104816  0  0.115653  0.126605  0  1.005649  0
H  H38  1  0.06823033  0.10219293  0.71639334  1  0.09068  0  0.117281  0.08496  0  0.999571  0
H  H39  1  0.93177115  0.89780604  0.21639144  1  0.090651  0  0.11729  0.084926  0  0.999583  0
H  H40  1  0.59394365  0.48197334  0.02737771  1  0.170931  0  0.138426  0.106619  0  1.021556  0
H  H41  1  0.40605498  0.51802782  0.52737880  1  0.170945  0  0.138428  0.106654  0  1.021589  0
H  H42  1  0.52507463  0.14878257  0.03900475  1  0.195682  0  0.123932  0.12908  0  1.070575  0
H  H43  1  0.47492744  0.85121776  0.53900593  1  0.195884  0  0.123913  0.129047  0  1.070599  0
H  H44  1  0.70241014  0.23846955  0.12605897  1  0.150265  0  0.127019  0.128622  0  1.002849  0
H  H45  1  0.29758880  0.76153008  0.62606035  1  0.150293  0  0.126982  0.128621  0  1.002833  0
H  H46  1  0.83716433  0.06454827  0.69420764  1  0.235108  0  0.13903  0.119418  0  1.040401  0
H  H47  1  0.16284239  0.93544781  0.19420460  1  0.2352  0  0.139009  0.119418  0  1.040468  0
H  H48  1  0.94504711  0.38167708  0.63442485  1  0.2096  0  0.124059  0.138898  0  1.063344  0
H  H49  1  0.05495247  0.61832171  0.13442271  1  0.209593  0  0.124043  0.138905  0  1.06337  0
H  H50  1  0.77269877  0.26267556  0.55196251  1  0.155341  0  0.124721  0.122855  0  0.9942  0
H  H51  1  0.22730290  0.73731998  0.05196013  1  0.155633  0  0.12474  0.122897  0  0.994213  0
H  H52  1  0.29193918  0.26083663  0.22132008  1  0.05052  0  0.092047  0.073385  0  1.0096  0
H  H53  1  0.70806491  0.73916545  0.72132219  1  0.050626  0  0.092083  0.07346  0  1.00968  0
H  H54  1  0.29100117  0.31784068  0.08762993  1  0.017648  0  0.079071  0.074599  0  1.036305  0
H  H55  1  0.70899892  0.68216550  0.58763079  1  0.017648  0  0.07906  0.074594  0  1.036309  0
H  H56  1  0.39828511  0.37869324  0.14484559  1  0.005183  0  0.079051  0.078211  0  1.012924  0
H  H57  1  0.60171494  0.62131173  0.64484822  1  0.005132  0  0.079061  0.07825  0  1.013131  0
H  H58  1  0.25450035  0.49252259  0.16763052  1  -0.008391  0  0.081626  0.080594  0  1.003591  0
H  H59  1  0.74549899  0.50748063  0.66763206  1  -0.008544  0  0.081625  0.080613  0  1.003612  0
H  H60  1  0.15814137  0.43749697  0.10606787  1  0.034878  0  0.084228  0.084673  0  1.009682  0
H  H61  1  0.84185692  0.56250671  0.60606859  1  0.034736  0  0.084262  0.084724  0  1.009706  0
H  H62  1  0.05658665  0.35991136  0.29037678  1  0.032853  0  0.089781  0.126548  0  1.007095  0
H  H63  1  0.94341950  0.64008710  0.79037662  1  0.032804  0  0.089796  0.126583  0  1.007028  0
H  H64  1  0.14629449  0.48146492  0.26152600  1  0.020279  0  0.080403  0.105875  0  1.041601  0
H  H65  1  0.85371130  0.51853453  0.76152632  1  0.02024  0  0.080402  0.105872  0  1.041653  0
H  H66  1  0.22448062  0.37602519  0.27238208  1  -0.020035  0  0.082854  0.110334  0  1.041092  0
H  H67  1  0.77552444  0.62397183  0.77238423  1  -0.019934  0  0.082853  0.110314  0  1.041132  0
H  H68  1  0.05070631  0.08810756  0.22582157  1  -0.001347  0  0.080015  0.108723  0  1.036698  0
H  H69  1  0.94930113  0.91189296  0.72582224  1  -0.001389  0  0.080014  0.108733  0  1.036739  0
H  H70  1  0.93890234  0.17038575  0.24178116  1  0.076321  0  0.086224  0.129807  0  1.013689  0
H  H71  1  0.06110239  0.82961228  0.74178033  1  0.076454  0  0.086245  0.129896  0  1.013777  0
H  H72  1  0.09336856  0.19149870  0.27862123  1  -0.013807  0  0.083567  0.115953  0  1.016181  0
H  H73  1  0.90663910  0.80850143  0.77862131  1  -0.013771  0  0.083545  0.115975  0  1.016336  0
H  H74  1  0.92293595  0.20340088  0.12915492  1  0.047225  0  0.088388  0.125925  0  1.025317  0
H  H75  1  0.07706563  0.79660188  0.62915503  1  0.047179  0  0.088405  0.125933  0  1.025279  0
H  H76  1  0.03125717  0.11891165  0.11621342  1  -5.2e-05  0  0.084456  0.116149  0  1.025731  0
H  H77  1  0.96874515  0.88108965  0.61621364  1  -8.5e-05  0  0.084417  0.116104  0  1.025738  0
H  H78  1  0.06573969  0.24755815  0.08509063  1  0.029904  0  0.083124  0.113211  0  1.026463  0
H  H79  1  0.93426402  0.75244340  0.58508983  1  0.029785  0  0.083102  0.113182  0  1.026415  0
H  H80  1  0.87247137  0.82690238  0.08504264  1  0.051016  0  0.09574  0.084389  0  0.985282  0
H  H81  1  0.12753025  0.17309837  0.58504424  1  0.050817  0  0.095746  0.084364  0  0.985322  0
H  H82  1  0.82764510  0.74132796  0.96134912  1  0.038908  0  0.082508  0.085113  0  1.016541  0
H  H83  1  0.17235486  0.25867302  0.46135052  1  0.038892  0  0.082487  0.08504  0  1.016626  0
H  H84  1  0.91805129  0.86495467  0.98388975  1  0.01199  0  0.076586  0.068478  0  1.033433  0
H  H85  1  0.08195197  0.13504540  0.48389163  1  0.012019  0  0.076564  0.068456  0  1.033415  0
H  H86  1  0.74288103  0.92658963  0.93538076  1  0.000978  0  0.082376  0.082059  0  1.009298  0
H  H87  1  0.25712139  0.07341236  0.43538000  1  0.001007  0  0.082287  0.081957  0  1.009284  0
H  H88  1  0.63271676  0.80616634  0.94665691  1  0.040349  0  0.084354  0.084087  0  1.014358  0
H  H89  1  0.36728609  0.19383792  0.44665699  1  0.042598  0  0.084372  0.084107  0  1.014471  0
H  H90  1  0.76046388  0.06457832  0.01201715  1  0.008774  0  0.07939  0.109466  0  1.02534  0
H  H91  1  0.23953915  0.93542457  0.51201700  1  0.008803  0  0.079372  0.109425  0  1.025405  0
H  H92  1  0.85334157  0.99142776  0.05447326  1  -0.00323  0  0.079749  0.104318  0  1.039479  0
H  H93  1  0.14666067  0.00857401  0.55447330  1  -0.003194  0  0.079772  0.104314  0  1.039474  0
H  H94  1  0.72234959  0.03571763  0.08930743  1  0.039715  0  0.088983  0.126881  0  1.018155  0
H  H95  1  0.27765217  0.96428387  0.58930667  1  0.0397  0  0.089009  0.126881  0  1.018173  0
H  H96  1  0.74158031  0.90688563  0.15158634  1  0.041478  0  0.085454  0.118637  0  1.018496  0
H  H97  1  0.25842037  0.09311460  0.65158682  1  0.04153  0  0.085467  0.118679  0  1.018506  0
H  H98  1  0.66711818  0.77646842  0.16933250  1  0.023497  0  0.077629  0.107398  0  1.057087  0
H  H99  1  0.33288301  0.22353091  0.66933298  1  0.0235  0  0.077629  0.107376  0  1.057071  0
H  H100  1  0.56968845  0.86816669  0.14999375  1  0.050623  0  0.091534  0.136378  0  0.990381  0
H  H101  1  0.43031054  0.13183432  0.64999323  1  0.050625  0  0.091539  0.136386  0  0.990434  0
H  H102  1  0.56054341  0.65081513  0.09158142  1  0.016816  0  0.077596  0.104599  0  1.041095  0
H  H103  1  0.43945756  0.34918713  0.59158183  1  0.016794  0  0.077577  0.104521  0  1.041127  0
H  H104  1  0.54414519  0.68980282  0.01477461  1  0.03789  0  0.082537  0.118293  0  1.017365  0
H  H105  1  0.45585685  0.31020004  0.51477550  1  0.038028  0  0.082579  0.118335  0  1.017351  0
H  H106  1  0.45739568  0.73737490  0.07347164  1  0.038714  0  0.083311  0.116494  0  1.036888  0
H  H107  1  0.54260535  0.26262671  0.57347238  1  0.038714  0  0.083321  0.116487  0  1.036904  0
C  C108  1  0.40519002  0.66914177  0.27017990  1  0.624144  0  0.055067  0.016798  0  3.968365  0
C  C109  1  0.59480765  0.33085596  0.77018083  1  0.623937  0  0.055107  0.016795  0  3.96825  0
C  C110  1  0.42704068  0.57851727  0.30018266  1  0.204403  0  0.096509  0.118332  0  4.03842  0
C  C111  1  0.57295486  0.42148100  0.80018439  1  0.20447  0  0.096482  0.118238  0  4.03855  0
C  C112  1  0.36235007  0.54807116  0.35398257  1  0.040833  0  -0.0724  -0.180989  0  3.950455  0
C  C113  1  0.63764472  0.45192668  0.85398269  1  0.040859  0  -0.072331  -0.180898  0  3.950487  0
C  C114  1  0.27781120  0.60834896  0.37749348  1  0.004953  0  -0.005257  0.052392  0  4.028095  0
C  C115  1  0.72219146  0.39165114  0.87749440  1  0.00491  0  -0.005314  0.052303  0  4.028249  0
C  C116  1  0.20379948  0.57770480  0.43151875  1  -0.063245  0  -0.089594  -0.132203  0  3.964041  0
C  C117  1  0.79619631  0.42229324  0.93151895  1  -0.063262  0  -0.089549  -0.132136  0  3.96412  0
C  C118  1  0.12343090  0.63798485  0.45370121  1  -0.068981  0  -0.082963  -0.109687  0  3.974377  0
C  C119  1  0.87656802  0.36201540  0.95370176  1  -0.069075  0  -0.082994  -0.109714  0  3.974292  0
C  C120  1  0.11199524  0.73290076  0.42382928  1  0.025148  0  -0.004594  0.050357  0  4.035864  0
C  C121  1  0.88800181  0.26709814  0.92382998  1  0.025059  0  -0.004618  0.050312  0  4.035953  0
C  C122  1  0.02534300  0.79362072  0.44429531  1  -0.010276  0  -0.071191  -0.180509  0  3.933886  0
C  C123  1  0.97465244  0.20638035  0.94429770  1  -0.01018  0  -0.07116  -0.180404  0  3.933943  0
C  C124  1  0.01835913  0.88466686  0.41357697  1  0.319363  0  0.102932  0.124457  0  4.02161  0
C  C125  1  0.98163541  0.11533287  0.91357860  1  0.31901  0  0.10291  0.124296  0  4.021645  0
C  C126  1  0.10043066  0.91466732  0.36295050  1  0.566304  0  0.055024  0.015303  0  3.981947  0
C  C127  1  0.89956515  0.08533125  0.86295242  1  0.566575  0  0.055086  0.015382  0  3.981925  0
C  C128  1  0.18529183  0.76687094  0.37022971  1  0.494347  0  0.115023  0.11222  0  3.980591  0
C  C129  1  0.81470559  0.23312681  0.87023113  1  0.494427  0  0.115093  0.112199  0  3.98059  0
C  C130  1  0.26760398  0.70133539  0.34549804  1  0.538631  0  0.117624  0.114183  0  3.978164  0
C  C131  1  0.73239397  0.29866334  0.84550001  1  0.538815  0  0.117654  0.114245  0  3.978163  0
C  C132  1  0.60364787  0.55432056  0.23133951  1  0.949724  0  0.149525  0.098106  0  3.894294  0
C  C133  1  0.39635074  0.44567904  0.73134121  1  0.949999  0  0.149525  0.098085  0  3.894297  0
C  C134  1  0.51169230  0.41424824  0.28504551  1  0.283279  0  0.006608  -0.105969  0  3.905158  0
C  C135  1  0.48830516  0.58574938  0.78504715  1  0.28325  0  0.006592  -0.106079  0  3.905104  0
C  C136  1  0.60644887  0.39036726  0.24846861  1  0.435535  0  0.01627  -0.005474  0  3.957064  0
C  C137  1  0.39354989  0.60963377  0.74846911  1  0.435409  0  0.016341  -0.005292  0  3.956969  0
C  C138  1  0.87821858  0.94460702  0.48889234  1  0.983182  0  0.143111  0.087212  0  3.901708  0
C  C139  1  0.12177660  0.05539136  0.98889327  1  0.983141  0  0.143146  0.087236  0  3.901673  0
C  C140  1  0.87486177  0.01352642  0.39678613  1  0.273255  0  0.011613  -0.097623  0  3.892766  0
C  C141  1  0.12512976  0.98647185  0.89678529  1  0.273773  0  0.011726  -0.09758  0  3.892739  0
C  C142  1  0.79089227  0.05058629  0.43416579  1  0.412025  0  0.009961  -0.017563  0  3.961113  0
C  C143  1  0.20910444  0.94941174  0.93416524  1  0.411479  0  0.009906  -0.017627  0  3.961355  0
C  C144  1  0.41765923  0.21879954  0.93088451  1  0.631017  0  0.057411  0.022363  0  3.948821  0
C  C145  1  0.58234287  0.78120093  0.43088561  1  0.630978  0  0.05735  0.022239  0  3.948703  0
C  C146  1  0.43985159  0.30684412  0.96993726  1  0.274124  0  0.102904  0.133924  0  4.031229  0
C  C147  1  0.56014939  0.69315760  0.46993768  1  0.274102  0  0.102914  0.133909  0  4.031257  0
C  C148  1  0.37606593  0.38711536  0.95843831  1  -0.023258  0  -0.075221  -0.191166  0  3.936888  0
C  C149  1  0.62393503  0.61288566  0.45843825  1  -0.023224  0  -0.075219  -0.191148  0  3.936893  0
C  C150  1  0.29257600  0.37955611  0.90787071  1  0.014256  0  -0.007335  0.050715  0  4.043872  0
C  C151  1  0.70742108  0.62044213  0.40786995  1  0.013842  0  -0.007361  0.050742  0  4.043757  0
C  C152  1  0.22711184  0.46128956  0.89220969  1  -0.052597  0  -0.087751  -0.131417  0  4.000028  0
C  C153  1  0.77288585  0.53871037  0.39220845  1  -0.05216  0  -0.087708  -0.131396  0  3.99998  0
C  C154  1  0.14530304  0.45124117  0.84348347  1  -0.043703  0  -0.080096  -0.106036  0  3.980661  0
C  C155  1  0.85469380  0.54875677  0.34348154  1  -0.043511  0  -0.080049  -0.105975  0  3.980719  0
C  C156  1  0.12086146  0.35783706  0.80752332  1  0.000129  0  -0.003331  0.049259  0  4.02202  0
C  C157  1  0.87913530  0.64215882  0.30752115  1  2.1e-05  0  -0.003391  0.049202  0  4.022054  0
C  C158  1  0.03186401  0.34391083  0.75889025  1  -0.005658  0  -0.064888  -0.157672  0  3.889483  0
C  C159  1  0.96813173  0.65608619  0.25888826  1  -0.006059  0  -0.064891  -0.15768  0  3.889509  0
C  C160  1  0.01037376  0.25106170  0.72694406  1  0.347621  0  0.111211  0.151158  0  4.00882  0
C  C161  1  0.98962567  0.74893717  0.22694229  1  0.348088  0  0.111241  0.151197  0  4.008706  0
C  C162  1  0.08134605  0.17458782  0.74281133  1  0.610312  0  0.059905  0.021829  0  3.978779  0
C  C163  1  0.91865335  0.82541170  0.24280916  1  0.610212  0  0.059891  0.021848  0  3.978669  0
C  C164  1  0.18526089  0.27486967  0.82106628  1  0.525092  0  0.112706  0.103825  0  3.997936  0
C  C165  1  0.81473361  0.72512920  0.32106458  1  0.525486  0  0.112737  0.103838  0  3.997883  0
C  C166  1  0.27469815  0.28657501  0.87189556  1  0.4905  0  0.111212  0.104773  0  3.99069  0
C  C167  1  0.72529983  0.71342508  0.37189367  1  0.490105  0  0.111229  0.104859  0  3.990612  0
C  C168  1  0.59589566  0.40423397  0.04373984  1  0.976169  0  0.147126  0.096119  0  3.916755  0
C  C169  1  0.40410614  0.59576554  0.54374124  1  0.976178  0  0.147085  0.095947  0  3.9169  0
C  C170  1  0.56507316  0.23059239  0.04867719  1  0.319057  0  0.010975  -0.075919  0  3.872197  0
C  C171  1  0.43492877  0.76940786  0.54867864  1  0.318945  0  0.011009  -0.075844  0  3.872253  0
C  C172  1  0.65278467  0.27514927  0.09196556  1  0.378655  0  0.007697  -0.020984  0  3.949683  0
C  C173  1  0.34721590  0.72485142  0.59196733  1  0.378325  0  0.007704  -0.021049  0  3.949804  0
C  C174  1  0.84847808  0.13325846  0.66530250  1  0.940306  0  0.151676  0.099538  0  3.880265  0
C  C175  1  0.15152734  0.86673860  0.16530008  1  0.940506  0  0.151665  0.099427  0  3.880478  0
C  C176  1  0.89806972  0.29924361  0.63379530  1  0.246521  0  0.003887  -0.091855  0  3.873649  0
C  C177  1  0.10193043  0.70075363  0.13379287  1  0.246433  0  0.003866  -0.091999  0  3.873767  0
C  C178  1  0.81331603  0.24003106  0.59384714  1  0.358963  0  0.001116  -0.030648  0  3.980822  0
C  C179  1  0.18668259  0.75996569  0.09384346  1  0.358536  0  0.001162  -0.030598  0  3.980884  0
C  C180  1  0.96281058  0.38324290  0.18154562  1  1.532746  0  0.202778  0.56471  0  4.136957  0
C  C181  1  0.03718949  0.61675632  0.68154391  1  1.532751  0  0.202705  0.564601  0  4.137063  0
C  C182  1  0.09772507  0.35991235  0.19262100  1  0.034335  0  -0.012434  0.020084  0  3.701501  0
C  C183  1  0.90227618  0.64008836  0.69262186  1  0.034301  0  -0.012392  0.020217  0  3.701352  0
C  C184  1  0.09959464  0.24052443  0.18326565  1  0.092399  0  -0.004399  0.203169  0  3.689936  0
C  C185  1  0.90040711  0.75947401  0.68326493  1  0.092523  0  -0.004514  0.203169  0  3.689842  0
C  C186  1  0.24849091  0.24671598  0.17583178  1  -0.03677  0  -0.092672  -0.166469  0  3.8111  0
C  C187  1  0.75150906  0.75328640  0.67583466  1  -0.037151  0  -0.092747  -0.16662  0  3.811354  0
C  C188  1  0.29613721  0.34275738  0.13537172  1  -0.017446  0  -0.174934  -0.159084  0  3.907128  0
C  C189  1  0.70385990  0.65724294  0.63537401  1  -0.017362  0  -0.174898  -0.159058  0  3.907262  0
C  C190  1  0.20362774  0.41757313  0.14801473  1  -0.011685  0  -0.171181  -0.18676  0  3.870493  0
C  C191  1  0.79637243  0.58242869  0.64801508  1  -0.01131  0  -0.171262  -0.186937  0  3.870651  0
C  C192  1  0.13280963  0.39589658  0.25830221  1  -0.036426  0  -0.243639  -0.398184  0  3.927446  0
C  C193  1  0.86719297  0.60410130  0.75830278  1  -0.036463  0  -0.243618  -0.398174  0  3.927443  0
C  C194  1  0.04179577  0.16871510  0.23572442  1  -0.063196  0  -0.249947  -0.42042  0  3.927435  0
C  C195  1  0.95821019  0.83128377  0.73572568  1  -0.063281  0  -0.249941  -0.420594  0  3.927686  0
C  C196  1  0.02575260  0.20059777  0.12481099  1  -0.098687  0  -0.247528  -0.416276  0  3.889705  0
C  C197  1  0.97425304  0.79940585  0.62481181  1  -0.098597  0  -0.247456  -0.416211  0  3.889621  0
C  C198  1  0.52223277  0.91971671  0.02179692  1  1.541408  0  0.204248  0.568228  0  4.127137  0
C  C199  1  0.47777203  0.08028612  0.52179728  1  1.541571  0  0.204178  0.568074  0  4.127339  0
C  C200  1  0.66167226  0.90296403  0.02720912  1  0.057619  0  -0.013643  0.020316  0  3.728533  0
C  C201  1  0.33833285  0.09704033  0.52720892  1  0.057715  0  -0.013626  0.020284  0  3.728636  0
C  C202  1  0.66433224  0.80991385  0.07320778  1  0.039146  0  -0.001415  0.202065  0  3.664251  0
C  C203  1  0.33566784  0.19008775  0.57320786  1  0.039158  0  -0.001376  0.201971  0  3.664295  0
C  C204  1  0.79700918  0.78027508  0.05574746  1  -0.0037  0  -0.0876  -0.163042  0  3.768078  0
C  C205  1  0.20299246  0.21972434  0.55574831  1  -0.003293  0  -0.087635  -0.162975  0  3.768002  0
C  C206  1  0.82317373  0.81096349  0.98838230  1  -0.04225  0  -0.174577  -0.158766  0  3.907086  0
C  C207  1  0.17682700  0.18903808  0.48838336  1  -0.042466  0  -0.174499  -0.15861  0  3.907027  0
C  C208  1  0.71192254  0.86274687  0.96821719  1  -0.017762  0  -0.170343  -0.186457  0  3.906197  0
C  C209  1  0.28807943  0.13725486  0.46821668  1  -0.020042  0  -0.170306  -0.186427  0  3.90629  0
C  C210  1  0.75476296  0.00436356  0.04735415  1  -0.045304  0  -0.249607  -0.395139  0  3.935268  0
C  C211  1  0.24524089  0.99563673  0.54735478  1  -0.045514  0  -0.24963  -0.395035  0  3.935291  0
C  C212  1  0.66011831  0.84256431  0.13972409  1  -0.109146  0  -0.246804  -0.415022  0  3.912051  0
C  C213  1  0.33988234  0.15743523  0.63972514  1  -0.109227  0  -0.246816  -0.415011  0  3.912033  0
C  C214  1  0.55004098  0.71652722  0.06218156  1  -0.100846  0  -0.251794  -0.420766  0  3.920262  0
C  C215  1  0.44996060  0.28347605  0.56218115  1  -0.101029  0  -0.251823  -0.420668  0  3.920181  0
C  C216  1  0.79691178  0.66606813  0.06961766  1  1.512039  0  0.19962  0.596111  0  4.162137  0
C  C217  1  0.20308815  0.33393272  0.56961738  1  1.512086  0  0.199596  0.596054  0  4.162113  0
C  C218  1  0.28047768  0.14369559  0.15517414  1  1.565987  0  0.196648  0.59619  0  4.162143  0
C  C219  1  0.71953039  0.85630782  0.65517782  1  1.565703  0  0.196628  0.596013  0  4.162362  0
N  N220  1  0.32960481  0.72877326  0.29219017  1  -1.15488  0  -0.301882  -0.239276  0  3.32207  0
N  N221  1  0.67039160  0.27122429  0.79219191  1  -1.155041  0  -0.301944  -0.239334  0  3.322041  0
N  N222  1  0.17919367  0.85718024  0.34140636  1  -1.168352  0  -0.302626  -0.247498  0  3.33448  0
N  N223  1  0.82080605  0.14281776  0.84140839  1  -1.168142  0  -0.302677  -0.247503  0  3.334543  0
N  N224  1  0.51031503  0.51892918  0.27384494  1  -1.246079  0  -0.220519  0.017075  0  3.805248  0
N  N225  1  0.48968220  0.48106696  0.77384587  1  -1.246123  0  -0.220491  0.017209  0  3.805155  0
N  N226  1  0.66269893  0.47841354  0.21553353  1  -1.239684  0  -0.349344  -0.277146  0  3.603957  0
N  N227  1  0.33730029  0.52158775  0.71553572  1  -1.23994  0  -0.349358  -0.277207  0  3.604039  0
N  N228  1  0.93012787  0.94609407  0.43208985  1  -1.265045  0  -0.222605  0.036728  0  3.777001  0
N  N229  1  0.06986621  0.05390474  0.93209229  1  -1.265041  0  -0.222673  0.036766  0  3.776951  0
N  N230  1  0.79415918  0.00675097  0.49123903  1  -1.256764  0  -0.350713  -0.279021  0  3.597441  0
N  N231  1  0.20583522  0.99324817  0.99123840  1  -1.256517  0  -0.350733  -0.279039  0  3.597606  0
N  N232  1  0.33768704  0.20880185  0.88400876  1  -1.17136  0  -0.302341  -0.246981  0  3.34733  0
N  N233  1  0.66231438  0.79119740  0.38400826  1  -1.17143  0  -0.302324  -0.24699  0  3.347258  0
N  N234  1  0.16515086  0.18530095  0.78810331  1  -1.194709  0  -0.309727  -0.263707  0  3.36006  0
N  N235  1  0.83484866  0.81469745  0.28810184  1  -1.194617  0  -0.309767  -0.263745  0  3.360065  0
N  N236  1  0.52852340  0.31326946  0.01858495  1  -1.265991  0  -0.221582  0.007435  0  3.812918  0
N  N237  1  0.47147896  0.68673103  0.51858600  1  -1.265959  0  -0.221564  0.007513  0  3.812969  0
N  N238  1  0.67152442  0.38307117  0.08794920  1  -1.267525  0  -0.354324  -0.279034  0  3.637965  0
N  N239  1  0.32847581  0.61692798  0.58795077  1  -1.267339  0  -0.354284  -0.2789  0  3.637947  0
N  N240  1  0.92101223  0.23008089  0.67847273  1  -1.256831  0  -0.220976  0.016445  0  3.800438  0
N  N241  1  0.07898884  0.76991836  0.17847069  1  -1.256902  0  -0.220903  0.016654  0  3.800311  0
N  N242  1  0.78316974  0.13725637  0.61414015  1  -1.235292  0  -0.35634  -0.275934  0  3.61741  0
N  N243  1  0.21683410  0.86273950  0.11413710  1  -1.235355  0  -0.356396  -0.275958  0  3.617409  0
O  O244  1  0.95995181  0.46591345  0.14865288  1  -1.178121  0  -0.335965  -0.558963  0  2.348881  0
O  O245  1  0.04004777  0.53408601  0.64865313  1  -1.178173  0  -0.335924  -0.558924  0  2.348988  0
O  O246  1  0.86381087  0.32792933  0.20519933  1  -1.188988  0  -0.325934  -0.557544  0  2.128689  0
O  O247  1  0.13619152  0.67206895  0.70519723  1  -1.188926  0  -0.325908  -0.557522  0  2.128698  0
O  O248  1  0.28303104  0.12826645  0.09658487  1  -1.193712  0  -0.347576  -0.585046  0  2.335926  0
O  O249  1  0.71696795  0.87173574  0.59658716  1  -1.193593  0  -0.347541  -0.584967  0  2.336026  0
O  O250  1  0.29809121  0.07889905  0.19417524  1  -1.188477  0  -0.341783  -0.56181  0  2.087573  0
O  O251  1  0.70192241  0.92110569  0.69417839  1  -1.188135  0  -0.341739  -0.561674  0  2.087597  0
O  O252  1  0.49469902  0.98959696  0.05933685  1  -1.174861  0  -0.339343  -0.555249  0  2.345382  0
O  O253  1  0.50530183  0.01040711  0.55933635  1  -1.174778  0  -0.339285  -0.555129  0  2.345463  0
O  O254  1  0.44225443  0.86667101  0.98624880  1  -1.196131  0  -0.332338  -0.562084  0  2.121536  0
O  O255  1  0.55774920  0.13333452  0.48624938  1  -1.19626  0  -0.332351  -0.562062  0  2.121604  0
O  O256  1  0.79779587  0.60057436  0.02834458  1  -1.197092  0  -0.329341  -0.568373  0  2.171758  0
O  O257  1  0.20220465  0.39942682  0.52834463  1  -1.197094  0  -0.329316  -0.568314  0  2.17186  0
O  O258  1  0.79260017  0.64184112  0.12723289  1  -1.169311  0  -0.346379  -0.584651  0  2.336295  0
O  O259  1  0.20739934  0.35816085  0.62723392  1  -1.16936  0  -0.346385  -0.584696  0  2.336282  0
