# generated using pymatgen
data_AgH7C8O5
_symmetry_space_group_name_H-M   'P 1'
_cell_length_a   6.59580326
_cell_length_b   10.47968657
_cell_length_c   11.72780067
_cell_angle_alpha   96.47600610
_cell_angle_beta   90.00004930
_cell_angle_gamma   90.00005769
_symmetry_Int_Tables_number   1
_chemical_formula_structural   AgH7C8O5
_chemical_formula_sum   'Ag4 H28 C32 O20'
_cell_volume   805.47585474
_cell_formula_units_Z   4
loop_
 _symmetry_equiv_pos_site_id
 _symmetry_equiv_pos_as_xyz
  1  'x, y, z'
loop_
 _atom_site_type_symbol
 _atom_site_label
 _atom_site_symmetry_multiplicity
 _atom_site_fract_x
 _atom_site_fract_y
 _atom_site_fract_z
 _atom_site_occupancy
 _atom_site_hle17_bader_spin_density
 _atom_site_hle17_ddec_charge
 _atom_site_hle17_ddec_spin_density
 _atom_site_hle17_ddec_sum_bond_order
 _atom_site_hle17_magmom
 _atom_site_hse06_10hf_bader_spin_density
 _atom_site_hse06_10hf_ddec_charge
 _atom_site_hse06_10hf_ddec_spin_density
 _atom_site_hse06_10hf_ddec_sum_bond_order
 _atom_site_hse06_10hf_magmom
 _atom_site_hse06_bader_spin_density
 _atom_site_hse06_ddec_charge
 _atom_site_hse06_ddec_spin_density
 _atom_site_hse06_ddec_sum_bond_order
 _atom_site_hse06_magmom
 _atom_site_pbe_bader_spin_density
 _atom_site_pbe_cm5_charge
 _atom_site_pbe_ddec_charge
 _atom_site_pbe_ddec_spin_density
 _atom_site_pbe_ddec_sum_bond_order
 _atom_site_pbe_magmom
Ag  Ag0  1  0.00142743  0.06589126  0.64977862  1  0  0.683676  0  1.411665  0  0  0.599996  0  1.821212  0  0  0.621684  0  1.775446  0  0  0.524641  0.583418  0  1.853425  0
Ag  Ag1  1  0.50142412  0.43410664  0.85022324  1  0  0.683677  0  1.411599  0  0  0.599975  0  1.821141  0  0  0.621659  0  1.775372  0  0  0.524624  0.583397  0  1.853358  0
Ag  Ag2  1  0.99858795  0.93410311  0.35022724  1  0  0.683713  0  1.411563  0  0  0.600055  0  1.821099  0  0  0.621741  0  1.775328  0  0  0.524653  0.583482  0  1.853317  0
Ag  Ag3  1  0.49857610  0.56589739  0.14976912  1  0  0.683777  0  1.411597  0  0  0.6001  0  1.821139  0  0  0.621777  0  1.775367  0  0  0.524657  0.583527  0  1.853358  0
H  H4  1  0.52472057  0.14525750  0.24633845  1  0  0.412183  0  0.878224  0  0  0.380448  0  0.957341  0  0  0.39369  0  0.938571  0  0  0.301515  0.371138  0  0.96867  0
H  H5  1  0.02471932  0.35473690  0.25366243  1  0  0.41227  0  0.878108  0  0  0.380543  0  0.957207  0  0  0.393786  0  0.938436  0  0  0.301542  0.371233  0  0.968535  0
H  H6  1  0.47527056  0.85474363  0.75365787  1  0  0.412297  0  0.87809  0  0  0.380551  0  0.957197  0  0  0.393794  0  0.938426  0  0  0.301504  0.371237  0  0.968552  0
H  H7  1  0.97527939  0.64525365  0.74633707  1  0  0.412285  0  0.878058  0  0  0.380531  0  0.957216  0  0  0.393774  0  0.938446  0  0  0.301536  0.371219  0  0.968527  0
H  H8  1  0.22907248  0.11634766  0.84706209  1  0  0.134452  0  0.948249  0  0  0.139001  0  1.016086  0  0  0.142812  0  1.013019  0  0  0.111374  0.136137  0  1.018568  0
H  H9  1  0.72907312  0.38365735  0.65294119  1  0  0.134406  0  0.948235  0  0  0.138969  0  1.016071  0  0  0.142775  0  1.013005  0  0  0.111373  0.136103  0  1.018554  0
H  H10  1  0.77093077  0.88365919  0.15294762  1  0  0.134428  0  0.948292  0  0  0.138984  0  1.016108  0  0  0.14279  0  1.01304  0  0  0.111371  0.136119  0  1.018591  0
H  H11  1  0.27092710  0.61634473  0.34705780  1  0  0.134405  0  0.948276  0  0  0.138958  0  1.016113  0  0  0.142765  0  1.013049  0  0  0.111371  0.136093  0  1.018597  0
H  H12  1  0.05585615  0.22869136  0.05378290  1  0  0.11057  0  0.932747  0  0  0.120323  0  0.989393  0  0  0.123003  0  0.987973  0  0  0.107843  0.118357  0  0.990607  0
H  H13  1  0.55586424  0.27130472  0.44621584  1  0  0.110571  0  0.9328  0  0  0.120321  0  0.989436  0  0  0.122998  0  0.988024  0  0  0.107832  0.118355  0  0.990649  0
H  H14  1  0.94413952  0.77130880  0.94621844  1  0  0.110565  0  0.932749  0  0  0.120324  0  0.989394  0  0  0.123005  0  0.987976  0  0  0.107858  0.118359  0  0.990605  0
H  H15  1  0.44414356  0.72869353  0.55378190  1  0  0.110542  0  0.93279  0  0  0.120292  0  0.989445  0  0  0.122973  0  0.988027  0  0  0.107852  0.118325  0  0.990657  0
H  H16  1  0.57972095  0.06918798  0.84241532  1  0  0.07336  0  0.930456  0  0  0.083142  0  0.991362  0  0  0.08422  0  0.990315  0  0  0.116004  0.082165  0  0.992523  0
H  H17  1  0.07972108  0.43080980  0.65758159  1  0  0.073357  0  0.93046  0  0  0.083143  0  0.991366  0  0  0.084221  0  0.99032  0  0  0.116006  0.082167  0  0.992527  0
H  H18  1  0.42028230  0.93081411  0.15758196  1  0  0.073361  0  0.93043  0  0  0.083181  0  0.99129  0  0  0.084259  0  0.990243  0  0  0.11601  0.082204  0  0.992453  0
H  H19  1  0.92027915  0.56918558  0.34241328  1  0  0.073327  0  0.930395  0  0  0.08314  0  0.991301  0  0  0.08422  0  0.990251  0  0  0.116001  0.082164  0  0.992464  0
H  H20  1  0.83769727  0.05252651  0.03173301  1  0  0.097838  0  0.953045  0  0  0.11085  0  1.011547  0  0  0.111229  0  1.014005  0  0  0.108364  0.110532  0  1.010011  0
H  H21  1  0.33770428  0.44747407  0.46826497  1  0  0.097796  0  0.953045  0  0  0.110808  0  1.011589  0  0  0.11119  0  1.01405  0  0  0.108334  0.110488  0  1.010053  0
H  H22  1  0.16229083  0.94748133  0.96826742  1  0  0.097731  0  0.953099  0  0  0.110724  0  1.011637  0  0  0.111108  0  1.014098  0  0  0.108294  0.110405  0  1.010101  0
H  H23  1  0.66228987  0.55251842  0.53172961  1  0  0.097758  0  0.953069  0  0  0.110767  0  1.011596  0  0  0.11115  0  1.014058  0  0  0.108306  0.110446  0  1.01006  0
H  H24  1  0.93420029  0.93344586  0.82804045  1  0  0.137318  0  0.943434  0  0  0.142876  0  1.0082  0  0  0.146341  0  1.005797  0  0  0.114192  0.140283  0  1.010165  0
H  H25  1  0.43419742  0.56655237  0.67196478  1  0  0.137212  0  0.943564  0  0  0.142764  0  1.008338  0  0  0.146228  0  1.005938  0  0  0.114147  0.140175  0  1.010296  0
H  H26  1  0.06580599  0.06655715  0.17196716  1  0  0.137346  0  0.943425  0  0  0.1429  0  1.008213  0  0  0.146364  0  1.005812  0  0  0.114203  0.140314  0  1.010172  0
H  H27  1  0.56580280  0.43344588  0.32803040  1  0  0.137352  0  0.943502  0  0  0.142928  0  1.008249  0  0  0.146392  0  1.005849  0  0  0.114217  0.14034  0  1.010211  0
H  H28  1  0.02186596  0.34481678  0.85523857  1  0  0.08077  0  0.921371  0  0  0.086931  0  0.984725  0  0  0.088972  0  0.982696  0  0  0.114268  0.085191  0  0.986601  0
H  H29  1  0.52187826  0.15518640  0.64476088  1  0  0.080801  0  0.921414  0  0  0.086966  0  0.984695  0  0  0.089025  0  0.982684  0  0  0.114277  0.08522  0  0.986575  0
H  H30  1  0.97813123  0.65518721  0.14476402  1  0  0.080799  0  0.921383  0  0  0.086974  0  0.98466  0  0  0.089031  0  0.982645  0  0  0.114303  0.08523  0  0.986541  0
H  H31  1  0.47812348  0.84481376  0.35523961  1  0  0.08083  0  0.921414  0  0  0.086974  0  0.9847  0  0  0.089034  0  0.982693  0  0  0.114277  0.08523  0  0.98658  0
C  C32  1  0.57674038  0.15442342  0.07828898  1  0  0.685795  0  3.769221  0  0  0.631776  0  4.085172  0  0  0.664613  0  4.07664  0  0  0.229751  0.609355  0  4.090456  0
C  C33  1  0.07675506  0.34557216  0.42171186  1  0  0.686125  0  3.769092  0  0  0.632085  0  4.085102  0  0  0.664918  0  4.076572  0  0  0.229864  0.609665  0  4.090387  0
C  C34  1  0.42324316  0.84557866  0.92171171  1  0  0.686121  0  3.769312  0  0  0.632069  0  4.085289  0  0  0.664904  0  4.076756  0  0  0.229802  0.609648  0  4.090573  0
C  C35  1  0.92324516  0.65442128  0.57828538  1  0  0.686152  0  3.769081  0  0  0.632064  0  4.085141  0  0  0.664897  0  4.076611  0  0  0.229891  0.609644  0  4.090426  0
C  C36  1  0.83036438  0.37571103  0.06784419  1  0  0.686588  0  3.827829  0  0  0.636104  0  4.124506  0  0  0.669048  0  4.120473  0  0  0.211786  0.613677  0  4.126195  0
C  C37  1  0.33037784  0.12428937  0.43215817  1  0  0.686357  0  3.828005  0  0  0.635924  0  4.124648  0  0  0.66887  0  4.120614  0  0  0.211701  0.613498  0  4.12633  0
C  C38  1  0.16963735  0.62429297  0.93215584  1  0  0.686609  0  3.828016  0  0  0.636116  0  4.124686  0  0  0.669066  0  4.120646  0  0  0.211764  0.613686  0  4.126375  0
C  C39  1  0.66963299  0.87570213  0.56784483  1  0  0.686466  0  3.827963  0  0  0.636025  0  4.124585  0  0  0.668975  0  4.12055  0  0  0.211731  0.613596  0  4.126268  0
C  C40  1  0.06702781  0.12979273  0.83720833  1  0  -0.167315  0  3.6386  0  0  -0.192452  0  3.928039  0  0  -0.191415  0  3.936168  0  0  -0.133442  -0.193085  0  3.922404  0
C  C41  1  0.56702838  0.37021051  0.66279110  1  0  -0.167074  0  3.638409  0  0  -0.192327  0  3.927897  0  0  -0.191245  0  3.936017  0  0  -0.133387  -0.192961  0  3.922269  0
C  C42  1  0.93297393  0.87021510  0.16279380  1  0  -0.167083  0  3.638485  0  0  -0.192284  0  3.927953  0  0  -0.1912  0  3.936057  0  0  -0.133325  -0.192918  0  3.922327  0
C  C43  1  0.43296881  0.62978774  0.33720578  1  0  -0.16706  0  3.638442  0  0  -0.192277  0  3.927877  0  0  -0.191185  0  3.935984  0  0  -0.133358  -0.192905  0  3.92223  0
C  C44  1  0.91650587  0.25007655  0.00879861  1  0  -0.181913  0  3.531703  0  0  -0.188841  0  3.75827  0  0  -0.19532  0  3.770445  0  0  -0.084  -0.184322  0  3.749975  0
C  C45  1  0.41652318  0.24992294  0.49120283  1  0  -0.18196  0  3.531856  0  0  -0.188851  0  3.758308  0  0  -0.195308  0  3.770507  0  0  -0.083974  -0.184331  0  3.750008  0
C  C46  1  0.08348525  0.74992552  0.99120548  1  0  -0.181955  0  3.531659  0  0  -0.188902  0  3.75817  0  0  -0.195372  0  3.77038  0  0  -0.084059  -0.184379  0  3.749869  0
C  C47  1  0.58348462  0.75007242  0.50879545  1  0  -0.181955  0  3.531781  0  0  -0.188892  0  3.758274  0  0  -0.195357  0  3.770492  0  0  -0.084076  -0.184375  0  3.749975  0
C  C48  1  0.72638515  0.10856622  0.87041962  1  0  0.194541  0  3.564051  0  0  0.16189  0  3.81874  0  0  0.169221  0  3.827423  0  0  -0.00264  0.15686  0  3.812935  0
C  C49  1  0.22638734  0.39143009  0.62958025  1  0  0.194618  0  3.563853  0  0  0.161983  0  3.818576  0  0  0.169315  0  3.827249  0  0  -0.002567  0.156949  0  3.812781  0
C  C50  1  0.27361508  0.89143586  0.12958192  1  0  0.19458  0  3.563878  0  0  0.161927  0  3.81856  0  0  0.16926  0  3.827232  0  0  -0.002633  0.156896  0  3.812766  0
C  C51  1  0.77360985  0.60856528  0.37041462  1  0  0.194713  0  3.563661  0  0  0.162017  0  3.818465  0  0  0.169355  0  3.827123  0  0  -0.002635  0.156982  0  3.81267  0
C  C52  1  0.76219883  0.13587406  0.00185505  1  0  -0.184001  0  3.562522  0  0  -0.19074  0  3.786142  0  0  -0.197485  0  3.800237  0  0  -0.086821  -0.186184  0  3.77671  0
C  C53  1  0.26221277  0.36412384  0.49814242  1  0  -0.184012  0  3.562483  0  0  -0.190857  0  3.786316  0  0  -0.197598  0  3.800398  0  0  -0.086834  -0.1863  0  3.776879  0
C  C54  1  0.23778320  0.86413186  0.99814519  1  0  -0.183925  0  3.562401  0  0  -0.19065  0  3.786031  0  0  -0.197398  0  3.800125  0  0  -0.086731  -0.186096  0  3.776596  0
C  C55  1  0.73778290  0.63586673  0.50185196  1  0  -0.183867  0  3.562269  0  0  -0.190641  0  3.786024  0  0  -0.19738  0  3.800101  0  0  -0.086686  -0.186085  0  3.776589  0
C  C56  1  0.91700413  0.03678150  0.82874050  1  0  -0.182043  0  3.675396  0  0  -0.203232  0  3.967381  0  0  -0.202242  0  3.974772  0  0  -0.138114  -0.203847  0  3.962468  0
C  C57  1  0.41700168  0.46321821  0.67125687  1  0  -0.181998  0  3.675509  0  0  -0.203166  0  3.967495  0  0  -0.202175  0  3.974888  0  0  -0.138093  -0.203772  0  3.962559  0
C  C58  1  0.08300670  0.96322345  0.17126475  1  0  -0.182208  0  3.675571  0  0  -0.203452  0  3.96764  0  0  -0.202458  0  3.975021  0  0  -0.138171  -0.204063  0  3.962719  0
C  C59  1  0.58299703  0.53678006  0.32873490  1  0  -0.182286  0  3.675688  0  0  -0.203527  0  3.967764  0  0  -0.202532  0  3.975142  0  0  -0.138191  -0.204137  0  3.962845  0
C  C60  1  0.95860292  0.25470430  0.87827255  1  0  0.193838  0  3.529277  0  0  0.169145  0  3.776649  0  0  0.176103  0  3.784972  0  0  0.002139  0.164428  0  3.770955  0
C  C61  1  0.45861489  0.24529922  0.62172952  1  0  0.193607  0  3.529499  0  0  0.169085  0  3.776651  0  0  0.175931  0  3.78514  0  0  0.00209  0.16437  0  3.770957  0
C  C62  1  0.04139124  0.74530160  0.12173365  1  0  0.193644  0  3.529208  0  0  0.169089  0  3.776374  0  0  0.175954  0  3.784839  0  0  0.00207  0.164373  0  3.770683  0
C  C63  1  0.54138533  0.75470095  0.37826841  1  0  0.193617  0  3.529344  0  0  0.169142  0  3.776437  0  0  0.175977  0  3.784945  0  0  0.002174  0.164428  0  3.770746  0
O  O64  1  0.63494430  0.16333005  0.18809735  1  0  -0.567321  0  2.060026  0  0  -0.514962  0  2.282289  0  0  -0.537216  0  2.262672  0  0  -0.33967  -0.499408  0  2.294046  0
O  O65  1  0.13494940  0.33666686  0.31190335  1  0  -0.567426  0  2.059942  0  0  -0.515082  0  2.282236  0  0  -0.537337  0  2.262617  0  0  -0.339694  -0.499532  0  2.293998  0
O  O66  1  0.36504379  0.83667203  0.81190419  1  0  -0.567517  0  2.060038  0  0  -0.515138  0  2.282298  0  0  -0.537393  0  2.262676  0  0  -0.339654  -0.499583  0  2.294073  0
O  O67  1  0.86505082  0.66331889  0.68809480  1  0  -0.567501  0  2.059852  0  0  -0.515105  0  2.28218  0  0  -0.537361  0  2.262563  0  0  -0.339702  -0.499553  0  2.293922  0
O  O68  1  0.75825495  0.23213888  0.82993700  1  0  -0.370748  0  2.216822  0  0  -0.30921  0  2.474381  0  0  -0.325899  0  2.472965  0  0  -0.216389  -0.29716  0  2.474915  0
O  O69  1  0.25826717  0.26785623  0.67006468  1  0  -0.370693  0  2.216746  0  0  -0.309228  0  2.474276  0  0  -0.325889  0  2.472887  0  0  -0.216431  -0.29718  0  2.474812  0
O  O70  1  0.24174224  0.76786127  0.17006519  1  0  -0.370699  0  2.216692  0  0  -0.30922  0  2.474227  0  0  -0.32589  0  2.472836  0  0  -0.216406  -0.297172  0  2.474762  0
O  O71  1  0.74173457  0.73214105  0.32993380  1  0  -0.370734  0  2.216753  0  0  -0.309274  0  2.474303  0  0  -0.325937  0  2.472917  0  0  -0.21641  -0.297225  0  2.47484  0
O  O72  1  0.40035141  0.15307245  0.04440072  1  0  -0.554087  0  1.918209  0  0  -0.509335  0  2.139528  0  0  -0.530571  0  2.131803  0  0  -0.28871  -0.494653  0  2.144651  0
O  O73  1  0.90036922  0.34692089  0.45560211  1  0  -0.554313  0  1.918159  0  0  -0.50951  0  2.139446  0  0  -0.530742  0  2.131714  0  0  -0.288822  -0.494831  0  2.144574  0
O  O74  1  0.59963365  0.84693157  0.95559164  1  0  -0.554281  0  1.918307  0  0  -0.509541  0  2.139657  0  0  -0.530775  0  2.131928  0  0  -0.288787  -0.494859  0  2.144781  0
O  O75  1  0.09963252  0.65307637  0.54440064  1  0  -0.554331  0  1.918191  0  0  -0.509537  0  2.139525  0  0  -0.530771  0  2.131795  0  0  -0.288871  -0.494858  0  2.144651  0
O  O76  1  0.90861726  0.42270707  0.16130707  1  0  -0.62901  0  2.015173  0  0  -0.575547  0  2.253854  0  0  -0.602691  0  2.244506  0  0  -0.308313  -0.556216  0  2.259312  0
O  O77  1  0.40862145  0.07728840  0.33869070  1  0  -0.628876  0  2.015207  0  0  -0.575442  0  2.253868  0  0  -0.602585  0  2.244521  0  0  -0.308282  -0.556113  0  2.259324  0
O  O78  1  0.09138600  0.57729019  0.83869568  1  0  -0.629018  0  2.015262  0  0  -0.575539  0  2.253933  0  0  -0.602681  0  2.244583  0  0  -0.308338  -0.556207  0  2.259386  0
O  O79  1  0.59138029  0.92271273  0.66130562  1  0  -0.628956  0  2.015067  0  0  -0.5755  0  2.253714  0  0  -0.602642  0  2.244364  0  0  -0.308326  -0.55617  0  2.259174  0
O  O80  1  0.67901659  0.42893324  0.02211802  1  0  -0.654572  0  2.133738  0  0  -0.578199  0  2.424708  0  0  -0.608136  0  2.408163  0  0  -0.343795  -0.5567  0  2.435228  0
O  O81  1  0.17902710  0.07107331  0.47788453  1  0  -0.654386  0  2.133758  0  0  -0.578094  0  2.424742  0  0  -0.608032  0  2.408204  0  0  -0.343728  -0.556593  0  2.435253  0
O  O82  1  0.32099272  0.57107747  0.97788527  1  0  -0.654565  0  2.133815  0  0  -0.578194  0  2.424782  0  0  -0.60813  0  2.408232  0  0  -0.343736  -0.556697  0  2.435306  0
O  O83  1  0.82099132  0.92891722  0.52212008  1  0  -0.654454  0  2.133773  0  0  -0.578134  0  2.424729  0  0  -0.60807  0  2.408185  0  0  -0.343711  -0.556639  0  2.435251  0
