# generated using pymatgen
data_AlC27N19O30
_symmetry_space_group_name_H-M   'P 1'
_cell_length_a   4.47633932
_cell_length_b   18.19315210
_cell_length_c   18.19989265
_cell_angle_alpha   119.83970187
_cell_angle_beta   93.79316777
_cell_angle_gamma   88.93560290
_symmetry_Int_Tables_number   1
_chemical_formula_structural   AlC27N19O30
_chemical_formula_sum   'Al1 C27 N19 O30'
_cell_volume   1282.67786502
_cell_formula_units_Z   1
loop_
 _symmetry_equiv_pos_site_id
 _symmetry_equiv_pos_as_xyz
  1  'x, y, z'
loop_
 _atom_site_type_symbol
 _atom_site_label
 _atom_site_symmetry_multiplicity
 _atom_site_fract_x
 _atom_site_fract_y
 _atom_site_fract_z
 _atom_site_occupancy
 _atom_site_pbe_bader_charge
 _atom_site_pbe_bader_spin_density
 _atom_site_pbe_cm5_charge
 _atom_site_pbe_ddec_charge
 _atom_site_pbe_ddec_spin_density
 _atom_site_pbe_ddec_sum_bond_order
 _atom_site_pbe_magmom
Al  Al0  1  0.01447677  0.00006189  0.49924179  1  2.537771  0  0.496152  1.709027  0  2.362819  0
C  C1  1  0.49284311  0.06397254  0.43464473  1  1.716441  0  0.276668  0.676556  0  4.130138  0
C  C2  1  0.54509354  0.06506190  0.62750059  1  1.756478  0  0.275643  0.674195  0  4.133436  0
C  C3  1  0.50529195  0.87095689  0.43544701  1  1.681143  0  0.289538  0.702324  0  4.014252  0
C  C4  1  0.33286798  0.23506136  0.37220677  1  0.32447  0  0.112186  0.045187  0  3.841493  0
C  C5  1  0.45996268  0.20238322  0.29340253  1  0.10495  0  0.024911  -0.045672  0  3.889672  0
C  C6  1  0.42489450  0.12597123  0.85789279  1  0.133301  0  0.112224  0.046045  0  3.841382  0
C  C7  1  0.56789115  0.20586385  0.90627834  1  0.124678  0  0.023773  -0.046598  0  3.889433  0
C  C8  1  0.50285404  0.59316037  0.29553973  1  0.092065  0  0.018298  -0.052032  0  3.923044  0
C  C9  1  0.49792142  0.64045795  0.25370690  1  0.235836  0  0.101459  0.023636  0  3.862973  0
C  C10  1  0.70139166  0.23869641  0.86059535  1  0.263811  0  0.111812  0.043683  0  3.846379  0
C  C11  1  0.70419664  0.19253301  0.77215588  1  0.306517  0  0.0927  0.008836  0  3.887319  0
C  C12  1  0.55685276  0.11413182  0.72447162  1  0.02671  0  0.023488  -0.063929  0  3.888023  0
C  C13  1  0.41300128  0.08281470  0.76936676  1  0.396677  0  0.091641  0.005484  0  3.893235  0
C  C14  1  0.53788955  0.72829385  0.29941558  1  0.306781  0  0.098874  0.030205  0  3.881296  0
C  C15  1  0.50265770  0.77437345  0.38695880  1  0.092085  0  0.021109  -0.079926  0  3.846121  0
C  C16  1  0.46756909  0.72682478  0.42734990  1  0.199075  0  0.099925  0.031717  0  3.879921  0
C  C17  1  0.50787097  0.63933720  0.38456553  1  0.370059  0  0.100943  0.021978  0  3.865095  0
C  C18  1  0.59945679  0.12332890  0.26256467  1  0.274687  0  0.111607  0.044105  0  3.842186  0
C  C19  1  0.61549390  0.08106329  0.30902584  1  0.301112  0  0.092323  0.005531  0  3.893005  0
C  C20  1  0.47978575  0.11239013  0.38579372  1  0.062866  0  0.023491  -0.063673  0  3.886821  0
C  C21  1  0.33520926  0.18983312  0.41574435  1  0.284922  0  0.091962  0.007343  0  3.8888  0
C  C22  1  0.44113241  0.37661861  0.24997171  1  1.579129  0  0.376045  0.522581  0  4.03387  0
C  C23  1  0.51479478  0.24430409  0.11996097  1  1.530032  0  0.375918  0.519463  0  4.036392  0
C  C24  1  0.45203665  0.24913464  0.24539648  1  1.168683  0  0.270691  0.396557  0  4.024086  0
C  C25  1  0.50501423  0.49932816  0.24817537  1  1.05497  0  0.268995  0.397803  0  4.041293  0
C  C26  1  0.57938608  0.37875089  0.12388520  1  1.607589  0  0.375771  0.521237  0  4.031189  0
C  C27  1  0.57616632  0.25219520  0.00081977  1  1.191945  0  0.271053  0.394406  0  4.02374  0
N  N28  1  0.51195678  0.33322634  0.16460481  1  -1.210705  0  -0.183475  -0.232358  0  3.571198  0
N  N29  1  0.48322313  0.20269355  0.16194951  1  -1.169241  0  -0.299136  -0.393821  0  3.240048  0
N  N30  1  0.41607244  0.33296157  0.29016707  1  -1.150982  0  -0.298139  -0.392821  0  3.239129  0
N  N31  1  0.40602582  0.46024138  0.28807491  1  -1.174949  0  -0.3029  -0.408408  0  3.208084  0
N  N32  1  0.60655640  0.46285209  0.17021397  1  -1.154721  0  -0.301141  -0.40573  0  3.209288  0
N  N33  1  0.54827234  0.20433670  0.03685209  1  -1.124058  0  -0.299677  -0.393787  0  3.24331  0
N  N34  1  0.60862874  0.33652369  0.04049886  1  -1.171388  0  -0.297664  -0.390572  0  3.235393  0
N  N35  1  0.77872210  0.00064459  0.27768797  1  0.403149  0  0.067496  0.518826  0  4.195294  0
N  N36  1  0.72942912  0.08060872  0.17779173  1  0.478093  0  0.062836  0.496185  0  4.302846  0
N  N37  1  0.18351277  0.22409263  0.49607925  1  0.423281  0  0.06587  0.512479  0  4.19775  0
N  N38  1  0.19684294  0.32078620  0.41313310  1  0.48032  0  0.063178  0.49773  0  4.301373  0
N  N39  1  0.58709032  0.59752690  0.43577446  1  0.451348  0  0.064377  0.5032  0  4.261215  0
N  N40  1  0.37691516  0.76820673  0.51650841  1  0.477345  0  0.062598  0.503484  0  4.251006  0
N  N41  1  0.42444027  0.59923784  0.16036630  1  0.447436  0  0.064024  0.502559  0  4.262458  0
N  N42  1  0.63078908  0.77128435  0.25283703  1  0.462752  0  0.06195  0.503839  0  4.250236  0
N  N43  1  0.28534414  0.08348804  0.89969228  1  0.483769  0  0.062945  0.49573  0  4.303708  0
N  N44  1  0.24581561  0.00137863  0.72014395  1  0.419467  0  0.06808  0.517059  0  4.197512  0
N  N45  1  0.83993168  0.32536011  0.90568570  1  0.473359  0  0.062496  0.496219  0  4.299757  0
N  N46  1  0.86630188  0.22642398  0.72667747  1  0.40302  0  0.065966  0.510993  0  4.198322  0
O  O47  1  0.27490083  0.90539528  0.47509090  1  -1.235341  0  -0.221516  -0.582673  0  2.375614  0
O  O48  1  0.25483483  0.02425281  0.42862978  1  -1.244965  0  -0.231074  -0.59787  0  2.391529  0
O  O49  1  0.29884608  0.06985718  0.59205193  1  -1.245329  0  -0.226251  -0.59139  0  2.420604  0
O  O50  1  0.73783706  0.90637985  0.43059684  1  -1.239129  0  -0.221532  -0.584163  0  2.383155  0
O  O51  1  0.78044529  0.02587225  0.59498664  1  -1.244693  0  -0.230646  -0.596887  0  2.392706  0
O  O52  1  0.74081867  0.06973171  0.47483009  1  -1.243656  0  -0.227818  -0.592618  0  2.415603  0
O  O53  1  0.68056233  0.94936061  0.29585551  1  -0.399959  0  -0.075033  -0.262192  0  2.061216  0
O  O54  1  0.00347490  0.99242400  0.23854805  1  -0.419251  0  -0.098464  -0.286904  0  1.963971  0
O  O55  1  0.96412128  0.11124469  0.17225783  1  -0.426772  0  -0.103052  -0.300695  0  2.054924  0
O  O56  1  0.58981241  0.01838048  0.12233668  1  -0.354197  0  -0.064036  -0.219667  0  1.894777  0
O  O57  1  0.29902985  0.20878822  0.55014861  1  -0.386214  0  -0.071558  -0.248389  0  2.025624  0
O  O58  1  0.95016721  0.26333118  0.50126038  1  -0.423864  0  -0.101855  -0.293372  0  1.972048  0
O  O59  1  0.95393173  0.32743038  0.38131072  1  -0.426429  0  -0.102319  -0.299784  0  2.057046  0
O  O60  1  0.34148875  0.37595002  0.47504008  1  -0.365934  0  -0.064015  -0.219258  0  1.892704  0
O  O61  1  0.82917125  0.56097851  0.42038875  1  -0.405433  0  -0.102633  -0.288593  0  1.975922  0
O  O62  1  0.41744122  0.60589854  0.48953074  1  -0.3751  0  -0.079704  -0.248186  0  1.947589  0
O  O63  1  0.10578154  0.78145717  0.52099215  1  -0.417861  0  -0.096552  -0.290854  0  2.025545  0
O  O64  1  0.56374878  0.78371737  0.57470892  1  -0.35912  0  -0.071133  -0.23051  0  1.958915  0
O  O65  1  0.18259394  0.56038500  0.13635524  1  -0.403805  0  -0.101461  -0.286095  0  1.975927  0
O  O66  1  0.59924482  0.61028080  0.11747828  1  -0.378686  0  -0.080548  -0.250238  0  1.94783  0
O  O67  1  0.90238879  0.78628926  0.26262916  1  -0.405032  0  -0.095208  -0.290009  0  2.029001  0
O  O68  1  0.44461517  0.78597038  0.20969114  1  -0.368362  0  -0.072213  -0.231331  0  1.95848  0
O  O69  1  0.05299109  0.11461211  0.93487990  1  -0.433359  0  -0.104966  -0.303718  0  2.057189  0
O  O70  1  0.41458154  0.02115279  0.89382733  1  -0.364616  0  -0.064469  -0.21968  0  1.896531  0
O  O71  1  0.34705594  0.94937298  0.65249937  1  -0.40681  0  -0.075753  -0.260856  0  2.049399  0
O  O72  1  0.01558691  0.99309767  0.74931873  1  -0.416721  0  -0.098016  -0.2856  0  1.966364  0
O  O73  1  0.07920900  0.33409686  0.94676210  1  -0.425208  0  -0.10051  -0.296793  0  2.054007  0
O  O74  1  0.69991893  0.37914419  0.89675045  1  -0.357688  0  -0.06327  -0.217488  0  1.8898  0
O  O75  1  0.75902681  0.20899343  0.65577102  1  -0.381157  0  -0.070471  -0.24668  0  2.026724  0
O  O76  1  0.09965222  0.26739841  0.76274636  1  -0.417393  0  -0.102806  -0.294383  0  1.97283  0
