# generated using pymatgen
data_CuH9C13NCl
_symmetry_space_group_name_H-M   'P 1'
_cell_length_a   3.73269207
_cell_length_b   9.00446287
_cell_length_c   15.12529097
_cell_angle_alpha   90.00049265
_cell_angle_beta   89.99967008
_cell_angle_gamma   91.84349808
_symmetry_Int_Tables_number   1
_chemical_formula_structural   CuH9C13NCl
_chemical_formula_sum   'Cu2 H18 C26 N2 Cl2'
_cell_volume   508.11132676
_cell_formula_units_Z   2
loop_
 _symmetry_equiv_pos_site_id
 _symmetry_equiv_pos_as_xyz
  1  'x, y, z'
loop_
 _atom_site_type_symbol
 _atom_site_label
 _atom_site_symmetry_multiplicity
 _atom_site_fract_x
 _atom_site_fract_y
 _atom_site_fract_z
 _atom_site_occupancy
 _atom_site_hle17_bader_spin_density
 _atom_site_hle17_ddec_charge
 _atom_site_hle17_ddec_spin_density
 _atom_site_hle17_ddec_sum_bond_order
 _atom_site_hle17_magmom
 _atom_site_hse06_10hf_bader_spin_density
 _atom_site_hse06_10hf_ddec_charge
 _atom_site_hse06_10hf_ddec_spin_density
 _atom_site_hse06_10hf_ddec_sum_bond_order
 _atom_site_hse06_10hf_magmom
 _atom_site_hse06_bader_spin_density
 _atom_site_hse06_ddec_charge
 _atom_site_hse06_ddec_spin_density
 _atom_site_hse06_ddec_sum_bond_order
 _atom_site_hse06_magmom
 _atom_site_pbe_bader_spin_density
 _atom_site_pbe_cm5_charge
 _atom_site_pbe_ddec_charge
 _atom_site_pbe_ddec_spin_density
 _atom_site_pbe_ddec_sum_bond_order
 _atom_site_pbe_magmom
Cu  Cu0  1  0.37500506  0.23764200  0.00535892  1  0  0.455845  0  1.848578  0  0  0.353939  0  2.330832  0  0  0.358969  0  2.283463  0  0  0.377516  0.35504  0  2.358892  0
Cu  Cu1  1  0.62499796  0.76235588  0.50536106  1  0  0.455833  0  1.848662  0  0  0.353902  0  2.330913  0  0  0.358907  0  2.283549  0  0  0.377535  0.355008  0  2.359028  0
H  H2  1  0.64230541  0.49544711  0.03004653  1  0  0.09151  0  0.970529  0  0  0.09769  0  1.046529  0  0  0.103488  0  1.040319  0  0  0.093458  0.093271  0  1.051358  0
H  H3  1  0.35771044  0.50455101  0.53005102  1  0  0.091489  0  0.970613  0  0  0.097692  0  1.046592  0  0  0.103491  0  1.040379  0  0  0.093472  0.093273  0  1.051418  0
H  H4  1  0.78762658  0.76720989  0.03796698  1  0  0.085839  0  0.97607  0  0  0.097331  0  1.038345  0  0  0.099463  0  1.038252  0  0  0.099117  0.095462  0  1.038938  0
H  H5  1  0.21239445  0.23278831  0.53796498  1  0  0.085867  0  0.976037  0  0  0.097357  0  1.038296  0  0  0.099485  0  1.038213  0  0  0.099115  0.095486  0  1.038888  0
H  H6  1  0.62439774  0.93423381  0.91528817  1  0  0.08486  0  0.979618  0  0  0.093806  0  1.048592  0  0  0.097392  0  1.046385  0  0  0.094696  0.091257  0  1.049999  0
H  H7  1  0.37561735  0.06576853  0.41528646  1  0  0.084848  0  0.979623  0  0  0.093816  0  1.048567  0  0  0.097409  0  1.046353  0  0  0.094678  0.091265  0  1.049974  0
H  H8  1  0.32455454  0.82877464  0.77995451  1  0  0.095543  0  0.965808  0  0  0.105209  0  1.030769  0  0  0.107867  0  1.030128  0  0  0.100114  0.103687  0  1.030722  0
H  H9  1  0.67545288  0.17122589  0.27995161  1  0  0.095583  0  0.965851  0  0  0.105246  0  1.030785  0  0  0.107905  0  1.030141  0  0  0.100121  0.10372  0  1.030742  0
H  H10  1  0.06158099  0.61380990  0.70013683  1  0  0.10407  0  0.954043  0  0  0.113192  0  1.021892  0  0  0.117204  0  1.017577  0  0  0.099058  0.109737  0  1.02602  0
H  H11  1  0.93842246  0.38618623  0.20013665  1  0  0.104014  0  0.954103  0  0  0.11313  0  1.021963  0  0  0.117141  0  1.017649  0  0  0.099032  0.109675  0  1.026097  0
H  H12  1  0.12026410  0.07915390  0.88316065  1  0  0.087931  0  0.989576  0  0  0.095106  0  1.065186  0  0  0.100395  0  1.059794  0  0  0.092616  0.092293  0  1.067359  0
H  H13  1  0.87971862  0.92084047  0.38316133  1  0  0.087865  0  0.989635  0  0  0.095036  0  1.06526  0  0  0.100329  0  1.059862  0  0  0.092588  0.092224  0  1.067434  0
H  H14  1  0.82740917  0.96400975  0.75078747  1  0  0.087524  0  0.966162  0  0  0.098742  0  1.027705  0  0  0.101055  0  1.026858  0  0  0.097989  0.096522  0  1.029268  0
H  H15  1  0.17256465  0.03599509  0.25079118  1  0  0.087593  0  0.965964  0  0  0.098688  0  1.027655  0  0  0.101024  0  1.026784  0  0  0.097975  0.096474  0  1.02921  0
H  H16  1  0.66364282  0.11739624  0.62245662  1  0  0.094757  0  0.960191  0  0  0.103123  0  1.025359  0  0  0.106276  0  1.024452  0  0  0.095661  0.100366  0  1.026903  0
H  H17  1  0.33633602  0.88260234  0.12245655  1  0  0.094734  0  0.960233  0  0  0.103152  0  1.025338  0  0  0.106308  0  1.024424  0  0  0.095662  0.100392  0  1.026881  0
H  H18  1  0.79929627  0.39070167  0.62383572  1  0  0.086952  0  0.970867  0  0  0.100405  0  1.032092  0  0  0.102496  0  1.032034  0  0  0.098875  0.099063  0  1.032022  0
H  H19  1  0.20068788  0.60929688  0.12383310  1  0  0.08696  0  0.970782  0  0  0.100407  0  1.032011  0  0  0.102499  0  1.031953  0  0  0.098866  0.09906  0  1.031962  0
C  C20  1  0.38722303  0.50785235  0.90241409  1  0  0.211467  0  3.760504  0  0  0.206199  0  3.994835  0  0  0.214806  0  4.016526  0  0  0.108295  0.201028  0  3.98007  0
C  C21  1  0.61277587  0.49214661  0.40241558  1  0  0.211342  0  3.760597  0  0  0.206109  0  3.994937  0  0  0.214701  0  4.016645  0  0  0.108261  0.200971  0  3.980117  0
C  C22  1  0.56757566  0.57056007  0.97681336  1  0  -0.161168  0  3.732533  0  0  -0.177821  0  3.984068  0  0  -0.183955  0  4.002135  0  0  -0.095664  -0.175056  0  3.97261  0
C  C23  1  0.43242706  0.42944101  0.47681477  1  0  -0.161088  0  3.732684  0  0  -0.177776  0  3.984217  0  0  -0.183897  0  4.002278  0  0  -0.095679  -0.175018  0  3.97274  0
C  C24  1  0.64858824  0.72052897  0.98059543  1  0  -0.030541  0  3.74124  0  0  -0.04555  0  3.984825  0  0  -0.043394  0  4.004974  0  0  -0.08289  -0.045952  0  3.971501  0
C  C25  1  0.35142030  0.27947656  0.48059420  1  0  -0.030529  0  3.741238  0  0  -0.045535  0  3.984852  0  0  -0.043381  0  4.004995  0  0  -0.082848  -0.045944  0  3.971531  0
C  C26  1  0.55790089  0.81583875  0.90994719  1  0  -0.075295  0  3.760533  0  0  -0.087058  0  4.00707  0  0  -0.091492  0  4.0288  0  0  -0.091975  -0.085627  0  3.9935  0
C  C27  1  0.44210079  0.18416251  0.40994600  1  0  -0.075217  0  3.760324  0  0  -0.086981  0  4.006852  0  0  -0.09142  0  4.028579  0  0  -0.091923  -0.085543  0  3.993273  0
C  C28  1  0.39232621  0.75843933  0.83585007  1  0  -0.09624  0  3.72763  0  0  -0.115791  0  3.971008  0  0  -0.116927  0  3.993622  0  0  -0.085024  -0.115034  0  3.955887  0
C  C29  1  0.60767755  0.24156423  0.33584630  1  0  -0.096387  0  3.727568  0  0  -0.115898  0  3.970939  0  0  -0.117041  0  3.993571  0  0  -0.08509  -0.115145  0  3.955829  0
C  C30  1  0.30191688  0.60395052  0.82976720  1  0  0.014856  0  3.804968  0  0  0.035851  0  4.029884  0  0  0.030042  0  4.054931  0  0  -0.006619  0.04026  0  4.012891  0
C  C31  1  0.69807377  0.39605417  0.32976344  1  0  0.014982  0  3.804872  0  0  0.035893  0  4.029871  0  0  0.030088  0  4.05492  0  0  -0.006551  0.040293  0  4.012887  0
C  C32  1  0.12830286  0.54250093  0.75584330  1  0  -0.084232  0  3.653101  0  0  -0.116727  0  3.90097  0  0  -0.108731  0  3.912729  0  0  -0.065354  -0.122868  0  3.894132  0
C  C33  1  0.87168944  0.45750273  0.25583961  1  0  -0.084226  0  3.653211  0  0  -0.116692  0  3.901111  0  0  -0.108695  0  3.91287  0  0  -0.065378  -0.12285  0  3.894304  0
C  C34  1  0.13436739  0.30060670  0.82866573  1  0  0.220016  0  3.749529  0  0  0.213606  0  3.985234  0  0  0.223334  0  4.004857  0  0  0.110487  0.207691  0  3.972765  0
C  C35  1  0.86563825  0.69938896  0.32866793  1  0  0.219985  0  3.749544  0  0  0.213575  0  3.985248  0  0  0.223304  0  4.004867  0  0  0.110482  0.207652  0  3.972782  0
C  C36  1  0.04924954  0.14604854  0.82593421  1  0  -0.164507  0  3.738379  0  0  -0.181896  0  3.991593  0  0  -0.188033  0  4.0091  0  0  -0.096512  -0.178652  0  3.980083  0
C  C37  1  0.95075135  0.85395157  0.32593444  1  0  -0.164414  0  3.738319  0  0  -0.181797  0  3.991489  0  0  -0.187935  0  4.008997  0  0  -0.096487  -0.178551  0  3.97998  0
C  C38  1  0.88658948  0.08306355  0.75285387  1  0  -0.024779  0  3.735565  0  0  -0.040552  0  3.982142  0  0  -0.03782  0  4.001548  0  0  -0.082636  -0.042614  0  3.969911  0
C  C39  1  0.11341292  0.91693443  0.25285495  1  0  -0.024809  0  3.73539  0  0  -0.040494  0  3.982013  0  0  -0.037779  0  4.001406  0  0  -0.082583  -0.042559  0  3.969785  0
C  C40  1  0.79463555  0.17096614  0.67895475  1  0  -0.064731  0  3.7545  0  0  -0.080598  0  4.007952  0  0  -0.084141  0  4.028731  0  0  -0.09022  -0.078273  0  3.994518  0
C  C41  1  0.20536048  0.82903086  0.17895260  1  0  -0.064743  0  3.754537  0  0  -0.080644  0  4.007964  0  0  -0.084191  0  4.028753  0  0  -0.090246  -0.078316  0  3.994536  0
C  C42  1  0.86948076  0.32111581  0.67980929  1  0  -0.101473  0  3.735211  0  0  -0.11872  0  3.978296  0  0  -0.12025  0  4.001188  0  0  -0.08768  -0.118077  0  3.962691  0
C  C43  1  0.13051044  0.67888569  0.17980845  1  0  -0.101472  0  3.735228  0  0  -0.118719  0  3.978336  0  0  -0.120252  0  4.001232  0  0  -0.087705  -0.118084  0  3.962741  0
C  C44  1  0.04335715  0.39031779  0.75357194  1  0  0.016049  0  3.797247  0  0  0.034216  0  4.027455  0  0  0.028549  0  4.052247  0  0  -0.008071  0.038298  0  4.010356  0
C  C45  1  0.95664283  0.60968244  0.25356958  1  0  0.016  0  3.797388  0  0  0.034174  0  4.02757  0  0  0.028509  0  4.052359  0  0  -0.00807  0.038261  0  4.010484  0
N  N46  1  0.30041792  0.35964926  0.90146767  1  0  -0.385915  0  3.332687  0  0  -0.317844  0  3.632642  0  0  -0.331922  0  3.639027  0  0  -0.367712  -0.310242  0  3.628177  0
N  N47  1  0.69958368  0.64034966  0.40146848  1  0  -0.385853  0  3.332873  0  0  -0.317761  0  3.632781  0  0  -0.33183  0  3.639156  0  0  -0.367691  -0.310165  0  3.628315  0
Cl  Cl48  1  0.85149128  0.15663847  0.07612396  1  0  -0.548338  0  1.327488  0  0  -0.465865  0  1.709404  0  0  -0.484683  0  1.672855  0  0  -0.307519  -0.451571  0  1.733234  0
Cl  Cl49  1  0.14851831  0.84336145  0.57612851  1  0  -0.548357  0  1.327545  0  0  -0.465872  0  1.709464  0  0  -0.48467  0  1.672886  0  0  -0.307541  -0.451591  0  1.733332  0
