# generated using pymatgen
data_Ga2P3H6(CO3)3
_symmetry_space_group_name_H-M   'P 1'
_cell_length_a   5.14239695
_cell_length_b   8.04896421
_cell_length_c   12.41429998
_cell_angle_alpha   91.52263084
_cell_angle_beta   101.01492682
_cell_angle_gamma   90.56853949
_symmetry_Int_Tables_number   1
_chemical_formula_structural   Ga2P3H6(CO3)3
_chemical_formula_sum   'Ga4 P6 H12 C6 O18'
_cell_volume   504.13665583
_cell_formula_units_Z   2
loop_
 _symmetry_equiv_pos_site_id
 _symmetry_equiv_pos_as_xyz
  1  'x, y, z'
loop_
 _atom_site_type_symbol
 _atom_site_label
 _atom_site_symmetry_multiplicity
 _atom_site_fract_x
 _atom_site_fract_y
 _atom_site_fract_z
 _atom_site_occupancy
 _atom_site_hle17_bader_spin_density
 _atom_site_hle17_ddec_charge
 _atom_site_hle17_ddec_spin_density
 _atom_site_hle17_ddec_sum_bond_order
 _atom_site_hle17_magmom
 _atom_site_hse06_10hf_bader_spin_density
 _atom_site_hse06_10hf_ddec_charge
 _atom_site_hse06_10hf_ddec_spin_density
 _atom_site_hse06_10hf_ddec_sum_bond_order
 _atom_site_hse06_10hf_magmom
 _atom_site_hse06_bader_spin_density
 _atom_site_hse06_ddec_charge
 _atom_site_hse06_ddec_spin_density
 _atom_site_hse06_ddec_sum_bond_order
 _atom_site_hse06_magmom
 _atom_site_pbe_bader_spin_density
 _atom_site_pbe_cm5_charge
 _atom_site_pbe_ddec_charge
 _atom_site_pbe_ddec_spin_density
 _atom_site_pbe_ddec_sum_bond_order
 _atom_site_pbe_magmom
Ga  Ga0  1  0.04442448  0.55800316  0.81023169  1  0  1.786288  0  2.210463  0  0  1.625514  0  2.656235  0  0  1.679942  0  2.596225  0  0  0.672802  1.587305  0  2.697369  0
Ga  Ga1  1  0.95557472  0.44199694  0.18976899  1  0  1.786285  0  2.210492  0  0  1.625493  0  2.656274  0  0  1.679927  0  2.596268  0  0  0.672774  1.58728  0  2.697407  0
Ga  Ga2  1  0.49433550  0.88448308  0.26257901  1  0  1.70859  0  2.303167  0  0  1.538067  0  2.758425  0  0  1.591948  0  2.699233  0  0  0.676242  1.50042  0  2.799136  0
Ga  Ga3  1  0.50566371  0.11551702  0.73742007  1  0  1.708609  0  2.303067  0  0  1.538105  0  2.758314  0  0  1.591975  0  2.699121  0  0  0.676271  1.500466  0  2.799021  0
P  P4  1  0.50591628  0.73243796  0.71902223  1  0  1.585224  0  4.714918  0  0  1.421008  0  5.224046  0  0  1.472322  0  5.183407  0  0  0.414633  1.385224  0  5.251677  0
P  P5  1  0.49408681  0.26755966  0.28097953  1  0  1.585222  0  4.714954  0  0  1.421002  0  5.22409  0  0  1.472326  0  5.183448  0  0  0.4146  1.385215  0  5.251715  0
P  P6  1  0.05886626  0.74044076  0.37727792  1  0  1.577271  0  4.729095  0  0  1.414489  0  5.240146  0  0  1.465497  0  5.200033  0  0  0.406103  1.378947  0  5.267395  0
P  P7  1  0.94113684  0.25955685  0.62272223  1  0  1.57716  0  4.729248  0  0  1.414381  0  5.240312  0  0  1.465386  0  5.200199  0  0  0.406064  1.378837  0  5.267561  0
P  P8  1  0.13198505  0.74957005  0.05312987  1  0  1.588353  0  4.743715  0  0  1.425754  0  5.251636  0  0  1.477539  0  5.209875  0  0  0.414215  1.389655  0  5.280041  0
P  P9  1  0.86801217  0.25042881  0.94686660  1  0  1.588363  0  4.74396  0  0  1.425732  0  5.251842  0  0  1.477515  0  5.210074  0  0  0.414267  1.389642  0  5.280236  0
H  H10  1  0.56264639  0.82238201  0.54334074  1  0  0.132899  0  0.94262  0  0  0.146066  0  1.001614  0  0  0.148132  0  1.001707  0  0  0.111377  0.144474  0  1.001764  0
H  H11  1  0.43735472  0.17761560  0.45666005  1  0  0.132875  0  0.942635  0  0  0.146057  0  1.001589  0  0  0.148124  0  1.001678  0  0  0.111378  0.14445  0  1.001757  0
H  H12  1  0.51881287  0.60440829  0.54597104  1  0  0.140093  0  0.946802  0  0  0.155924  0  0.998714  0  0  0.158224  0  0.998613  0  0  0.11214  0.154215  0  0.998959  0
H  H13  1  0.48118825  0.39558932  0.45402895  1  0  0.140102  0  0.946803  0  0  0.155936  0  0.998695  0  0  0.158236  0  0.998591  0  0  0.112149  0.154226  0  0.998942  0
H  H14  1  0.07695551  0.86091937  0.55470769  1  0  0.134446  0  0.933404  0  0  0.148252  0  0.990384  0  0  0.150544  0  0.990329  0  0  0.113395  0.146581  0  0.990509  0
H  H15  1  0.92304570  0.13908197  0.44529317  1  0  0.134454  0  0.933406  0  0  0.148262  0  0.990381  0  0  0.150553  0  0.990326  0  0  0.113401  0.14659  0  0.990501  0
H  H16  1  0.03181637  0.64333658  0.55347076  1  0  0.142133  0  0.942744  0  0  0.156176  0  0.998041  0  0  0.15855  0  0.998404  0  0  0.115845  0.154385  0  0.997973  0
H  H17  1  0.96818283  0.35666352  0.44652993  1  0  0.142136  0  0.942746  0  0  0.15618  0  0.998036  0  0  0.158553  0  0.998401  0  0  0.115852  0.15438  0  0.997978  0
H  H18  1  0.91589048  0.98593383  0.11243892  1  0  0.138567  0  0.940158  0  0  0.150009  0  1.002644  0  0  0.152588  0  1.002251  0  0  0.115418  0.148124  0  1.00308  0
H  H19  1  0.08411070  0.01406627  0.88756192  1  0  0.1386  0  0.940151  0  0  0.150019  0  1.002611  0  0  0.152598  0  1.002215  0  0  0.115441  0.14814  0  1.003052  0
H  H20  1  0.74009746  0.89513736  0.98818569  1  0  0.149775  0  0.916722  0  0  0.16493  0  0.968427  0  0  0.16762  0  0.967988  0  0  0.118884  0.16294  0  0.968959  0
H  H21  1  0.25990372  0.10486274  0.01181515  1  0  0.149813  0  0.916754  0  0  0.164923  0  0.968455  0  0  0.167612  0  0.968017  0  0  0.118884  0.162937  0  0.968982  0
C  C22  1  0.44373344  0.72362642  0.57088565  1  0  -0.406237  0  3.698353  0  0  -0.428376  0  3.948908  0  0  -0.436745  0  3.957903  0  0  -0.157716  -0.422492  0  3.942827  0
C  C23  1  0.55626375  0.27637244  0.42911405  1  0  -0.406211  0  3.698343  0  0  -0.428313  0  3.948852  0  0  -0.436674  0  3.957829  0  0  -0.157706  -0.422418  0  3.942772  0
C  C24  1  0.14794287  0.74294477  0.52497948  1  0  -0.403127  0  3.689894  0  0  -0.420389  0  3.93608  0  0  -0.430054  0  3.946171  0  0  -0.156574  -0.413532  0  3.929106  0
C  C25  1  0.85205436  0.25705533  0.47501943  1  0  -0.403136  0  3.689935  0  0  -0.420351  0  3.936011  0  0  -0.43002  0  3.946104  0  0  -0.156584  -0.41349  0  3.929034  0
C  C26  1  0.93854582  0.93526384  0.03163933  1  0  -0.411034  0  3.713343  0  0  -0.431549  0  3.963983  0  0  -0.441054  0  3.974089  0  0  -0.155174  -0.424973  0  3.957309  0
C  C27  1  0.06145554  0.06474247  0.96836082  1  0  -0.41121  0  3.71356  0  0  -0.43154  0  3.964089  0  0  -0.441038  0  3.974187  0  0  -0.155217  -0.424982  0  3.957431  0
O  O28  1  0.36159593  0.58511613  0.75825824  1  0  -0.858489  0  2.022173  0  0  -0.770608  0  2.306445  0  0  -0.798444  0  2.282244  0  0  -0.303482  -0.751131  0  2.322694  0
O  O29  1  0.63841317  0.41488522  0.24174729  1  0  -0.858495  0  2.022124  0  0  -0.770601  0  2.306383  0  0  -0.798441  0  2.282185  0  0  -0.303478  -0.751131  0  2.322632  0
O  O30  1  0.12116140  0.57055083  0.33181359  1  0  -0.89132  0  2.010807  0  0  -0.811605  0  2.290362  0  0  -0.839284  0  2.269306  0  0  -0.319103  -0.792051  0  2.304308  0
O  O31  1  0.87884566  0.42944678  0.66818607  1  0  -0.89128  0  2.010859  0  0  -0.811523  0  2.290327  0  0  -0.839201  0  2.269272  0  0  -0.31905  -0.791963  0  2.304275  0
O  O32  1  0.80531425  0.72976646  0.76465792  1  0  -0.866207  0  2.02307  0  0  -0.780666  0  2.310607  0  0  -0.808442  0  2.286724  0  0  -0.307672  -0.761188  0  2.326552  0
O  O33  1  0.19468695  0.27023363  0.23534051  1  0  -0.866173  0  2.023038  0  0  -0.780677  0  2.310652  0  0  -0.808478  0  2.286785  0  0  -0.307662  -0.761202  0  2.326593  0
O  O34  1  0.18816837  0.67844045  0.94565715  1  0  -0.858947  0  2.025495  0  0  -0.772959  0  2.304068  0  0  -0.800988  0  2.280288  0  0  -0.315088  -0.753219  0  2.319822  0
O  O35  1  0.81182086  0.32155843  0.05434512  1  0  -0.858968  0  2.025389  0  0  -0.772939  0  2.303921  0  0  -0.800972  0  2.280157  0  0  -0.315111  -0.753194  0  2.319669  0
O  O36  1  0.97057428  0.63877893  0.11567969  1  0  -0.901616  0  2.103731  0  0  -0.815543  0  2.401453  0  0  -0.842605  0  2.374339  0  0  -0.31032  -0.796497  0  2.419485  0
O  O37  1  0.02941108  0.36122244  0.88432070  1  0  -0.901544  0  2.103955  0  0  -0.815536  0  2.401741  0  0  -0.842604  0  2.37464  0  0  -0.310321  -0.796472  0  2.419752  0
O  O38  1  0.21167934  0.88734273  0.33616336  1  0  -0.886133  0  1.998234  0  0  -0.794345  0  2.288184  0  0  -0.821054  0  2.261795  0  0  -0.31795  -0.775663  0  2.305984  0
O  O39  1  0.78832578  0.11265737  0.66383941  1  0  -0.886101  0  1.998229  0  0  -0.794336  0  2.288211  0  0  -0.821039  0  2.261822  0  0  -0.317962  -0.77565  0  2.306013  0
O  O40  1  0.75939133  0.77985354  0.35549317  1  0  -0.878513  0  2.039415  0  0  -0.784657  0  2.338705  0  0  -0.812334  0  2.311815  0  0  -0.315809  -0.765457  0  2.356987  0
O  O41  1  0.24060976  0.22014157  0.64450114  1  0  -0.878499  0  2.039394  0  0  -0.784715  0  2.338751  0  0  -0.812385  0  2.311855  0  0  -0.315817  -0.765499  0  2.357027  0
O  O42  1  0.39329864  0.90017768  0.75340644  1  0  -0.863026  0  2.002329  0  0  -0.77042  0  2.290661  0  0  -0.798333  0  2.265754  0  0  -0.306572  -0.75088  0  2.307379  0
O  O43  1  0.60669666  0.09982367  0.24659072  1  0  -0.862982  0  2.002332  0  0  -0.770419  0  2.290735  0  0  -0.798319  0  2.26579  0  0  -0.306536  -0.750884  0  2.307451  0
O  O44  1  0.41050014  0.79364030  0.12440527  1  0  -0.859017  0  2.015495  0  0  -0.765127  0  2.304891  0  0  -0.79362  0  2.279791  0  0  -0.305617  -0.745229  0  2.321579  0
O  O45  1  0.58949901  0.20635731  0.87559295  1  0  -0.858989  0  2.015454  0  0  -0.765086  0  2.304811  0  0  -0.793582  0  2.27975  0  0  -0.305614  -0.745234  0  2.321614  0
