# generated using pymatgen
data_Cu2H10C15NO8
_symmetry_space_group_name_H-M   'P 1'
_cell_length_a   8.18917388
_cell_length_b   10.08991353
_cell_length_c   10.83823968
_cell_angle_alpha   63.02084608
_cell_angle_beta   72.91306481
_cell_angle_gamma   75.34897410
_symmetry_Int_Tables_number   1
_chemical_formula_structural   Cu2H10C15NO8
_chemical_formula_sum   'Cu4 H20 C30 N2 O16'
_cell_volume   755.29415633
_cell_formula_units_Z   2
loop_
 _symmetry_equiv_pos_site_id
 _symmetry_equiv_pos_as_xyz
  1  'x, y, z'
loop_
 _atom_site_type_symbol
 _atom_site_label
 _atom_site_symmetry_multiplicity
 _atom_site_fract_x
 _atom_site_fract_y
 _atom_site_fract_z
 _atom_site_occupancy
 _atom_site_hle17_ddec_charge
 _atom_site_hle17_ddec_spin_density
 _atom_site_hle17_ddec_sum_bond_order
 _atom_site_hle17_magmom
 _atom_site_hse06_10hf_ddec_charge
 _atom_site_hse06_10hf_ddec_spin_density
 _atom_site_hse06_10hf_ddec_sum_bond_order
 _atom_site_hse06_10hf_magmom
 _atom_site_hse06_ddec_charge
 _atom_site_hse06_ddec_spin_density
 _atom_site_hse06_ddec_sum_bond_order
 _atom_site_hse06_magmom
 _atom_site_pbe_cm5_charge
 _atom_site_pbe_ddec_charge
 _atom_site_pbe_ddec_spin_density
 _atom_site_pbe_ddec_sum_bond_order
 _atom_site_pbe_magmom
Cu  Cu0  1  0.00560218  0.63723822  0.85551773  1  1.03915  0.650139  1.696967  0.487  1.057042  0.796131  2.085149  0.655  1.147237  0.884976  2.019748  0.754  0.697151  0.98698  0.677901  2.145529  0.545
Cu  Cu1  1  0.99440366  0.36276143  0.14448339  1  1.039151  -0.650148  1.696834  -0.487  1.057023  -0.796125  2.084959  -0.655  1.147181  -0.884971  2.019609  -0.754  0.69709  0.986964  -0.677878  2.145267  -0.545
Cu  Cu2  1  0.18283502  0.30633413  0.84340794  1  0.972918  0.712969  1.760269  0.531  0.975888  0.808212  2.151497  0.662  1.063433  0.884028  2.087335  0.75  0.720757  0.905599  0.732832  2.211669  0.585
Cu  Cu3  1  0.81716246  0.69366109  0.15658865  1  0.972902  -0.712935  1.760162  -0.531  0.975812  -0.808198  2.151456  -0.662  1.063417  -0.884024  2.087216  -0.75  0.72068  0.90547  -0.73282  2.211702  -0.585
H  H4  1  0.04660808  0.89961243  0.42951730  1  0.123506  -0.000167  0.932185  0.0  0.133274  -2.3e-05  0.992214  0.0  0.137556  -3.2e-05  0.988695  0.0  0.11259  0.13005  -8.2e-05  0.995197  0.0
H  H5  1  0.95339002  0.10037940  0.57048888  1  0.123502  0.000168  0.932134  0.0  0.133265  2.3e-05  0.992166  0.0  0.137539  3.2e-05  0.988658  0.0  0.112588  0.130039  8.2e-05  0.995153  0.0
H  H6  1  0.25515746  0.85793606  0.03159507  1  0.127667  -8e-06  0.942755  0.0  0.136949  8.7e-05  1.003507  0.0  0.140611  4e-05  1.000896  0.0  0.113989  0.134442  5.6e-05  1.005303  0.0
H  H7  1  0.74484929  0.14206582  0.96840213  1  0.127639  5e-06  0.942859  0.0  0.136913  -8.7e-05  1.003614  0.0  0.140574  -4e-05  1.001007  0.0  0.113959  0.134404  -5.6e-05  1.005408  0.0
H  H8  1  0.23001892  0.46280643  0.42378313  1  0.121285  2.8e-05  0.954391  0.0  0.129707  4.3e-05  1.017966  0.0  0.133065  1.4e-05  1.016423  0.0  0.109219  0.127437  0.000101  1.018933  0.0
H  H9  1  0.76996456  0.53719672  0.57621238  1  0.121267  -3e-05  0.954463  0.0  0.129668  -4.3e-05  1.018086  0.0  0.133022  -1.4e-05  1.016542  0.0  0.109227  0.1274  -0.000101  1.019051  0.0
H  H10  1  0.43315141  0.38221712  0.11027652  1  0.113427  7.1e-05  0.920837  0.0  0.124125  0.000118  0.983721  0.0  0.12657  9.9e-05  0.980781  0.0  0.118997  0.122449  0.000129  0.985791  0.0
H  H11  1  0.56684017  0.61778373  0.88972549  1  0.113436  -7.3e-05  0.920808  0.0  0.124136  -0.000117  0.983699  0.0  0.126571  -9.9e-05  0.980766  0.0  0.119011  0.122459  -0.000129  0.985772  0.0
H  H12  1  0.37562774  0.35969441  0.28869330  1  0.085688  1.3e-05  0.941489  0.0  0.097283  2.4e-05  1.007271  0.0  0.099914  3e-05  1.005306  0.0  0.106393  0.095852  2.7e-05  1.008412  0.0
H  H13  1  0.62437036  0.64030529  0.71130310  1  0.08569  -1e-05  0.941454  0.0  0.097286  -2.4e-05  1.007254  0.0  0.099912  -2.9e-05  1.005287  0.0  0.106386  0.095852  -2.7e-05  1.008393  0.0
H  H14  1  0.16674370  0.01899798  0.84982259  1  0.081289  0.001103  0.980487  0.002  0.089582  0.000805  1.045566  0.002  0.091241  0.000511  1.043546  0.001  0.117095  0.087715  0.001015  1.047526  0.002
H  H15  1  0.83326028  0.98100505  0.15017198  1  0.081241  -0.001102  0.980543  -0.002  0.08953  -0.000805  1.045644  -0.002  0.091189  -0.000512  1.043626  -0.001  0.117063  0.087663  -0.001015  1.047604  -0.002
H  H16  1  0.28156795  0.88176251  0.69634709  1  0.128751  0.00026  0.985181  0.0  0.135528  0.000304  1.047367  0.0  0.139251  0.000213  1.045528  0.0  0.110279  0.132242  0.000361  1.049588  0.001
H  H17  1  0.71842907  0.11823607  0.30365280  1  0.128874  -0.00026  0.9851  0.0  0.135643  -0.000304  1.047274  0.0  0.139365  -0.000213  1.045431  0.0  0.110307  0.13233  -0.000361  1.049525  -0.001
H  H18  1  0.63013402  0.21460171  0.43957856  1  0.122994  0.000344  0.97276  0.0  0.132222  0.000366  1.031079  0.0  0.13512  0.000242  1.030799  0.0  0.110985  0.129405  0.000441  1.03232  0.001
H  H19  1  0.36986660  0.78540694  0.56041902  1  0.12304  -0.000339  0.972727  0.0  0.132301  -0.000366  1.030999  0.0  0.135202  -0.000242  1.030714  0.0  0.110993  0.129483  -0.000441  1.032244  -0.001
H  H20  1  0.49762956  0.33564057  0.60635241  1  0.089085  0.001202  0.933635  0.002  0.097447  0.000926  0.99586  0.002  0.098657  0.000637  0.99507  0.001  0.119463  0.09598  0.001128  0.996867  0.002
H  H21  1  0.50236823  0.66436137  0.39364680  1  0.089114  -0.001201  0.933558  -0.002  0.097484  -0.000926  0.995785  -0.002  0.098692  -0.000637  0.994999  -0.001  0.119465  0.096015  -0.001127  0.996793  -0.002
H  H22  1  0.88344507  0.40732465  0.93305632  1  0.394452  -0.000109  0.908706  -0.001  0.364601  0.000519  0.989232  0.0  0.377819  0.000274  0.970589  0.0  0.287312  0.355039  0.000728  1.002518  0.0
H  H23  1  0.11655842  0.59267389  0.06694857  1  0.394387  0.00011  0.908834  0.001  0.364538  -0.000517  0.989351  0.0  0.377754  -0.000272  0.970712  0.0  0.287242  0.354975  -0.000725  1.00264  0.0
C  C24  1  0.13488103  0.67423132  0.44068870  1  -0.046067  0.016053  3.758253  0.018  -0.019415  0.008392  3.990967  0.01  -0.029254  0.005636  4.014025  0.007  -0.016126  -0.012566  0.010416  3.975847  0.012
C  C25  1  0.86510850  0.32576618  0.55931428  1  -0.046044  -0.016055  3.758264  -0.018  -0.019364  -0.008393  3.990924  -0.01  -0.029203  -0.005635  4.013986  -0.007  -0.01607  -0.012515  -0.010417  3.975802  -0.012
C  C26  1  0.10284982  0.83055761  0.36998183  1  -0.082361  0.00288  3.691765  0.003  -0.126428  0.001985  3.946175  0.002  -0.123556  0.00129  3.965216  0.001  -0.080989  -0.128736  0.003228  3.93416  0.004
C  C27  1  0.89714741  0.16943985  0.63002125  1  -0.082382  -0.002872  3.691609  -0.003  -0.126468  -0.001985  3.946029  -0.002  -0.123594  -0.00129  3.965065  -0.001  -0.081002  -0.128773  -0.003228  3.934013  -0.004
C  C28  1  0.14743702  0.89723919  0.22176920  1  -0.053315  0.001728  3.765131  0.001  -0.02768  0.000718  4.001266  0.001  -0.038234  0.000369  4.026048  0.0  -0.015148  -0.020471  0.002033  3.984905  0.002
C  C29  1  0.85257956  0.10275702  0.77822999  1  -0.053222  -0.001733  3.764893  -0.001  -0.027579  -0.00072  4.000975  -0.001  -0.03813  -0.000366  4.025753  0.0  -0.015195  -0.020376  -0.002035  3.984623  -0.002
C  C30  1  0.21791417  0.80747779  0.14632120  1  -0.138008  0.003143  3.666242  0.002  -0.18434  0.001222  3.934159  0.001  -0.183275  0.000741  3.948793  0.0  -0.082785  -0.184344  0.001143  3.923997  0.0
C  C31  1  0.78209295  0.19252184  0.85367870  1  -0.138045  -0.003151  3.666173  -0.002  -0.184361  -0.001222  3.934085  -0.001  -0.18329  -0.000744  3.948697  0.0  -0.082751  -0.184362  -0.001145  3.923922  0.0
C  C32  1  0.24469499  0.65157279  0.21779863  1  0.267789  -0.000302  3.801564  -0.001  0.257132  -0.000151  4.074367  -0.001  0.264319  -0.000123  4.090568  -0.001  0.082076  0.25173  0.000163  4.063666  0.0
C  C33  1  0.75531016  0.34843135  0.78220074  1  0.267929  0.000309  3.801395  0.001  0.257221  0.000149  4.074249  0.001  0.264426  0.000124  4.090432  0.001  0.082082  0.251818  -0.000163  4.063546  0.0
C  C34  1  0.20723380  0.58400586  0.36517113  1  -0.168958  0.000496  3.68784  0.0  -0.20677  0.001298  3.943812  0.001  -0.207469  0.000913  3.962251  0.001  -0.091986  -0.206046  0.001645  3.931433  0.001
C  C35  1  0.79275596  0.41599837  0.63482710  1  -0.169001  -0.000496  3.687883  0.0  -0.206816  -0.001297  3.943881  -0.001  -0.207505  -0.000914  3.962303  -0.001  -0.092058  -0.206098  -0.001646  3.931514  -0.001
C  C36  1  0.09904645  0.59896777  0.59919039  1  0.653871  -0.004107  3.864219  -0.01  0.617397  0.002651  4.159719  -0.001  0.658983  0.001631  4.152082  -0.001  0.217384  0.587675  0.003585  4.163797  0.0
C  C37  1  0.90094325  0.40102861  0.40081210  1  0.653795  0.00411  3.864559  0.01  0.617353  -0.002651  4.160011  0.001  0.658937  -0.00163  4.152374  0.001  0.217268  0.587631  -0.003581  4.164096  0.0
C  C38  1  0.11890034  0.06480830  0.14042147  1  0.658635  0.000761  3.856956  0.0  0.624476  0.001346  4.144331  0.001  0.665654  0.001078  4.136501  0.001  0.222172  0.594856  0.001902  4.148726  0.002
C  C39  1  0.88110357  0.93518687  0.85957736  1  0.658405  -0.000758  3.8571  0.0  0.624266  -0.001345  4.144429  -0.001  0.665444  -0.001079  4.136613  -0.001  0.222187  0.594649  -0.001901  4.148815  -0.002
C  C40  1  0.42243064  0.43795909  0.17952265  1  -0.066848  0.000997  3.576387  0.001  -0.126736  0.000376  3.835235  0.0  -0.123432  0.00026  3.834173  0.0  -0.069682  -0.129095  0.000559  3.836052  0.001
C  C41  1  0.57756621  0.56204061  0.82047681  1  -0.066754  -0.000996  3.57627  -0.001  -0.126646  -0.000376  3.835159  0.0  -0.123315  -0.000265  3.834078  0.0  -0.069653  -0.128999  -0.000559  3.835967  -0.001
C  C42  1  0.60002675  0.47504797  0.16418134  1  0.663647  0.00063  3.903735  0.0  0.62435  0.000694  4.206674  0.001  0.65917  0.000551  4.197343  0.001  0.193098  0.599926  0.000811  4.210558  0.001
C  C43  1  0.39996575  0.52495512  0.83581767  1  0.663514  -0.000629  3.903737  0.0  0.624136  -0.000694  4.206831  -0.001  0.658946  -0.000549  4.197503  -0.001  0.192986  0.599717  -0.000811  4.210706  -0.001
C  C44  1  0.26892626  0.05791825  0.75692600  1  0.124688  -0.007036  3.701918  -0.008  0.0978  -0.000385  3.955549  -0.001  0.106761  -0.001716  3.974415  -0.003  0.045096  0.09188  0.000616  3.943866  0.0
C  C45  1  0.73108138  0.94207802  0.24307613  1  0.124702  0.007041  3.70201  0.008  0.097797  0.000385  3.955633  0.001  0.106757  0.001715  3.974504  0.003  0.045106  0.091874  -0.000617  3.943941  0.0
C  C46  1  0.33396653  0.98294075  0.66869347  1  -0.142792  0.01267  3.660424  0.014  -0.159439  0.004571  3.898615  0.006  -0.1677  0.004167  3.919102  0.005  -0.077025  -0.155417  0.004792  3.887375  0.006
C  C47  1  0.66604664  0.01705323  0.33131391  1  -0.142943  -0.012675  3.660577  -0.014  -0.159543  -0.004571  3.898794  -0.006  -0.167801  -0.004166  3.919284  -0.005  -0.077053  -0.155501  -0.004793  3.88757  -0.006
C  C48  1  0.46533097  0.03732793  0.54940304  1  0.101594  -0.010072  3.724969  -0.011  0.114628  -0.002926  3.950628  -0.003  0.119245  -0.003135  3.971475  -0.004  0.017489  0.111225  -0.002728  3.937809  -0.003
C  C49  1  0.53468514  0.96266379  0.45060830  1  0.101588  0.010066  3.725058  0.011  0.114496  0.002925  3.95084  0.003  0.119107  0.003133  3.971693  0.004  0.017414  0.111098  0.002727  3.938012  0.003
C  C50  1  0.52735841  0.16550812  0.52875965  1  -0.157393  0.012558  3.673238  0.013  -0.173822  0.004405  3.91503  0.005  -0.182481  0.004027  3.936113  0.005  -0.078113  -0.168858  0.004587  3.902784  0.006
C  C51  1  0.47264708  0.83449377  0.47123967  1  -0.15752  -0.012557  3.673298  -0.013  -0.173937  -0.004404  3.915134  -0.005  -0.182595  -0.004025  3.936217  -0.005  -0.078151  -0.168977  -0.004587  3.902891  -0.006
C  C52  1  0.45390047  0.23501369  0.62140197  1  0.139223  -0.007803  3.686923  -0.008  0.112527  -0.000674  3.943549  -0.001  0.122254  -0.001865  3.962146  -0.003  0.049269  0.105779  0.000235  3.931944  0.0
C  C53  1  0.54610083  0.76499047  0.37859642  1  0.139156  0.007802  3.686902  0.008  0.112427  0.000674  3.943548  0.001  0.122151  0.001864  3.962153  0.003  0.049238  0.105681  -0.000235  3.931939  0.0
N  N54  1  0.32510940  0.18312148  0.73351715  1  -0.290684  0.076991  3.298787  0.098  -0.245245  0.054224  3.590757  0.074  -0.274666  0.044354  3.609722  0.064  -0.340066  -0.227304  0.057443  3.580412  0.075
N  N55  1  0.67489369  0.81687930  0.26648227  1  -0.29059  -0.076993  3.298704  -0.098  -0.245103  -0.054223  3.590639  -0.074  -0.274532  -0.044352  3.609612  -0.064  -0.340025  -0.227152  -0.057442  3.580292  -0.075
O  O56  1  0.06300642  0.14434475  0.21150552  1  -0.578842  -0.057081  2.081658  -0.078  -0.555575  -0.039173  2.358214  -0.058  -0.594033  -0.030673  2.343379  -0.048  -0.310892  -0.526406  -0.040799  2.367296  -0.058
O  O57  1  0.93699534  0.85564819  0.78849936  1  -0.578634  0.057066  2.081901  0.078  -0.555371  0.039166  2.358446  0.058  -0.593834  0.030667  2.343606  0.048  -0.310829  -0.526191  0.040789  2.367524  0.058
O  O58  1  0.15112907  0.11099602  0.00614021  1  -0.606703  0.071295  2.143426  0.097  -0.584171  0.046808  2.432431  0.069  -0.62559  0.03533  2.421639  0.055  -0.317687  -0.551857  0.055705  2.439372  0.08
O  O59  1  0.84888098  0.88900136  0.99386275  1  -0.60672  -0.071319  2.143382  -0.097  -0.584171  -0.046822  2.432367  -0.069  -0.625611  -0.035339  2.42158  -0.055  -0.317722  -0.551843  -0.05572  2.43931  -0.08
O  O60  1  0.71288976  0.36024075  0.20319584  1  -0.669809  0.005808  2.038037  0.007  -0.628319  0.001687  2.29529  0.001  -0.656978  0.001391  2.282088  0.001  -0.339629  -0.604044  0.002671  2.302413  0.003
O  O61  1  0.28710716  0.63976680  0.79680027  1  -0.669693  -0.005809  2.038095  -0.007  -0.628145  -0.001687  2.295331  -0.001  -0.656816  -0.001392  2.282138  -0.001  -0.339531  -0.603872  -0.00267  2.302464  -0.003
O  O62  1  0.61892557  0.61150874  0.11391906  1  -0.646445  0.001546  1.999359  0.001  -0.615507  0.000764  2.261701  0.001  -0.641117  0.000817  2.245015  0.001  -0.33864  -0.593846  0.000915  2.271649  0.001
O  O63  1  0.38106273  0.38849663  0.88607903  1  -0.646433  -0.001542  1.999319  -0.001  -0.615469  -0.000764  2.261689  -0.001  -0.641086  -0.000815  2.245039  -0.001  -0.33866  -0.593818  -0.000914  2.271627  -0.001
O  O64  1  0.18620920  0.47011679  0.65128255  1  -0.614177  0.066282  2.161375  0.091  -0.594903  0.04318  2.453433  0.065  -0.637291  0.032489  2.445523  0.051  -0.316681  -0.561662  0.050762  2.458015  0.074
O  O65  1  0.81377108  0.52987404  0.34872075  1  -0.614096  -0.066275  2.161438  -0.091  -0.594818  -0.043174  2.453454  -0.065  -0.637231  -0.032484  2.445574  -0.051  -0.316577  -0.561565  -0.050757  2.458045  -0.074
O  O66  1  0.98827925  0.66984914  0.66664097  1  -0.573679  0.073817  2.060701  0.101  -0.558471  0.047594  2.341533  0.071  -0.600138  0.035297  2.329377  0.055  -0.315891  -0.526964  0.051542  2.348501  0.074
O  O67  1  0.01171954  0.33014717  0.33337147  1  -0.573701  -0.073813  2.060852  -0.101  -0.558485  -0.047594  2.34163  -0.071  -0.600149  -0.035297  2.329493  -0.055  -0.315864  -0.52699  -0.051547  2.348591  -0.074
O  O68  1  0.99745783  0.41495832  0.94253764  1  -0.882794  0.079674  2.110898  0.109  -0.904367  0.044747  2.475206  0.066  -0.972413  0.033695  2.44141  0.052  -0.575529  -0.850604  0.052367  2.497278  0.074
O  O69  1  0.00255054  0.58505703  0.05744150  1  -0.882759  -0.079679  2.11098  -0.109  -0.904334  -0.044754  2.475229  -0.066  -0.972375  -0.033697  2.441399  -0.052  -0.575426  -0.85055  -0.052382  2.497292  -0.074
O  O70  1  0.29989781  0.57164537  0.13450570  1  -0.29072  0.00198  2.390019  0.002  -0.210678  0.000735  2.615768  0.001  -0.229117  0.000493  2.617996  0.001  -0.183846  -0.197944  0.000809  2.614344  0.001
O  O71  1  0.70010622  0.42835765  0.86549347  1  -0.290857  -0.001979  2.390054  -0.002  -0.210774  -0.000734  2.615795  -0.001  -0.229236  -0.000491  2.618034  -0.001  -0.183818  -0.19804  -0.000808  2.614367  -0.001
