# generated using pymatgen
data_ZnH11C33N5O9
_symmetry_space_group_name_H-M   'P 1'
_cell_length_a   14.13882450
_cell_length_b   15.10339410
_cell_length_c   23.77281359
_cell_angle_alpha   91.89005323
_cell_angle_beta   89.84947072
_cell_angle_gamma   90.82978375
_symmetry_Int_Tables_number   1
_chemical_formula_structural   ZnH11C33N5O9
_chemical_formula_sum   'Zn2 H22 C66 N10 O18'
_cell_volume   5073.24169588
_cell_formula_units_Z   2
loop_
 _symmetry_equiv_pos_site_id
 _symmetry_equiv_pos_as_xyz
  1  'x, y, z'
loop_
 _atom_site_type_symbol
 _atom_site_label
 _atom_site_symmetry_multiplicity
 _atom_site_fract_x
 _atom_site_fract_y
 _atom_site_fract_z
 _atom_site_occupancy
 _atom_site_pbe_bader_charge
 _atom_site_pbe_bader_spin_density
 _atom_site_pbe_cm5_charge
 _atom_site_pbe_ddec_charge
 _atom_site_pbe_ddec_spin_density
 _atom_site_pbe_ddec_sum_bond_order
 _atom_site_pbe_magmom
Zn  Zn0  1  0.60368935  0.50340543  0.50016182  1  1.291717  0  0.684892  0.849597  0  2.380259  0
Zn  Zn1  1  0.39619719  0.49659661  0.49980720  1  1.301432  0  0.684533  0.849387  0  2.380594  0
H  H2  1  0.57244292  0.28281694  0.03826698  1  0.141683  0  0.122181  0.127546  0  0.972993  0
H  H3  1  0.42766230  0.71721636  0.96171171  1  0.141301  0  0.121909  0.127198  0  0.973042  0
H  H4  1  0.56793835  0.29401964  0.93231144  1  0.105625  0  0.121637  0.126859  0  0.972963  0
H  H5  1  0.43213569  0.70599946  0.06765941  1  0.105327  0  0.121576  0.1267  0  0.97281  0
H  H6  1  0.34293362  0.52709978  0.78575184  1  0.135219  0  0.12078  0.133136  0  0.964389  0
H  H7  1  0.35222129  0.47884126  0.21321931  1  0.11618  0  0.120183  0.131852  0  0.964128  0
H  H8  1  0.34388938  0.53402495  0.68228762  1  0.108041  0  0.110361  0.113028  0  1.012334  0
H  H9  1  0.34950853  0.47043830  0.31666789  1  0.108311  0  0.111527  0.114114  0  1.008556  0
H  H10  1  0.65045729  0.52972752  0.68325152  1  0.108483  0  0.111586  0.114382  0  1.0082  0
H  H11  1  0.65606347  0.46578756  0.31772438  1  0.107076  0  0.11041  0.113185  0  1.012731  0
H  H12  1  0.64785351  0.52133490  0.78669431  1  0.117815  0  0.1202  0.131836  0  0.964424  0
H  H13  1  0.65712826  0.47273829  0.21426816  1  0.134773  0  0.120761  0.133266  0  0.964677  0
H  H14  1  0.62210498  0.77815254  0.43976283  1  0.076873  0  0.114794  0.123246  0  0.980676  0
H  H15  1  0.37790035  0.22185458  0.56025033  1  0.076356  0  0.114779  0.123107  0  0.980695  0
H  H16  1  0.69455855  0.91959719  0.41455683  1  0.076112  0  0.121004  0.127839  0  0.967986  0
H  H17  1  0.30548228  0.08044140  0.58546453  1  0.076194  0  0.121034  0.127936  0  0.968047  0
H  H18  1  0.68265255  0.54749007  0.59287815  1  0.661111  0  0.314902  0.372954  0  0.973478  0
H  H19  1  0.31719908  0.45261498  0.40708259  1  0.662742  0  0.315205  0.373514  0  0.972873  0
H  H20  1  0.68152998  0.44996067  0.40896487  1  0.657263  0  0.315211  0.372508  0  0.974719  0
H  H21  1  0.31833170  0.54986686  0.59104252  1  0.657865  0  0.315479  0.372416  0  0.974659  0
H  H22  1  0.32008540  0.79063391  0.57317711  1  0.62204  0  0.316702  0.353326  0  0.949464  0
H  H23  1  0.68013015  0.20944798  0.42699178  1  0.623194  0  0.316816  0.350685  0  0.952672  0
C  C24  1  0.49735722  0.33381590  0.51270291  1  1.567844  0  0.224331  0.628967  0  4.131935  0
C  C25  1  0.50260506  0.66621068  0.48730482  1  1.567931  0  0.224082  0.629107  0  4.132594  0
C  C26  1  0.40987388  0.52741188  0.76295848  1  0.057699  0  -0.071596  -0.139423  0  3.935054  0
C  C27  1  0.41828090  0.47552757  0.23648259  1  0.051826  0  -0.071785  -0.140008  0  3.941172  0
C  C28  1  0.41090972  0.53163964  0.70462189  1  -0.037114  0  -0.070848  -0.059747  0  3.936398  0
C  C29  1  0.41720434  0.47086159  0.29474048  1  -0.043273  0  -0.070884  -0.059738  0  3.941361  0
C  C30  1  0.49735431  0.53199200  0.67527945  1  -0.002623  0  -0.020754  -0.072401  0  4.005673  0
C  C31  1  0.50260227  0.46801470  0.32468496  1  -0.000534  0  -0.021008  -0.072449  0  4.006409  0
C  C32  1  0.58278738  0.52924882  0.70519918  1  -0.043452  0  -0.070444  -0.059181  0  3.940002  0
C  C33  1  0.58907396  0.46826460  0.29537438  1  -0.038349  0  -0.070809  -0.060128  0  3.937174  0
C  C34  1  0.58176528  0.52458138  0.76345655  1  0.05023  0  -0.072144  -0.140662  0  3.941495  0
C  C35  1  0.59016928  0.47250619  0.23704053  1  0.05861  0  -0.071655  -0.13962  0  3.936062  0
C  C36  1  0.49533795  0.52306871  0.79189254  1  0.214043  0  0.104245  0.214653  0  3.997905  0
C  C37  1  0.50474603  0.47695843  0.20807889  1  0.211709  0  0.104691  0.215159  0  3.99777  0
C  C38  1  0.42817243  0.80916982  0.52346274  1  0.47869  0  0.106751  0.272176  0  4.001999  0
C  C39  1  0.57195250  0.19087416  0.47663309  1  0.479367  0  0.107008  0.27231  0  4.000508  0
C  C40  1  0.49863518  0.76521303  0.49103133  1  0.028473  0  -0.019609  -0.125631  0  3.95192  0
C  C41  1  0.50140911  0.23481299  0.50900952  1  0.02858  0  -0.019685  -0.125479  0  3.951361  0
C  C42  1  0.56771080  0.81368484  0.46354701  1  0.041993  0  -0.070541  -0.114541  0  3.957614  0
C  C43  1  0.43233347  0.18633655  0.53648702  1  0.04047  0  -0.070738  -0.1147  0  3.957309  0
C  C44  1  0.56910637  0.90649234  0.46622580  1  0.013796  0  -0.014108  0.055017  0  4.086565  0
C  C45  1  0.43097466  0.09353137  0.53383390  1  0.010854  0  -0.013866  0.055964  0  4.086448  0
C  C46  1  0.49878496  0.53110297  0.61301293  1  1.493382  0  0.243536  0.636734  0  4.081743  0
C  C47  1  0.50109662  0.46889770  0.38695059  1  1.492382  0  0.243656  0.637144  0  4.083238  0
C  C48  1  0.49849847  0.95261694  0.49838349  1  -0.097653  0  0.014274  0.035214  0  3.910172  0
C  C49  1  0.50159392  0.04741748  0.50167810  1  0.038285  0  0.014195  0.032114  0  3.912916  0
C  C50  1  0.42666612  0.90355163  0.52694864  1  0.117531  0  -0.011687  -0.095648  0  3.976495  0
C  C51  1  0.57342984  0.09649209  0.47312493  1  0.122814  0  -0.011585  -0.0949  0  3.977643  0
C  C52  1  0.64054360  0.95536554  0.43851724  1  0.082409  0  -0.059812  -0.128666  0  3.925849  0
C  C53  1  0.35952827  0.04466604  0.56153927  1  0.083453  0  -0.059975  -0.128957  0  3.926731  0
C  C54  1  0.64391184  0.04663658  0.44158228  1  0.005926  0  -0.003079  0.018257  0  4.110082  0
C  C55  1  0.35616429  0.95340033  0.55848358  1  0.007296  0  -0.003271  0.018301  0  4.110444  0
C  C56  1  0.79962426  0.52486305  0.54774740  1  1.152245  0  0.234082  0.47043  0  4.050546  0
C  C57  1  0.20024477  0.47502749  0.45225753  1  1.156803  0  0.233944  0.470184  0  4.050941  0
C  C58  1  0.79878303  0.47181202  0.45368075  1  1.122696  0  0.234658  0.470398  0  4.050378  0
C  C59  1  0.20108943  0.52805470  0.54632662  1  1.125423  0  0.234411  0.470911  0  4.050356  0
C  C60  1  0.89907745  0.47631366  0.45013449  1  0.117779  0  -0.012897  -0.132559  0  3.981487  0
C  C61  1  0.10080123  0.52352330  0.54987939  1  0.119149  0  -0.013199  -0.133748  0  3.983  0
C  C62  1  0.89990282  0.52148154  0.55069483  1  0.112392  0  -0.013249  -0.133306  0  3.979453  0
C  C63  1  0.09997162  0.47835604  0.44932201  1  0.125059  0  -0.013621  -0.133326  0  3.979883  0
C  C64  1  0.94939660  0.49940626  0.50021867  1  0.070894  0  0.019821  0.066206  0  3.980475  0
C  C65  1  0.05048060  0.50041479  0.49979949  1  -0.088232  0  0.020345  0.066827  0  3.980026  0
C  C66  1  0.94967365  0.46075406  0.39815216  1  0.176762  0  0.027124  0.026278  0  4.002833  0
C  C67  1  0.05021087  0.53912073  0.60185536  1  0.177674  0  0.027449  0.027062  0  4.002332  0
C  C68  1  0.95138487  0.53816855  0.60226475  1  0.04985  0  0.026491  0.026757  0  3.999795  0
C  C69  1  0.04850107  0.46170889  0.39774788  1  0.038165  0  0.026975  0.027319  0  4.000244  0
C  C70  1  0.47890233  0.56628368  0.12639636  1  1.291789  0  0.245756  0.439873  0  4.096442  0
C  C71  1  0.52121562  0.43374975  0.87357642  1  1.291752  0  0.245901  0.440824  0  4.095838  0
C  C72  1  0.53074900  0.40776800  0.11540106  1  1.361808  0  0.24672  0.442036  0  4.090309  0
C  C73  1  0.46939160  0.59226499  0.88456706  1  1.360486  0  0.246722  0.442102  0  4.090081  0
C  C74  1  0.52834355  0.41615928  0.05346097  1  -0.024841  0  -0.00101  -0.059148  0  3.981663  0
C  C75  1  0.47179284  0.58388228  0.94651197  1  -0.023096  0  -0.000749  -0.058691  0  3.981763  0
C  C76  1  0.50132848  0.49684757  0.02981755  1  -0.112364  0  0.005726  0.032958  0  3.997641  0
C  C77  1  0.49880720  0.50319398  0.97015371  1  -0.037083  0  0.005977  0.033053  0  3.998343  0
C  C78  1  0.47679328  0.57137157  0.06424708  1  0.020362  0  -0.001002  -0.057578  0  3.979944  0
C  C79  1  0.52332965  0.42866588  0.93572369  1  0.015569  0  -0.001232  -0.058414  0  3.980937  0
C  C80  1  0.55204827  0.34397929  0.01875554  1  0.030506  0  -0.058249  -0.064121  0  3.9223  0
C  C81  1  0.44806120  0.65605604  0.98122150  1  0.029057  0  -0.058079  -0.063973  0  3.921897  0
C  C82  1  0.54951764  0.35020223  0.95996151  1  0.010044  0  -0.058109  -0.064248  0  3.920918  0
C  C83  1  0.45058970  0.64983043  0.04001212  1  0.010887  0  -0.05815  -0.064272  0  3.92046  0
C  C84  1  0.72081545  0.08891211  0.41390678  1  0.777754  0  0.177073  0.210094  0  4.061619  0
C  C85  1  0.27922815  0.91111988  0.58613294  1  0.776433  0  0.177262  0.209583  0  4.062965  0
C  C86  1  0.90229206  0.45042543  0.34531283  1  0.859487  0  0.175517  0.2344  0  4.043143  0
C  C87  1  0.09759913  0.54951700  0.65469024  1  0.859619  0  0.175482  0.234475  0  4.043302  0
C  C88  1  0.90505631  0.54863085  0.65546272  1  0.867559  0  0.175294  0.235203  0  4.044068  0
C  C89  1  0.09483065  0.45131948  0.34454809  1  0.86816  0  0.174876  0.234687  0  4.044119  0
N  N90  1  0.50513126  0.48392044  0.14776121  1  -1.154473  0  -0.22977  -0.229622  0  3.574658  0
N  N91  1  0.49501715  0.51612124  0.85220667  1  -1.155032  0  -0.229542  -0.229675  0  3.574692  0
N  N92  1  0.75137540  0.49885951  0.50070063  1  -1.27074  0  -0.343559  -0.454004  0  3.424039  0
N  N93  1  0.24849647  0.50103371  0.49930016  1  -1.273047  0  -0.343138  -0.454057  0  3.423957  0
N  N94  1  0.78444743  0.12432231  0.39172073  1  -1.107898  0  -0.3089  -0.348439  0  2.658005  0
N  N95  1  0.21557721  0.87573601  0.60830023  1  -1.107192  0  -0.308894  -0.348488  0  2.659587  0
N  N96  1  0.86807552  0.44474225  0.30061464  1  -1.077452  0  -0.295579  -0.332107  0  2.664498  0
N  N97  1  0.13181454  0.55526576  0.69938605  1  -1.075202  0  -0.295683  -0.332411  0  2.665217  0
N  N98  1  0.87201041  0.55539187  0.70048126  1  -1.084999  0  -0.298142  -0.33422  0  2.661902  0
N  N99  1  0.12787831  0.44463401  0.29952065  1  -1.084055  0  -0.297905  -0.33397  0  2.661799  0
O  O100  1  0.57492584  0.37687700  0.51679060  1  -1.144838  0  -0.315608  -0.537408  0  2.36296  0
O  O101  1  0.42497066  0.62320375  0.48341354  1  -1.143471  0  -0.315255  -0.53721  0  2.36282  0
O  O102  1  0.58504647  0.63286594  0.48789331  1  -1.153566  0  -0.319409  -0.544324  0  2.304524  0
O  O103  1  0.41488819  0.36708905  0.51188157  1  -1.152509  0  -0.31943  -0.544191  0  2.304175  0
O  O104  1  0.57780518  0.53336451  0.58683251  1  -1.181527  0  -0.302369  -0.552631  0  2.419939  0
O  O105  1  0.42202698  0.46697226  0.41309785  1  -1.181411  0  -0.302636  -0.553181  0  2.421404  0
O  O106  1  0.57922595  0.47418308  0.41416091  1  -1.189635  0  -0.304149  -0.557688  0  2.427265  0
O  O107  1  0.42061875  0.52547933  0.58584802  1  -1.19209  0  -0.304566  -0.557927  0  2.42685  0
O  O108  1  0.45945450  0.62898833  0.15834105  1  -1.092219  0  -0.273479  -0.429523  0  2.062109  0
O  O109  1  0.54061036  0.37103332  0.84163239  1  -1.091911  0  -0.273693  -0.429919  0  2.062012  0
O  O110  1  0.55262452  0.33934412  0.13828684  1  -1.087078  0  -0.270734  -0.425324  0  2.055453  0
O  O111  1  0.44750054  0.66069468  0.86168143  1  -1.086953  0  -0.27085  -0.425541  0  2.054634  0
O  O112  1  0.75456460  0.55503559  0.59277806  1  -1.16459  0  -0.308796  -0.434356  0  2.356886  0
O  O113  1  0.24530748  0.44490268  0.40721569  1  -1.167127  0  -0.308957  -0.434468  0  2.356199  0
O  O114  1  0.75281800  0.43984594  0.40927079  1  -1.156633  0  -0.306968  -0.431178  0  2.364003  0
O  O115  1  0.24705947  0.56003275  0.59073304  1  -1.159294  0  -0.30722  -0.431037  0  2.363432  0
O  O116  1  0.36756538  0.75679536  0.55159784  1  -1.124808  0  -0.328925  -0.403154  0  2.333361  0
O  O117  1  0.63266281  0.24327206  0.44859049  1  -1.12613  0  -0.32925  -0.401083  0  2.336442  0
