# generated using pymatgen
data_Zn3H26C40(N3O7)2
_symmetry_space_group_name_H-M   'P 1'
_cell_length_a   14.01730034
_cell_length_b   13.31711112
_cell_length_c   14.11690860
_cell_angle_alpha   106.61940153
_cell_angle_beta   110.08756030
_cell_angle_gamma   109.14544392
_symmetry_Int_Tables_number   1
_chemical_formula_structural   Zn3H26C40(N3O7)2
_chemical_formula_sum   'Zn6 H52 C80 N12 O28'
_cell_volume   2088.70011384
_cell_formula_units_Z   2
loop_
 _symmetry_equiv_pos_site_id
 _symmetry_equiv_pos_as_xyz
  1  'x, y, z'
loop_
 _atom_site_type_symbol
 _atom_site_label
 _atom_site_symmetry_multiplicity
 _atom_site_fract_x
 _atom_site_fract_y
 _atom_site_fract_z
 _atom_site_occupancy
 _atom_site_pbe_bader_charge
 _atom_site_pbe_bader_spin_density
 _atom_site_pbe_cm5_charge
 _atom_site_pbe_ddec_charge
 _atom_site_pbe_ddec_spin_density
 _atom_site_pbe_ddec_sum_bond_order
 _atom_site_pbe_magmom
Zn  Zn0  1  0.43239378  0.72461175  0.58984254  1  1.270798  0  0.673277  0.883234  0  2.335585  0
Zn  Zn1  1  0.50000429  0.50000456  0.50000190  1  1.346417  0  0.659631  0.921721  0  2.311787  0
Zn  Zn2  1  0.56761656  0.27539289  0.41016200  1  1.270679  0  0.673318  0.883348  0  2.335523  0
Zn  Zn3  1  0.16056962  0.36778927  0.59782823  1  1.267991  0  0.669719  0.878265  0  2.352032  0
Zn  Zn4  1  0.83943143  0.63221005  0.40217094  1  1.267981  0  0.669727  0.878231  0  2.352133  0
Zn  Zn5  1  0.99999966  0.49999856  0.49999940  1  1.344194  0  0.666459  0.914509  0  2.332693  0
H  H6  1  0.86136308  0.98774583  0.75315008  1  0.098509  0  0.116036  0.129262  0  0.981263  0
H  H7  1  0.56032667  0.61435250  0.09989886  1  0.087462  0  0.109805  0.116886  0  1.001296  0
H  H8  1  0.23173155  0.60364212  0.29816822  1  0.091553  0  0.102006  0.113597  0  1.037767  0
H  H9  1  0.14608091  0.66768012  0.76776224  1  0.134351  0  0.114008  0.090719  0  1.014531  0
H  H10  1  0.94213284  0.80324816  0.72293249  1  0.110267  0  0.104445  0.11694  0  1.02866  0
H  H11  1  0.38764373  0.41283747  0.23449889  1  0.144878  0  0.114047  0.091274  0  1.021918  0
H  H12  1  0.85391071  0.33232182  0.23223662  1  0.134236  0  0.114014  0.090786  0  1.014546  0
H  H13  1  0.45337914  0.00420242  0.88250917  1  0.09001  0  0.106431  0.110509  0  1.007685  0
H  H14  1  0.58695696  0.83337004  0.03353081  1  0.113292  0  0.118017  0.124054  0  1.004376  0
H  H15  1  0.63020464  0.22452129  0.70547517  1  0.152787  0  0.119089  0.132438  0  1.004849  0
H  H16  1  0.43968127  0.38564858  0.90010385  1  0.087538  0  0.109815  0.116925  0  1.001204  0
H  H17  1  0.79311032  0.74660308  0.93782304  1  0.117839  0  0.100363  0.107252  0  1.067412  0
H  H18  1  0.84129883  0.44987630  0.89905145  1  0.010595  0  0.096815  0.073544  0  1.012851  0
H  H19  1  0.56519287  0.30630662  0.98796741  1  0.130404  0  0.121274  0.129699  0  0.991583  0
H  H20  1  0.75735641  0.63261907  0.56031799  1  0.111977  0  0.117635  0.092786  0  1.009937  0
H  H21  1  0.77731149  0.49390284  0.00094741  1  0.094005  0  0.100657  0.103439  0  1.042385  0
H  H22  1  0.05788359  0.19675974  0.27708850  1  0.110596  0  0.104502  0.117068  0  1.02858  0
H  H23  1  0.36979317  0.77547097  0.29451805  1  0.152842  0  0.119098  0.13249  0  1.004813  0
H  H24  1  0.54662535  0.99579775  0.11749283  1  0.090089  0  0.106425  0.110514  0  1.007738  0
H  H25  1  0.20688309  0.25339611  0.06217919  1  0.117694  0  0.100328  0.107133  0  1.067562  0
H  H26  1  0.54217799  0.87314209  0.83925504  1  0.107037  0  0.118957  0.090377  0  1.006423  0
H  H27  1  0.80401712  0.41955701  0.54635053  1  0.126973  0  0.114687  0.088963  0  1.02935  0
H  H28  1  0.87641653  0.33490444  0.06675657  1  0.094849  0  0.098251  0.099219  0  1.064594  0
H  H29  1  0.74427168  0.99415251  0.99981879  1  0.096707  0  0.104542  0.111396  0  1.035249  0
H  H30  1  0.07741914  0.66979612  0.05955561  1  0.094834  0  0.103788  0.092875  0  1.018678  0
H  H31  1  0.95155854  0.21569409  0.60291251  1  0.122503  0  0.122807  0.094696  0  0.987748  0
H  H32  1  0.24266022  0.36739264  0.43969281  1  0.111553  0  0.117678  0.092806  0  1.009976  0
H  H33  1  0.92257040  0.33019962  0.94043936  1  0.094798  0  0.103786  0.092869  0  1.018658  0
H  H34  1  0.06255816  0.96601181  0.69532119  1  0.127973  0  0.11911  0.132516  0  1.004522  0
H  H35  1  0.22267168  0.50610561  0.99903770  1  0.093828  0  0.100623  0.103471  0  1.042288  0
H  H36  1  0.87633418  0.23743246  0.73976458  1  0.079776  0  0.115143  0.126542  0  0.977047  0
H  H37  1  0.65462246  0.87412095  0.60354282  1  0.125503  0  0.124131  0.097225  0  0.986055  0
H  H38  1  0.34539153  0.12589164  0.39646735  1  0.125397  0  0.124127  0.097152  0  0.986072  0
H  H39  1  0.12357316  0.66509659  0.93324208  1  0.094822  0  0.098241  0.099264  0  1.06461  0
H  H40  1  0.28260856  0.47503932  0.85150711  1  0.101808  0  0.118196  0.087477  0  0.997581  0
H  H41  1  0.57899307  0.44110618  0.35913905  1  0.625306  0  0.270681  0.373132  0  0.974559  0
H  H42  1  0.12365517  0.76255788  0.26023161  1  0.079978  0  0.11515  0.126533  0  0.977023  0
H  H43  1  0.76825977  0.39634926  0.70182257  1  0.091813  0  0.102008  0.113631  0  1.037736  0
H  H44  1  0.45782718  0.12685627  0.16074809  1  0.106943  0  0.118923  0.090337  0  1.006417  0
H  H45  1  0.04842591  0.78429717  0.39708088  1  0.122532  0  0.122752  0.094549  0  0.987835  0
H  H46  1  0.93744599  0.03398930  0.30467884  1  0.12806  0  0.119124  0.132512  0  1.004548  0
H  H47  1  0.13865135  0.01226935  0.24686453  1  0.098761  0  0.116046  0.129249  0  0.98123  0
H  H48  1  0.61235203  0.58716191  0.76549568  1  0.144812  0  0.114033  0.091243  0  1.021908  0
H  H49  1  0.43480912  0.69368647  0.01203030  1  0.130379  0  0.121272  0.129713  0  0.991557  0
H  H50  1  0.25573238  0.00584673  0.00018492  1  0.099641  0  0.104533  0.111385  0  1.03521  0
H  H51  1  0.71737302  0.52496730  0.14847906  1  0.101438  0  0.118176  0.087462  0  0.997626  0
H  H52  1  0.22078250  0.58076969  0.64464251  1  0.613239  0  0.269904  0.370432  0  0.979223  0
H  H53  1  0.77921708  0.41923139  0.35535738  1  0.613241  0  0.269899  0.37042  0  0.979243  0
H  H54  1  0.19597549  0.58043885  0.45364055  1  0.127115  0  0.11467  0.088929  0  1.029431  0
H  H55  1  0.15869141  0.55011769  0.10094184  1  0.010716  0  0.09676  0.073497  0  1.012594  0
H  H56  1  0.42101841  0.55889930  0.64086824  1  0.625109  0  0.270708  0.373215  0  0.974458  0
H  H57  1  0.41304318  0.16662559  0.96647267  1  0.11331  0  0.118025  0.12402  0  1.00444  0
C  C58  1  0.12772110  0.52916395  0.36609224  1  0.497895  0  0.050003  0.114777  0  3.926822  0
C  C59  1  0.92864470  0.22876168  0.41353146  1  1.580095  0  0.214606  0.573892  0  4.21094  0
C  C60  1  0.46424398  0.34988020  0.75311636  1  -0.059339  0  0.020941  0.018536  0  3.85495  0
C  C61  1  0.68843122  0.63474875  0.75953802  1  0.482735  0  0.04378  0.097159  0  3.940531  0
C  C62  1  0.61554951  0.60331796  0.29493758  1  1.661094  0  0.207398  0.575856  0  4.263743  0
C  C63  1  0.78952577  0.72550245  0.85596722  1  -0.069046  0  -0.089403  -0.176492  0  3.929464  0
C  C64  1  0.96752624  0.29110980  0.76840047  1  -0.075915  0  -0.07702  -0.163838  0  3.931212  0
C  C65  1  0.96709545  0.91217343  0.93899435  1  0.014393  0  0.00614  -0.012277  0  3.804017  0
C  C66  1  0.04964455  0.60711468  0.84934680  1  -0.084792  0  -0.094818  -0.188753  0  3.962841  0
C  C67  1  0.68656018  0.19982650  0.30467493  1  1.63642  0  0.207342  0.574574  0  4.261403  0
C  C68  1  0.44978515  0.69449203  0.09322741  1  -0.00766  0  -0.071514  -0.113907  0  3.98803  0
C  C69  1  0.81939428  0.99619107  0.88890222  1  -0.003031  0  0.013082  0.136128  0  4.022695  0
C  C70  1  0.65311275  0.91231637  0.11196917  1  -0.012297  0  -0.073697  -0.11443  0  3.992975  0
C  C71  1  0.06898511  0.98364417  0.03376203  1  -0.116016  0  0.002029  -0.024381  0  3.842657  0
C  C72  1  0.72793906  0.97044165  0.91335744  1  0.009882  0  -0.078759  -0.161558  0  3.94605  0
C  C73  1  0.60155499  0.25885091  0.84984655  1  0.150783  0  0.070181  0.043173  0  3.99921  0
C  C74  1  0.80654575  0.57697954  0.16920794  1  0.467108  0  0.049907  0.101116  0  3.9523  0
C  C75  1  0.19343594  0.42301900  0.83077951  1  0.467313  0  0.049922  0.101117  0  3.952157  0
C  C76  1  0.39844122  0.74113955  0.15014704  1  0.151259  0  0.070102  0.04306  0  3.999501  0
C  C77  1  0.18061431  0.00381965  0.11110984  1  -0.002852  0  0.013166  0.136282  0  4.022247  0
C  C78  1  0.95800052  0.62130787  0.11937441  1  0.135629  0  0.016083  0.14607  0  3.93811  0
C  C79  1  0.00852664  0.27855256  0.69178563  1  0.474688  0  0.052654  0.108272  0  3.945166  0
C  C80  1  0.47879414  0.69274679  0.30014125  1  0.032761  0  -0.008238  -0.050942  0  3.926276  0
C  C81  1  0.93740752  0.38925689  0.24326999  1  0.486202  0  0.045002  0.098696  0  3.941838  0
C  C82  1  0.76324236  0.92407552  0.16610698  1  0.184739  0  0.071464  0.049116  0  3.989064  0
C  C83  1  0.12679847  0.24369875  0.26221462  1  -0.030586  0  -0.082266  -0.178403  0  3.927747  0
C  C84  1  0.98920840  0.41149837  0.95199999  1  -0.028655  0  -0.071182  -0.075972  0  3.746321  0
C  C85  1  0.67846622  0.90346059  0.69249925  1  0.436992  0  0.053594  0.107214  0  3.944492  0
C  C86  1  0.15861565  0.44060123  0.91246089  1  -0.075521  0  -0.085912  -0.178149  0  3.96336  0
C  C87  1  0.95034469  0.39288371  0.15064953  1  -0.085066  0  -0.094864  -0.188816  0  3.962877  0
C  C88  1  0.23072608  0.33813359  0.35412157  1  0.526274  0  0.05454  0.116011  0  3.919072  0
C  C89  1  0.16942385  0.88216268  0.68944276  1  0.015247  0  -0.009101  -0.052788  0  3.931381  0
C  C90  1  0.31344506  0.80017368  0.69532733  1  1.636372  0  0.207126  0.57418  0  4.26155  0
C  C91  1  0.38445652  0.39668228  0.70506213  1  1.661174  0  0.207285  0.575669  0  4.264241  0
C  C92  1  0.48601031  0.68547013  0.40656827  1  1.590664  0  0.214619  0.574321  0  4.202011  0
C  C93  1  0.14656005  0.54031406  0.27821898  1  -0.042552  0  -0.089673  -0.187493  0  3.946286  0
C  C94  1  0.32154545  0.09655026  0.30750822  1  0.436783  0  0.05352  0.1072  0  3.944533  0
C  C95  1  0.79287785  0.96698512  0.77578836  1  0.024888  0  -0.074691  -0.162068  0  3.918456  0
C  C96  1  0.51828836  0.64934644  0.14239988  1  0.016546  0  -0.077984  -0.094066  0  3.933492  0
C  C97  1  0.06258253  0.61074327  0.75672783  1  0.485973  0  0.044992  0.09872  0  3.941781  0
C  C98  1  0.03290692  0.08783365  0.06101812  1  0.014266  0  0.006102  -0.012254  0  3.804052  0
C  C99  1  0.85343324  0.45967993  0.72177535  1  -0.043106  0  -0.089654  -0.18755  0  3.946319  0
C  C100  1  0.55021469  0.30550465  0.90676919  1  -0.008241  0  -0.07157  -0.113925  0  3.987967  0
C  C101  1  0.61571100  0.90435027  0.82462163  1  0.486328  0  0.048085  0.09457  0  3.944586  0
C  C102  1  0.94483000  0.52531490  0.83267082  1  -0.003094  0  0.002843  0.123636  0  3.964496  0
C  C103  1  0.01078069  0.58849475  0.04799195  1  -0.028319  0  -0.0712  -0.075979  0  3.746295  0
C  C104  1  0.21047127  0.27450301  0.14403590  1  -0.068883  0  -0.089348  -0.176364  0  3.929642  0
C  C105  1  0.93101435  0.01635494  0.96624576  1  -0.116015  0  0.002032  -0.024365  0  3.842996  0
C  C106  1  0.88333595  0.79326784  0.84597744  1  -0.008853  0  0.005754  0.120849  0  4.0271  0
C  C107  1  0.23675860  0.07592192  0.83389588  1  0.185065  0  0.071497  0.049053  0  3.989025  0
C  C108  1  0.83058106  0.11783841  0.31055822  1  0.015386  0  -0.009125  -0.052824  0  3.931492  0
C  C109  1  0.87320882  0.75630749  0.73779715  1  -0.030414  0  -0.08212  -0.178095  0  3.927646  0
C  C110  1  0.58902588  0.26048126  0.74827191  1  0.016206  0  -0.069945  -0.12939  0  3.953161  0
C  C111  1  0.31156809  0.36525504  0.24046042  1  0.482557  0  0.043819  0.097176  0  3.940632  0
C  C112  1  0.51399420  0.31453012  0.59343021  1  1.590478  0  0.214803  0.574601  0  4.201585  0
C  C113  1  0.48171573  0.35065288  0.85760032  1  0.016867  0  -0.077956  -0.094077  0  3.93364  0
C  C114  1  0.36787390  0.99603728  0.84083935  1  -0.076475  0  -0.079992  -0.09605  0  3.93921  0
C  C115  1  0.28074584  0.89345780  0.74041279  1  0.048411  0  0.020278  0.018605  0  3.855511  0
C  C116  1  0.76928440  0.66187633  0.64588736  1  0.52603  0  0.054479  0.115886  0  3.919049  0
C  C117  1  0.20713269  0.03302657  0.22422110  1  0.024735  0  -0.074729  -0.162055  0  3.918062  0
C  C118  1  0.04198984  0.37868967  0.88062064  1  0.135539  0  0.015972  0.145933  0  3.938205  0
C  C119  1  0.38429511  0.09565345  0.17538264  1  0.486382  0  0.048043  0.094497  0  3.94463  0
C  C120  1  0.93304058  0.49408674  0.92343284  1  0.021774  0  -0.071604  -0.063603  0  3.74319  0
C  C121  1  0.41097300  0.73951002  0.25172566  1  0.016238  0  -0.069868  -0.129335  0  3.953154  0
C  C122  1  0.14801426  0.97426405  0.73632292  1  0.03862  0  -0.068294  -0.125967  0  3.948498  0
C  C123  1  0.03246132  0.70888329  0.23159237  1  -0.075894  0  -0.077119  -0.164003  0  3.931298  0
C  C124  1  0.11666504  0.20673127  0.15403086  1  -0.008642  0  0.005783  0.120907  0  4.027125  0
C  C125  1  0.52120755  0.30724897  0.69985713  1  0.032893  0  -0.00825  -0.050949  0  3.926117  0
C  C126  1  0.71926022  0.10654414  0.25959095  1  0.04776  0  0.020254  0.01843  0  3.855755  0
C  C127  1  0.27206546  0.02956022  0.08664859  1  0.006988  0  -0.078741  -0.161583  0  3.945969  0
C  C128  1  0.84136871  0.55939816  0.08752913  1  -0.075742  0  -0.085923  -0.178165  0  3.963447  0
C  C129  1  0.87227231  0.47083363  0.63390173  1  0.498603  0  0.050038  0.114816  0  3.926643  0
C  C130  1  0.05515879  0.47468087  0.16732249  1  -0.00271  0  0.002908  0.123759  0  3.96444  0
C  C131  1  0.07135992  0.77124210  0.58646948  1  1.579955  0  0.214584  0.5739  0  4.210842  0
C  C132  1  0.53576081  0.65011734  0.24688357  1  -0.05919  0  0.020889  0.01844  0  3.854806  0
C  C133  1  0.34688627  0.08768012  0.88803559  1  -0.01263  0  -0.073722  -0.114418  0  3.992999  0
C  C134  1  0.63212905  0.00396285  0.15916423  1  -0.076261  0  -0.079978  -0.096043  0  3.939272  0
C  C135  1  0.85198866  0.02573438  0.26367663  1  0.038547  0  -0.068278  -0.125928  0  3.94845  0
C  C136  1  0.99145898  0.72143961  0.30820770  1  0.474635  0  0.052705  0.108492  0  3.944789  0
C  C137  1  0.06694733  0.50590547  0.07655915  1  0.021749  0  -0.071558  -0.063679  0  3.742863  0
N  N138  1  0.88095650  0.65330107  0.27871514  1  -1.263137  0  -0.332108  -0.254469  0  3.568612  0
N  N139  1  0.32897736  0.79186571  0.10152487  1  0.332425  0  0.049038  0.508303  0  4.203888  0
N  N140  1  0.11902652  0.34669207  0.72127405  1  -1.263168  0  -0.332149  -0.254535  0  3.568899  0
N  N141  1  0.21363093  0.17172162  0.88170617  1  0.32519  0  0.052053  0.514026  0  4.196618  0
N  N142  1  0.02385138  0.45874766  0.35000020  1  -1.245131  0  -0.319823  -0.241664  0  3.496448  0
N  N143  1  0.67645924  0.60553100  0.65512423  1  -1.227138  0  -0.312032  -0.241624  0  3.474493  0
N  N144  1  0.32354631  0.39447812  0.34487855  1  -1.22726  0  -0.312111  -0.241734  0  3.474529  0
N  N145  1  0.78637163  0.82827765  0.11829562  1  0.325602  0  0.052052  0.514014  0  4.196416  0
N  N146  1  0.59129961  0.86759688  0.71582566  1  -1.238365  0  -0.329576  -0.249287  0  3.566783  0
N  N147  1  0.40870891  0.13241043  0.28417902  1  -1.238387  0  -0.329545  -0.249232  0  3.56704  0
N  N148  1  0.67101956  0.20812297  0.89846845  1  0.333265  0  0.048998  0.508215  0  4.204124  0
N  N149  1  0.97614283  0.54125167  0.64999596  1  -1.24528  0  -0.319852  -0.241741  0  3.496486  0
O  O150  1  0.71896917  0.68353465  0.37047392  1  -1.156294  0  -0.327891  -0.545503  0  2.29763  0
O  O151  1  0.57167215  0.42213579  0.41943445  1  -1.238736  0  -0.593943  -0.874857  0  2.205525  0
O  O152  1  0.11137449  0.15059362  0.84772360  1  -0.47321  0  -0.13369  -0.350621  0  1.945815  0
O  O153  1  0.66522382  0.18743119  0.97749974  1  -0.464982  0  -0.127011  -0.335152  0  1.933224  0
O  O154  1  0.45719315  0.36279844  0.55459606  1  -1.166848  0  -0.294995  -0.530373  0  2.353171  0
O  O155  1  0.15505924  0.50386160  0.58464736  1  -1.229927  0  -0.596488  -0.876698  0  2.206109  0
O  O156  1  0.90821766  0.31249322  0.45137102  1  -1.170423  0  -0.294864  -0.531082  0  2.366607  0
O  O157  1  0.73429003  0.18929057  0.85932793  1  -0.497249  0  -0.134593  -0.35618  0  1.98609  0
O  O158  1  0.56809726  0.27114940  0.55184215  1  -1.172768  0  -0.318944  -0.541293  0  2.29803  0
O  O159  1  0.33477315  0.81255925  0.02249481  1  -0.464976  0  -0.127073  -0.33524  0  1.933183  0
O  O160  1  0.43190688  0.72885168  0.44815928  1  -1.17269  0  -0.3189  -0.541173  0  2.298  0
O  O161  1  0.28103697  0.31647072  0.62953649  1  -1.156158  0  -0.327918  -0.545501  0  2.297954  0
O  O162  1  0.09178600  0.68750515  0.54863160  1  -1.170329  0  -0.294888  -0.531118  0  2.366529  0
O  O163  1  0.84494180  0.49613768  0.41535321  1  -1.22993  0  -0.596482  -0.876669  0  2.206123  0
O  O164  1  0.67572677  0.26282497  0.25468813  1  -1.159987  0  -0.314435  -0.540002  0  2.127595  0
O  O165  1  0.42833589  0.57786882  0.58057072  1  -1.238509  0  -0.593946  -0.874921  0  2.205429  0
O  O166  1  0.97438239  0.77188447  0.54581806  1  -1.176038  0  -0.320407  -0.541193  0  2.293654  0
O  O167  1  0.33899455  0.80275347  0.61654636  1  -1.151166  0  -0.327589  -0.547946  0  2.297231  0
O  O168  1  0.29780321  0.27000017  0.95582486  1  -0.477676  0  -0.130872  -0.342616  0  1.939435  0
O  O169  1  0.02562403  0.22811502  0.45417519  1  -1.175918  0  -0.320442  -0.541213  0  2.293689  0
O  O170  1  0.66101590  0.19725474  0.38345853  1  -1.15112  0  -0.327712  -0.54812  0  2.29728  0
O  O171  1  0.42147008  0.50708931  0.74915119  1  -1.18009  0  -0.314642  -0.540345  0  2.121558  0
O  O172  1  0.32427538  0.73717343  0.74531257  1  -1.159984  0  -0.314378  -0.539864  0  2.127567  0
O  O173  1  0.70219934  0.72999908  0.04417764  1  -0.478  0  -0.130935  -0.342719  0  1.939374  0
O  O174  1  0.88862889  0.84940748  0.15227687  1  -0.473329  0  -0.133618  -0.350534  0  1.945684  0
O  O175  1  0.54281177  0.63720269  0.44540352  1  -1.167079  0  -0.294877  -0.530217  0  2.353416  0
O  O176  1  0.26571120  0.81070251  0.14067023  1  -0.497072  0  -0.134587  -0.356156  0  1.985849  0
O  O177  1  0.57854133  0.49291115  0.25084048  1  -1.179993  0  -0.314748  -0.540453  0  2.121442  0
