# generated using pymatgen
data_Zn4H54C79N28O23
_symmetry_space_group_name_H-M   'P 1'
_cell_length_a   19.51880966
_cell_length_b   18.88466998
_cell_length_c   21.36256310
_cell_angle_alpha   108.62067461
_cell_angle_beta   103.46931616
_cell_angle_gamma   112.41607394
_symmetry_Int_Tables_number   1
_chemical_formula_structural   Zn4H54C79N28O23
_chemical_formula_sum   'Zn4 H54 C79 N28 O23'
_cell_volume   6307.65982777
_cell_formula_units_Z   1
loop_
 _symmetry_equiv_pos_site_id
 _symmetry_equiv_pos_as_xyz
  1  'x, y, z'
loop_
 _atom_site_type_symbol
 _atom_site_label
 _atom_site_symmetry_multiplicity
 _atom_site_fract_x
 _atom_site_fract_y
 _atom_site_fract_z
 _atom_site_occupancy
 _atom_site_pbe_bader_charge
 _atom_site_pbe_bader_spin_density
 _atom_site_pbe_cm5_charge
 _atom_site_pbe_ddec_charge
 _atom_site_pbe_ddec_spin_density
 _atom_site_pbe_ddec_sum_bond_order
 _atom_site_pbe_magmom
Zn  Zn0  1  0.09303753  0.09332873  0.47683016  1  1.184835  0  0.735086  0.610428  0  2.439075  0
Zn  Zn1  1  0.89246190  0.88936132  0.50098862  1  1.206457  0  0.754837  0.701876  0  2.199233  0
Zn  Zn2  1  0.00057449  0.87370306  0.38570962  1  1.219539  0  0.760007  0.709311  0  2.21745  0
Zn  Zn3  1  0.07519894  0.12990203  0.63654033  1  1.221099  0  0.756455  0.698552  0  2.436636  0
H  H4  1  0.03964737  0.14038980  0.33700265  1  0.090161  0  0.125821  0.116203  0  0.99166  0
H  H5  1  0.76956113  0.92931137  0.40938909  1  0.11619  0  0.114357  0.106725  0  1.008692  0
H  H6  1  0.93387445  0.08224667  0.39311173  1  0.080288  0  0.114613  0.105952  0  1.03088  0
H  H7  1  0.25967641  0.30480419  0.55825870  1  0.094494  0  0.123625  0.116932  0  0.984017  0
H  H8  1  0.86236990  0.70712478  0.49817414  1  0.071829  0  0.12194  0.110335  0  0.991376  0
H  H9  1  0.16810028  0.87139914  0.36206613  1  0.087507  0  0.126073  0.117187  0  0.981436  0
H  H10  1  0.88131557  0.86413091  0.64298788  1  0.100218  0  0.124797  0.116855  0  0.976365  0
H  H11  1  0.26795870  0.13199295  0.52552099  1  0.105258  0  0.116611  0.106869  0  1.037647  0
H  H12  1  0.25262333  0.24741289  0.73794642  1  0.130566  0  0.126767  0.126239  0  0.978799  0
H  H13  1  0.05999066  0.76261246  0.42894322  1  0.080266  0  0.114333  0.104703  0  1.000726  0
H  H14  1  0.88050811  0.28405088  0.54762313  1  0.071134  0  0.108539  0.124684  0  1.015932  0
H  H15  1  0.94825237  0.20388745  0.37000452  1  0.015139  0  0.087497  0.082269  0  1.046234  0
H  H16  1  0.93667387  0.31587268  0.34066224  1  0.056999  0  0.100492  0.10212  0  0.996316  0
H  H17  1  0.06084325  0.63643648  0.44914477  1  0.059319  0  0.096254  0.10606  0  1.04488  0
H  H18  1  0.81349650  0.55947291  0.42175051  1  0.042529  0  0.097701  0.103104  0  1.008492  0
H  H19  1  0.79188356  0.41761873  0.41044775  1  0.083234  0  0.108171  0.114137  0  0.984004  0
H  H20  1  0.48972134  0.91012669  0.40335517  1  0.061353  0  0.101978  0.102553  0  0.993422  0
H  H21  1  0.61264745  0.89673759  0.43728567  1  0.051741  0  0.101912  0.106455  0  0.997655  0
H  H22  1  0.76093800  0.16319659  0.49454902  1  0.098057  0  0.100101  0.103181  0  1.029376  0
H  H23  1  0.63867990  0.17646853  0.45846064  1  0.091136  0  0.107198  0.116442  0  0.988378  0
H  H24  1  0.27677000  0.93237912  0.32681841  1  0.123842  0  0.116925  0.131257  0  0.995562  0
H  H25  1  0.69655571  0.77135637  0.19687358  1  0.133073  0  0.124489  0.14374  0  0.962504  0
H  H26  1  0.53266644  0.45611910  0.86430095  1  0.109001  0  0.111955  0.116408  0  0.993722  0
H  H27  1  0.44161135  0.34826323  0.73617887  1  0.083729  0  0.101225  0.100729  0  1.016215  0
H  H28  1  0.37758744  0.56796047  0.86682914  1  0.095678  0  0.11747  0.125274  0  0.97351  0
H  H29  1  0.54301143  0.45360738  0.06062664  1  0.150356  0  0.128783  0.147303  0  0.976961  0
H  H30  1  0.28430468  0.45776602  0.73908134  1  0.057694  0  0.106038  0.109721  0  0.989327  0
H  H31  1  0.98736785  0.06396080  0.96868066  1  0.120395  0  0.112979  0.129951  0  1.006703  0
H  H32  1  0.91776915  0.16341881  0.13769926  1  0.079642  0  0.110867  0.116343  0  0.983356  0
H  H33  1  0.95069807  0.14233000  0.24723584  1  0.051892  0  0.099988  0.099144  0  1.012987  0
H  H34  1  0.80791546  0.94159462  0.71133795  1  0.067321  0  0.10578  0.118097  0  1.027364  0
H  H35  1  0.82923354  0.89603119  0.00411862  1  0.09479  0  0.111289  0.116577  0  0.995511  0
H  H36  1  0.86455639  0.87422711  0.11176526  1  0.073182  0  0.102275  0.108421  0  1.033042  0
H  H37  1  0.96593980  0.51703270  0.58022638  1  0.051457  0  0.092118  0.087523  0  1.002285  0
H  H38  1  0.94892875  0.44910402  0.62441111  1  0.028269  0  0.093321  0.087502  0  0.996737  0
H  H39  1  0.89037946  0.50219866  0.61687808  1  0.053525  0  0.106146  0.110539  0  0.973378  0
H  H40  1  0.15384896  0.60006498  0.48929564  1  0.038712  0  0.098372  0.094259  0  0.987663  0
H  H41  1  0.11543023  0.56154685  0.39299341  1  0.047494  0  0.098291  0.093965  0  0.988315  0
H  H42  1  0.15747260  0.50910811  0.43302185  1  0.052259  0  0.109635  0.113355  0  0.971421  0
H  H43  1  0.77563391  0.63341739  0.13498842  1  0.076203  0  0.101619  0.105532  0  1.011142  0
H  H44  1  0.76986897  0.55913695  0.17299952  1  0.051964  0  0.102372  0.106139  0  0.991766  0
H  H45  1  0.85292007  0.60425864  0.14943903  1  0.067485  0  0.119697  0.131844  0  0.952103  0
H  H46  1  0.48584918  0.26554160  0.57124745  1  0.092561  0  0.108247  0.115051  0  0.98496  0
H  H47  1  0.51156455  0.23882232  0.64391812  1  0.091423  0  0.108492  0.116767  0  0.985413  0
H  H48  1  0.43025324  0.26213102  0.62731610  1  0.0629  0  0.105998  0.111167  0  1.000454  0
H  H49  1  0.09258761  0.30043304  0.69555551  1  0.058592  0  0.097162  0.097452  0  1.005668  0
H  H50  1  0.00323097  0.23382434  0.70415649  1  0.11976  0  0.099284  0.108562  0  1.036898  0
H  H51  1  0.03106783  0.34279279  0.72429432  1  0.060885  0  0.117139  0.129005  0  0.954611  0
H  H52  1  0.07701645  0.96108613  0.87247129  1  0.041009  0  0.095354  0.090748  0  0.986596  0
H  H53  1  0.08311221  0.02498322  0.95855318  1  0.054103  0  0.097073  0.093699  0  1.000674  0
H  H54  1  0.16417240  0.06562212  0.93154489  1  0.072524  0  0.110165  0.116499  0  0.968645  0
H  H55  1  0.68319318  0.83993024  0.69397972  1  0.053343  0  0.099429  0.094741  0  0.987779  0
H  H56  1  0.69121667  0.94244303  0.70808774  1  0.079897  0  0.106879  0.109873  0  0.972859  0
H  H57  1  0.61726252  0.87059907  0.72708771  1  0.086217  0  0.11555  0.121507  0  0.965001  0
C  C58  1  0.01212054  0.07197612  0.32098987  1  0.435542  0  0.016497  -0.053997  0  3.96754  0
C  C59  1  0.79078784  0.96763013  0.46703690  1  0.328556  0  -0.001964  -0.059392  0  3.977121  0
C  C60  1  0.82642979  0.72348437  0.27925522  1  1.085672  0  0.192402  0.299239  0  4.0809  0
C  C61  1  0.97884608  0.20160255  0.56170202  1  1.02744  0  0.20047  0.325092  0  4.053983  0
C  C62  1  0.75964200  0.76300593  0.33873020  1  0.788393  0  0.179901  0.107782  0  4.029951  0
C  C63  1  0.95379665  0.11677137  0.45095057  1  0.384629  0  0.001007  -0.030288  0  4.016295  0
C  C64  1  0.81796243  0.05551082  0.57645421  1  0.783734  0  0.170786  0.080317  0  3.996165  0
C  C65  1  0.94544131  0.93184835  0.26677325  1  0.766739  0  0.178261  0.098863  0  3.976078  0
C  C66  1  0.95198503  0.00262010  0.25397852  1  0.036552  0  -0.014714  -0.060822  0  4.016555  0
C  C67  1  0.76609969  0.02210233  0.50295216  1  0.06993  0  -0.019125  -0.058362  0  4.023816  0
C  C68  1  0.74636641  0.70265490  0.27136338  1  0.074942  0  -0.035794  -0.192183  0  4.036417  0
C  C69  1  0.94220228  0.18338982  0.48865006  1  0.099571  0  -0.042389  -0.143477  0  4.051457  0
C  C70  1  0.24613555  0.27746859  0.59445057  1  0.425321  0  0.011981  -0.052337  0  3.978224  0
C  C71  1  0.91155083  0.73381966  0.48238565  1  0.41099  0  0.011462  -0.042278  0  3.953643  0
C  C72  1  0.17972438  0.93246423  0.40134242  1  0.399454  0  0.018247  -0.038848  0  3.954088  0
C  C73  1  0.02112075  0.06526305  0.72667830  1  0.789346  0  0.185462  0.085485  0  3.993179  0
C  C74  1  0.92901273  0.92979708  0.66335589  1  0.38639  0  0.020126  -0.049683  0  3.941828  0
C  C75  1  0.23105863  0.06531175  0.48542224  1  0.436843  0  0.006877  -0.043455  0  3.965217  0
C  C76  1  0.24307662  0.24659257  0.68550657  1  0.353976  0  0.01215  -0.041085  0  3.972637  0
C  C77  1  0.01274752  0.76224814  0.44776221  1  0.353221  0  -0.003191  -0.060646  0  3.974594  0
C  C78  1  0.28738789  0.31133241  0.66942319  1  0.04264  0  -0.035607  -0.050037  0  4.083276  0
C  C79  1  0.95513330  0.69662327  0.45523332  1  0.037467  0  -0.032974  -0.024142  0  4.061723  0
C  C80  1  0.25294430  0.01137354  0.44271858  1  0.045782  0  -0.034722  -0.022411  0  4.063329  0
C  C81  1  0.96055439  0.99907320  0.73158605  1  0.101954  0  0.002834  -0.001994  0  4.004844  0
C  C82  1  0.88371887  0.35069322  0.48329465  1  0.463896  0  0.080416  0.212663  0  4.025634  0
C  C83  1  0.89188339  0.28869757  0.50117266  1  0.010926  0  -0.103432  -0.256274  0  3.9792  0
C  C84  1  0.91784084  0.23647047  0.46259024  1  -0.02889  0  -0.010798  0.124977  0  4.051392  0
C  C85  1  0.92944367  0.24460754  0.40199086  1  -0.013139  0  -0.106956  -0.158463  0  4.015715  0
C  C86  1  0.92314876  0.30789887  0.38546069  1  -0.035689  0  -0.093243  -0.107885  0  4.040665  0
C  C87  1  0.90363520  0.36521883  0.42748490  1  0.018793  0  -0.016918  -0.021466  0  3.992741  0
C  C88  1  0.98733724  0.50563004  0.42866135  1  0.455201  0  0.080688  0.209339  0  4.042809  0
C  C89  1  0.00117407  0.58756299  0.43866392  1  -0.061222  0  -0.124168  -0.293082  0  4.013651  0
C  C90  1  0.94002517  0.60941582  0.43936936  1  0.004991  0  -0.013877  0.106593  0  4.085026  0
C  C91  1  0.86337351  0.54582097  0.42584384  1  -0.036456  0  -0.109068  -0.167875  0  4.021265  0
C  C92  1  0.85067946  0.46526451  0.41803543  1  -0.000735  0  -0.088247  -0.101315  0  4.032728  0
C  C93  1  0.91214090  0.44372275  0.42138423  1  0.006174  0  -0.021713  -0.03266  0  3.998899  0
C  C94  1  0.54918128  0.96551481  0.42226803  1  -0.026155  0  -0.090241  -0.115698  0  3.985061  0
C  C95  1  0.61820519  0.95801036  0.44164706  1  -0.072563  0  -0.089034  -0.123704  0  3.976335  0
C  C96  1  0.69553759  0.03027993  0.47172370  1  0.05194  0  -0.003438  0.097169  0  4.030099  0
C  C97  1  0.70149707  0.10762461  0.47457886  1  0.00541  0  -0.083984  -0.104783  0  3.955002  0
C  C98  1  0.63243854  0.11518492  0.45438729  1  -0.075504  0  -0.087962  -0.111875  0  3.954447  0
C  C99  1  0.55560836  0.04525047  0.43154158  1  0.03555  0  -0.016316  0.056814  0  4.023685  0
C  C100  1  0.47831926  0.10432059  0.48849003  1  0.183433  0  0.06687  -0.082977  0  3.904513  0
C  C101  1  0.40595519  0.09651696  0.49511864  1  0.558932  0  0.103246  0.171255  0  4.010727  0
C  C102  1  0.33072924  0.02951665  0.43764557  1  0.061832  0  -0.009339  0.008762  0  4.027902  0
C  C103  1  0.33281624  0.98039985  0.37415858  1  -0.009593  0  -0.079338  -0.162087  0  3.981136  0
C  C104  1  0.40549707  0.99256841  0.36838997  1  0.214953  0  0.069256  0.013763  0  3.949011  0
C  C105  1  0.48129320  0.05164497  0.42676218  1  0.113318  0  0.015115  0.014695  0  3.967732  0
C  C106  1  0.35491630  0.39332749  0.73026200  1  -0.042524  0  8.9e-05  0.095777  0  4.005771  0
C  C107  1  0.34003973  0.45908681  0.76577781  1  -0.008837  0  -0.086538  -0.128897  0  3.978343  0
C  C108  1  0.39145347  0.52027791  0.83708623  1  -0.005209  0  -0.070835  -0.122677  0  3.931824  0
C  C109  1  0.45698940  0.51415378  0.87391006  1  0.323879  0  0.089855  0.165087  0  4.045214  0
C  C110  1  0.47851911  0.45613083  0.83596342  1  -0.061892  0  -0.078739  -0.129688  0  3.962288  0
C  C111  1  0.42788209  0.39681005  0.76459327  1  -0.000384  0  -0.089046  -0.128881  0  3.999431  0
C  C112  1  0.60911489  0.66212346  0.09580694  1  0.170882  0  0.099788  0.043834  0  3.873259  0
C  C113  1  0.66066369  0.70150773  0.16801382  1  0.079176  0  -0.064929  -0.146568  0  3.899054  0
C  C114  1  0.56727769  0.57189318  0.05472560  1  0.446347  0  0.102366  0.134506  0  4.040908  0
C  C115  1  0.67394577  0.65327901  0.20285806  1  0.06393  0  0.016766  0.098792  0  3.994044  0
C  C116  1  0.62639562  0.56343600  0.16359752  1  0.173125  0  0.081213  0.020374  0  3.918622  0
C  C117  1  0.57553342  0.52340175  0.09085501  1  0.072178  0  -0.058384  -0.156808  0  3.900115  0
C  C118  1  0.91572567  0.00809298  0.18872775  1  0.035912  0  -0.008897  0.086456  0  4.026482  0
C  C119  1  0.87661409  0.93806445  0.11907427  1  -0.036142  0  -0.091675  -0.119017  0  3.971268  0
C  C120  1  0.85543430  0.94928080  0.05785657  1  0.008717  0  -0.079167  -0.126849  0  3.943424  0
C  C121  1  0.87393841  0.03157543  0.06412617  1  0.35802  0  0.089808  0.167397  0  4.063236  0
C  C122  1  0.90597448  0.10033421  0.13317279  1  -0.027233  0  -0.080217  -0.134784  0  3.967651  0
C  C123  1  0.92529790  0.08816657  0.19415229  1  -0.044853  0  -0.091275  -0.126431  0  3.984979  0
C  C124  1  0.94894147  0.03735184  0.91188183  1  -0.016288  0  -0.094688  -0.251349  0  3.969262  0
C  C125  1  0.98193198  0.03622593  0.86084144  1  0.522835  0  0.077387  0.202079  0  4.067857  0
C  C126  1  0.86485093  0.00022528  0.89195343  1  0.382641  0  0.087305  0.092832  0  4.049506  0
C  C127  1  0.93026042  0.00107431  0.78780382  1  0.057265  0  -0.009785  0.016987  0  4.031503  0
C  C128  1  0.84594190  0.96517069  0.76757080  1  -0.028836  0  -0.108143  -0.25527  0  3.987894  0
C  C129  1  0.81217897  0.96309855  0.81814990  1  0.551954  0  0.091391  0.194922  0  4.034541  0
C  C130  1  0.91975739  0.47102411  0.58997209  1  0.405547  0  -0.136736  -0.160781  0  3.938658  0
C  C131  1  0.12207714  0.54229729  0.43665330  1  0.416375  0  -0.133903  -0.167682  0  3.95024  0
C  C132  1  0.81012990  0.61633428  0.17004571  1  0.400382  0  -0.128911  -0.162404  0  3.862467  0
C  C133  1  0.46199792  0.23316718  0.60200578  1  0.337147  0  -0.133581  -0.180318  0  3.868732  0
C  C134  1  0.03045468  0.28539128  0.68958366  1  0.347151  0  -0.136984  -0.172547  0  3.875452  0
C  C135  1  0.09833988  0.02708166  0.91249515  1  0.386357  0  -0.133072  -0.162583  0  3.928661  0
C  C136  1  0.67842804  0.89398989  0.72827848  1  0.353617  0  -0.127507  -0.169501  0  3.913415  0
N  N137  1  0.03548503  0.04335539  0.36777806  1  -0.73229  0  -0.25662  -0.131715  0  3.56794  0
N  N138  1  0.85078865  0.96895231  0.51644437  1  -0.767002  0  -0.273833  -0.160024  0  3.689659  0
N  N139  1  0.87949970  0.79546377  0.34234331  1  -0.772491  0  -0.263027  -0.243993  0  3.546652  0
N  N140  1  0.01165613  0.15132526  0.56606979  1  -0.837837  0  -0.302762  -0.307818  0  3.578371  0
N  N141  1  0.83861222  0.81872147  0.38041903  1  -0.706145  0  -0.247233  -0.235656  0  3.468652  0
N  N142  1  0.99658597  0.09773876  0.49644741  1  -0.818037  0  -0.308296  -0.25595  0  3.563632  0
N  N143  1  0.86763698  0.02276147  0.58384297  1  -0.633822  0  -0.234224  -0.235586  0  3.317408  0
N  N144  1  0.99427370  0.95633213  0.33462220  1  -0.778271  0  -0.246041  -0.241404  0  3.469674  0
N  N145  1  0.18140156  0.19873631  0.56866963  1  -0.793715  0  -0.27497  -0.172012  0  3.563563  0
N  N146  1  0.94069149  0.81401618  0.48910647  1  -0.786993  0  -0.283581  -0.169097  0  3.670754  0
N  N147  1  0.11990169  0.94020963  0.41783259  1  -0.781561  0  -0.276197  -0.172724  0  3.615786  0
N  N148  1  0.02308772  0.03632109  0.66042026  1  -0.720451  0  -0.264228  -0.225636  0  3.631278  0
N  N149  1  0.96655844  0.95339301  0.62177768  1  -0.666209  0  -0.222819  -0.131276  0  3.454226  0
N  N150  1  0.15100699  0.02251806  0.46953175  1  -0.80459  0  -0.281464  -0.201141  0  3.550217  0
N  N151  1  0.17948641  0.17979890  0.62529532  1  -0.824494  0  -0.292804  -0.212061  0  3.573732  0
N  N152  1  0.00309535  0.83272930  0.46748367  1  -0.76707  0  -0.285077  -0.236493  0  3.486438  0
N  N153  1  0.49541490  0.56268862  0.94965667  1  -0.465373  0  -0.133542  -0.102797  0  3.242033  0
N  N154  1  0.52232157  0.52518002  0.97985789  1  -0.484469  0  -0.147354  -0.132018  0  3.299856  0
N  N155  1  0.87807126  0.05098013  0.00666565  1  -0.514934  0  -0.14944  -0.138753  0  3.297846  0
N  N156  1  0.83432786  0.98937461  0.94325804  1  -0.456473  0  -0.14012  -0.098314  0  3.279007  0
N  N157  1  0.06870655  0.15395514  0.77295882  1  0.235433  0  0.050845  0.500635  0  4.165496  0
N  N158  1  0.55523703  0.16309119  0.55392095  1  0.395922  0  0.057596  0.52821  0  4.238649  0
N  N159  1  0.40021226  0.94165826  0.29716469  1  0.372701  0  0.051485  0.518635  0  4.216755  0
N  N160  1  0.60867786  0.72017895  0.06307684  1  0.42197  0  0.062413  0.513631  0  4.270665  0
N  N161  1  0.63283720  0.50841914  0.19805640  1  0.364113  0  0.056591  0.514677  0  4.21968  0
N  N162  1  0.70126315  0.75855565  0.36956903  1  0.316757  0  0.051497  0.507498  0  4.231192  0
N  N163  1  0.82130169  0.11524005  0.64070748  1  0.291867  0  0.049409  0.506317  0  4.248205  0
N  N164  1  0.90616286  0.84262127  0.21515163  1  0.31279  0  0.052806  0.502843  0  4.235578  0
O  O165  1  0.06724124  0.18631305  0.83195231  1  -0.377877  0  -0.086065  -0.253403  0  1.921815  0
O  O166  1  0.11314405  0.20025874  0.74910244  1  -0.583366  0  -0.183855  -0.404742  0  2.070525  0
O  O167  1  0.85707798  0.39972364  0.52306109  1  -1.079787  0  -0.214385  -0.204623  0  2.531727  0
O  O168  1  0.04562992  0.48189710  0.42928504  1  -1.068261  0  -0.188784  -0.16373  0  2.599531  0
O  O169  1  0.56767850  0.13785447  0.59983816  1  -0.42802  0  -0.110584  -0.298685  0  1.857979  0
O  O170  1  0.60054222  0.23296557  0.55802677  1  -0.423539  0  -0.118661  -0.328416  0  1.902224  0
O  O171  1  0.85972659  0.68713215  0.24114090  1  -1.080348  0  -0.177014  -0.161587  0  2.639127  0
O  O172  1  0.40126040  0.14454824  0.55485107  1  -1.075624  0  -0.175181  -0.139999  0  2.603809  0
O  O173  1  0.45790517  0.97260282  0.28113604  1  -0.436677  0  -0.132038  -0.325405  0  1.879316  0
O  O174  1  0.33676796  0.87179145  0.25675490  1  -0.467059  0  -0.159791  -0.359515  0  1.855389  0
O  O175  1  0.64753355  0.72671701  0.02508555  1  -0.434192  0  -0.125907  -0.31332  0  1.870529  0
O  O176  1  0.57419039  0.76121453  0.08030250  1  -0.406212  0  -0.117843  -0.304033  0  1.858231  0
O  O177  1  0.60834193  0.43207311  0.15775489  1  -0.45319  0  -0.138815  -0.334795  0  1.86359  0
O  O178  1  0.66201248  0.54200589  0.26495763  1  -0.420013  0  -0.129584  -0.322866  0  1.895825  0
O  O179  1  0.98091240  0.26232333  0.61726147  1  -1.079416  0  -0.171912  -0.159451  0  2.594668  0
O  O180  1  0.06385595  0.06771938  0.87937245  1  -1.085447  0  -0.206848  -0.192987  0  2.578962  0
O  O181  1  0.73173048  0.93086242  0.80238067  1  -1.066351  0  -0.17942  -0.141614  0  2.564654  0
O  O182  1  0.62966952  0.72680673  0.32851769  1  -0.442879  0  -0.130837  -0.318014  0  1.857233  0
O  O183  1  0.72656951  0.78525036  0.43674475  1  -0.483942  0  -0.146231  -0.357137  0  1.921698  0
O  O184  1  0.76853200  0.13713037  0.63337928  1  -0.451369  0  -0.149464  -0.345979  0  1.889365  0
O  O185  1  0.87639962  0.14137562  0.69978822  1  -0.476967  0  -0.163383  -0.368487  0  1.915867  0
O  O186  1  0.83271787  0.80550143  0.17570222  1  -0.450938  0  -0.12397  -0.33729  0  1.968436  0
O  O187  1  0.94995454  0.80917696  0.21252436  1  -0.440104  0  -0.124471  -0.323006  0  1.905785  0
