# generated using pymatgen
data_Zn4H47C47N5O13
_symmetry_space_group_name_H-M   'P 1'
_cell_length_a   13.10997090
_cell_length_b   19.15737856
_cell_length_c   19.30724653
_cell_angle_alpha   85.07294647
_cell_angle_beta   84.40093272
_cell_angle_gamma   84.02604344
_symmetry_Int_Tables_number   1
_chemical_formula_structural   Zn4H47C47N5O13
_chemical_formula_sum   'Zn4 H47 C47 N5 O13'
_cell_volume   4785.65406082
_cell_formula_units_Z   1
loop_
 _symmetry_equiv_pos_site_id
 _symmetry_equiv_pos_as_xyz
  1  'x, y, z'
loop_
 _atom_site_type_symbol
 _atom_site_label
 _atom_site_symmetry_multiplicity
 _atom_site_fract_x
 _atom_site_fract_y
 _atom_site_fract_z
 _atom_site_occupancy
 _atom_site_pbe_bader_charge
 _atom_site_pbe_bader_spin_density
 _atom_site_pbe_cm5_charge
 _atom_site_pbe_ddec_charge
 _atom_site_pbe_ddec_spin_density
 _atom_site_pbe_ddec_sum_bond_order
 _atom_site_pbe_magmom
Zn  Zn0  1  0.42124298  0.56306784  0.44665371  1  1.307632  0  0.666689  0.946718  0  2.392217  0
Zn  Zn1  1  0.41924253  0.44579552  0.57271686  1  1.314611  0  0.668666  0.96342  0  2.372084  0
Zn  Zn2  1  0.60131125  0.54478949  0.55175033  1  1.310303  0  0.672113  0.959533  0  2.390117  0
Zn  Zn3  1  0.58811077  0.43379780  0.43740804  1  1.312418  0  0.669226  0.964767  0  2.381702  0
H  H4  1  0.91820145  0.54002735  0.53048622  1  0.115973  0  0.115091  0.119587  0  1.000504  0
H  H5  1  0.50449624  0.90919463  0.37798937  1  0.07937  0  0.106257  0.110808  0  1.001284  0
H  H6  1  0.61364789  0.42774688  0.22180793  1  0.110107  0  0.109653  0.116559  0  0.986766  0
H  H7  1  0.59854474  0.22033839  0.42419336  1  0.092628  0  0.108741  0.115014  0  0.990024  0
H  H8  1  0.92354081  0.46020596  0.39793821  1  0.088171  0  0.113397  0.132439  0  0.989799  0
H  H9  1  0.08210342  0.50215264  0.57545631  1  0.08881  0  0.102932  0.144357  0  1.019918  0
H  H10  1  0.36923603  0.47744742  0.78152268  1  0.10569  0  0.106696  0.115595  0  0.99943  0
H  H11  1  0.54665305  0.75926373  0.59563603  1  0.069728  0  0.104811  0.111234  0  1.001506  0
H  H12  1  0.33967803  0.58268144  0.10768672  1  0.086544  0  0.109003  0.112811  0  0.9908  0
H  H13  1  0.37064320  0.10109651  0.60853031  1  0.094643  0  0.109997  0.113369  0  0.989833  0
H  H14  1  0.35562522  0.58525641  0.23642500  1  0.077314  0  0.105039  0.105323  0  1.011787  0
H  H15  1  0.37278132  0.23313081  0.60067388  1  0.081077  0  0.110376  0.116501  0  0.988499  0
H  H16  1  0.60181492  0.42849757  0.09232005  1  0.107599  0  0.107147  0.109862  0  1.011054  0
H  H17  1  0.18388200  0.54408494  0.39902552  1  0.501966  0  0.306651  0.268323  0  0.989558  0
H  H18  1  0.09533932  0.59236065  0.30279330  1  0.045608  0  0.109917  0.115006  0  0.973965  0
H  H19  1  0.97457090  0.57787440  0.34951868  1  0.072845  0  0.106732  0.113533  0  0.997143  0
H  H20  1  0.05188605  0.50679142  0.31093721  1  0.042902  0  0.099818  0.099323  0  0.984822  0
H  H21  1  0.19640131  0.45113176  0.04208018  1  0.00064  0  0.081987  0.106616  0  1.006047  0
H  H22  1  0.59371393  0.08886535  0.43042579  1  0.116998  0  0.106669  0.108352  0  1.012528  0
H  H23  1  0.14140969  0.42139610  0.97078160  1  0.006803  0  0.082108  0.105366  0  1.006005  0
H  H24  1  0.19431404  0.35948661  0.03470187  1  -5.5e-05  0  0.085158  0.109523  0  1.00498  0
H  H25  1  0.31885566  0.36595109  0.92723712  1  0.024477  0  0.086665  0.075187  0  0.975813  0
H  H26  1  0.37092735  0.39741547  0.99802851  1  0.039461  0  0.086022  0.07475  0  0.996977  0
H  H27  1  0.30795294  0.52200836  0.95385591  1  0.080118  0  0.090626  0.081906  0  1.026855  0
H  H28  1  0.26618839  0.48689996  0.88049606  1  0.029768  0  0.090863  0.087891  0  0.979448  0
H  H29  1  0.62777992  0.99788698  0.69164288  1  0.015878  0  0.084184  0.110055  0  1.003477  0
H  H30  1  0.68022301  0.91342772  0.72375568  1  0.012564  0  0.082545  0.105468  0  1.007074  0
H  H31  1  0.76124172  0.97186386  0.67451540  1  0.014955  0  0.085249  0.109531  0  1.003776  0
H  H32  1  0.72202501  0.87976878  0.59876337  1  0.020874  0  0.086274  0.073901  0  0.975842  0
H  H33  1  0.66819228  0.96352675  0.56826739  1  0.02358  0  0.085386  0.075051  0  0.990884  0
H  H34  1  0.49697206  0.93697085  0.63253905  1  0.052828  0  0.090978  0.084122  0  1.028904  0
H  H35  1  0.55324669  0.85208600  0.65951677  1  0.01047  0  0.091571  0.089857  0  0.978903  0
H  H36  1  0.93667083  0.49730283  0.72107370  1  0.025525  0  0.082568  0.105463  0  1.005011  0
H  H37  1  0.86615421  0.51208798  0.64630302  1  0.036993  0  0.082309  0.109277  0  1.024576  0
H  H38  1  0.91118455  0.58419838  0.68257192  1  0.047473  0  0.085198  0.11035  0  1.003438  0
H  H39  1  0.68662083  0.47483334  0.89906273  1  0.110406  0  0.10573  0.109634  0  1.004976  0
H  H40  1  0.72114901  0.57897091  0.71514830  1  0.026875  0  0.087973  0.083967  0  0.989595  0
H  H41  1  0.78903457  0.56467997  0.79062470  1  0.009749  0  0.084663  0.071083  0  0.97971  0
H  H42  1  0.78392738  0.43597867  0.79052545  1  0.018224  0  0.091835  0.088999  0  0.975314  0
H  H43  1  0.72820296  0.44656953  0.71014375  1  0.038419  0  0.09251  0.093876  0  0.991844  0
H  H44  1  0.42903426  0.77643452  0.22228184  1  0.02145  0  0.081696  0.104983  0  1.007343  0
H  H45  1  0.41442451  0.69207658  0.26578579  1  0.016582  0  0.081292  0.111011  0  1.032241  0
H  H46  1  0.30397046  0.75117372  0.24944721  1  0.008099  0  0.081461  0.104292  0  1.009146  0
H  H47  1  0.34070601  0.74885194  0.37551072  1  0.013652  0  0.08729  0.082294  0  0.985202  0
H  H48  1  0.35519938  0.83303262  0.33280677  1  0.034959  0  0.084323  0.07069  0  0.980775  0
H  H49  1  0.54556932  0.80195022  0.31466692  1  0.019276  0  0.091083  0.087954  0  0.975808  0
H  H50  1  0.53090688  0.71734882  0.35639081  1  0.035276  0  0.091904  0.093948  0  0.995027  0
C  C51  1  0.52860111  0.48250677  0.68990765  1  1.538843  0  0.231037  0.611022  0  4.157606  0
C  C52  1  0.54565144  0.12122790  0.46700251  1  -0.043604  0  -0.083954  -0.148024  0  3.962716  0
C  C53  1  0.54863842  0.46234320  0.12464084  1  -0.055287  0  -0.084417  -0.148009  0  3.960761  0
C  C54  1  0.47083414  0.50643734  0.09300794  1  0.341887  0  0.092064  0.173102  0  4.048349  0
C  C55  1  0.48104932  0.08821766  0.51955881  1  0.360626  0  0.090423  0.171866  0  4.046276  0
C  C56  1  0.40000347  0.54982065  0.13347500  1  -0.04507  0  -0.082512  -0.147887  0  3.965656  0
C  C57  1  0.41919818  0.12833939  0.56810257  1  -0.078427  0  -0.080423  -0.146343  0  3.961698  0
C  C58  1  0.51371614  0.68354214  0.49437717  1  1.553719  0  0.231589  0.617446  0  4.148169  0
C  C59  1  0.40872563  0.55094605  0.20451396  1  -0.040989  0  -0.083901  -0.088757  0  3.991564  0
C  C60  1  0.42062150  0.20101665  0.56381124  1  0.003983  0  -0.079655  -0.080113  0  3.974831  0
C  C61  1  0.42896570  0.48134179  0.88051983  1  0.004249  0  0.004139  0.0752  0  3.897632  0
C  C62  1  0.53284835  0.86592229  0.55104686  1  0.052653  0  0.003005  0.071554  0  3.900084  0
C  C63  1  0.43854366  0.47879800  0.80824599  1  -0.110351  0  -0.085263  -0.153295  0  3.965581  0
C  C64  1  0.53392217  0.79337446  0.54840518  1  -0.005808  0  -0.085622  -0.148009  0  3.965484  0
C  C65  1  0.52249093  0.48215528  0.91218938  1  0.354446  0  0.08973  0.119706  0  4.012995  0
C  C66  1  0.51746451  0.90732903  0.48746480  1  0.34631  0  0.08947  0.118865  0  4.023995  0
C  C67  1  0.53307460  0.47886870  0.76721407  1  0.027598  0  -0.008972  -0.066755  0  3.930782  0
C  C68  1  0.51798719  0.76148609  0.48796116  1  -0.11645  0  -0.014156  -0.080964  0  3.939096  0
C  C69  1  0.62611305  0.47675643  0.79877320  1  -0.003092  0  -2.6e-05  0.111141  0  3.945263  0
C  C70  1  0.50760163  0.80240261  0.42425925  1  0.032631  0  -0.000354  0.116063  0  3.942171  0
C  C71  1  0.49433323  0.50637544  0.31280542  1  1.547612  0  0.22334  0.597326  0  4.179213  0
C  C72  1  0.49178084  0.31157483  0.50906034  1  1.569746  0  0.227097  0.60454  0  4.165015  0
C  C73  1  0.61752827  0.47734621  0.87127483  1  -0.044262  0  -0.080314  -0.194698  0  3.938679  0
C  C74  1  0.55516459  0.46221471  0.19588538  1  -0.012772  0  -0.07829  -0.075744  0  3.969858  0
C  C75  1  0.51002298  0.87486751  0.42588978  1  -0.040323  0  -0.082112  -0.197845  0  3.938392  0
C  C76  1  0.78374881  0.48224411  0.46709294  1  1.552504  0  0.219956  0.643717  0  4.186215  0
C  C77  1  0.23186751  0.51367667  0.52116735  1  1.378977  0  0.193537  0.64436  0  4.198689  0
C  C78  1  0.12183308  0.51567191  0.52477717  1  0.046219  0  -0.149156  -0.450074  0  3.935041  0
C  C79  1  0.06423566  0.52659103  0.46732731  1  0.454065  0  0.120426  0.279671  0  4.08097  0
C  C80  1  0.54809739  0.19358841  0.46368921  1  0.006216  0  -0.078567  -0.074886  0  3.972861  0
C  C81  1  0.89441265  0.48629315  0.44481647  1  -0.071538  0  -0.092839  -0.230069  0  3.907444  0
C  C82  1  0.95388281  0.51903821  0.48207782  1  -0.019301  0  -0.059144  -0.082942  0  3.924207  0
C  C83  1  0.48601794  0.50687411  0.23629164  1  -0.0101  0  -0.018097  -0.039365  0  3.968597  0
C  C84  1  0.48589077  0.23400257  0.51202463  1  -0.055094  0  -0.016499  -0.040113  0  3.964724  0
C  C85  1  0.05396858  0.55481168  0.33830718  1  0.295769  0  -0.1274  -0.213657  0  3.983583  0
C  C86  1  0.32362758  0.47895365  0.91916571  1  -0.047188  0  -0.162291  -0.19436  0  3.975779  0
C  C87  1  0.30949205  0.40880985  0.96258293  1  -0.021066  0  -0.166056  -0.08799  0  3.961117  0
C  C88  1  0.20466014  0.41011411  0.00482821  1  -0.010528  0  -0.244451  -0.349083  0  3.988421  0
C  C89  1  0.55599664  0.89477551  0.61755796  1  0.002908  0  -0.163196  -0.19825  0  3.970568  0
C  C90  1  0.66270111  0.92281951  0.61193491  1  -0.022837  0  -0.165374  -0.085199  0  3.955054  0
C  C91  1  0.68423300  0.95311870  0.67911206  1  -0.030794  0  -0.243901  -0.349895  0  3.989001  0
C  C92  1  0.73126336  0.47126835  0.75910920  1  0.014963  0  -0.160498  -0.193555  0  3.962053  0
C  C93  1  0.77723382  0.54205042  0.74176555  1  -0.00134  0  -0.165004  -0.0867  0  3.955653  0
C  C94  1  0.87855946  0.53362279  0.69553186  1  -0.111118  0  -0.245174  -0.351064  0  3.977133  0
C  C95  1  0.49864983  0.77264300  0.35549035  1  0.006333  0  -0.160338  -0.193882  0  3.96223  0
C  C96  1  0.38778466  0.77758322  0.33455170  1  0.002091  0  -0.165135  -0.084523  0  3.955664  0
C  C97  1  0.38338790  0.74772757  0.26415544  1  -0.052695  0  -0.247329  -0.35405  0  3.984856  0
N  N98  1  0.45567569  0.50793806  0.02152546  1  -0.479244  0  -0.141183  -0.117996  0  3.282221  0
N  N99  1  0.10599720  0.54093362  0.40150816  1  -1.225502  0  -0.419943  -0.242787  0  3.573131  0
N  N100  1  0.47750751  0.01464970  0.52961799  1  -0.478876  0  -0.139989  -0.11871  0  3.282556  0
N  N101  1  0.53460245  0.48553409  0.98345933  1  -0.481289  0  -0.14847  -0.134009  0  3.315668  0
N  N102  1  0.51304019  0.98127663  0.47725747  1  -0.494833  0  -0.146383  -0.130236  0  3.308472  0
O  O103  1  0.50980669  0.49650909  0.50245178  1  -1.234841  0  -0.574358  -1.026421  0  2.547713  0
O  O104  1  0.42931909  0.34638564  0.55134930  1  -1.173387  0  -0.314862  -0.547897  0  2.328666  0
O  O105  1  0.57661000  0.64744451  0.53316141  1  -1.170621  0  -0.315635  -0.547052  0  2.322817  0
O  O106  1  0.58954054  0.52166810  0.65285727  1  -1.159704  0  -0.306505  -0.538968  0  2.360573  0
O  O107  1  0.55976240  0.33654704  0.46435223  1  -1.178255  0  -0.317348  -0.550078  0  2.344967  0
O  O108  1  0.55146102  0.45566078  0.34059489  1  -1.175871  0  -0.316076  -0.550265  0  2.341013  0
O  O109  1  0.74513367  0.51600384  0.51920280  1  -1.180319  0  -0.319794  -0.557847  0  2.339594  0
O  O110  1  0.27798999  0.49035132  0.57569535  1  -1.175108  0  -0.339489  -0.567812  0  2.272286  0
O  O111  1  0.28064115  0.53556860  0.46226606  1  -1.184869  0  -0.334308  -0.587197  0  2.343318  0
O  O112  1  0.73630815  0.44527126  0.43092322  1  -1.150728  0  -0.32117  -0.55022  0  2.284702  0
O  O113  1  0.46222444  0.44798561  0.66747392  1  -1.172397  0  -0.31175  -0.541432  0  2.325939  0
O  O114  1  0.44620399  0.65966835  0.46166921  1  -1.170597  0  -0.308534  -0.542066  0  2.357206  0
O  O115  1  0.44380160  0.55677955  0.34454864  1  -1.176132  0  -0.316667  -0.547961  0  2.33626  0
