# generated using pymatgen
data_AlH17(C8O3)2
_symmetry_space_group_name_H-M   'P 1'
_cell_length_a   6.73382921
_cell_length_b   20.64851648
_cell_length_c   23.50118980
_cell_angle_alpha   90.00010678
_cell_angle_beta   89.99935993
_cell_angle_gamma   89.99981332
_symmetry_Int_Tables_number   1
_chemical_formula_structural   AlH17(C8O3)2
_chemical_formula_sum   'Al4 H68 C64 O24'
_cell_volume   3267.68964080
_cell_formula_units_Z   4
loop_
 _symmetry_equiv_pos_site_id
 _symmetry_equiv_pos_as_xyz
  1  'x, y, z'
loop_
 _atom_site_type_symbol
 _atom_site_label
 _atom_site_symmetry_multiplicity
 _atom_site_fract_x
 _atom_site_fract_y
 _atom_site_fract_z
 _atom_site_occupancy
 _atom_site_pbe_bader_charge
 _atom_site_pbe_bader_spin_density
 _atom_site_pbe_cm5_charge
 _atom_site_pbe_ddec_charge
 _atom_site_pbe_ddec_spin_density
 _atom_site_pbe_ddec_sum_bond_order
 _atom_site_pbe_magmom
Al  Al0  1  0.96138127  0.74998902  0.50037826  1  2.500541  0  0.404222  1.649448  0  2.570307  0
Al  Al1  1  0.53862537  0.25001236  0.00037862  1  2.500515  0  0.404177  1.649352  0  2.570509  0
Al  Al2  1  0.46138048  0.75001156  0.49962534  1  2.500852  0  0.404191  1.649447  0  2.570339  0
Al  Al3  1  0.03861966  0.24999091  0.99962274  1  2.500754  0  0.404211  1.649428  0  2.570243  0
H  H4  1  0.06935277  0.48785814  0.80500253  1  0.040801  0  0.095386  0.099593  0  0.980529  0
H  H5  1  0.43064434  0.51214343  0.30500568  1  0.040751  0  0.095377  0.099591  0  0.980682  0
H  H6  1  0.56935506  0.01213686  0.19499363  1  0.040869  0  0.095398  0.099604  0  0.980687  0
H  H7  1  0.93064273  0.98786057  0.69499800  1  0.041024  0  0.095413  0.099611  0  0.980582  0
H  H8  1  0.98779523  0.57966857  0.75363377  1  -0.006336  0  0.097797  0.068012  0  0.961673  0
H  H9  1  0.51218949  0.42033141  0.25363746  1  -0.00641  0  0.097806  0.06777  0  0.961776  0
H  H10  1  0.48780272  0.92032811  0.24636551  1  -0.006482  0  0.097805  0.06772  0  0.961785  0
H  H11  1  0.01219558  0.07967091  0.74636737  1  -0.00631  0  0.097781  0.067674  0  0.961785  0
H  H12  1  0.46008814  0.56971267  0.75215199  1  0.040477  0  0.092956  0.094262  0  1.007614  0
H  H13  1  0.03990989  0.43028733  0.25215307  1  0.040317  0  0.092971  0.094276  0  1.007621  0
H  H14  1  0.96008667  0.93028549  0.24784736  1  0.040485  0  0.092962  0.094348  0  1.007585  0
H  H15  1  0.53991317  0.06971351  0.74784573  1  0.040502  0  0.092965  0.094343  0  1.007533  0
H  H16  1  0.66802555  0.61479380  0.77449189  1  0.058124  0  0.097345  0.098898  0  0.977174  0
H  H17  1  0.83196713  0.38520768  0.27449637  1  0.058166  0  0.097304  0.098892  0  0.9771  0
H  H18  1  0.16802544  0.88520321  0.22550568  1  0.058066  0  0.09739  0.099079  0  0.976936  0
H  H19  1  0.33197529  0.11479480  0.72550547  1  0.058121  0  0.097391  0.099049  0  0.976974  0
H  H20  1  0.73936707  0.53961071  0.84652553  1  0.053533  0  0.096672  0.098835  0  0.971041  0
H  H21  1  0.76063125  0.46039237  0.34652863  1  0.053575  0  0.096716  0.098925  0  0.970947  0
H  H22  1  0.23936500  0.96038768  0.15347185  1  0.053451  0  0.096672  0.09886  0  0.971003  0
H  H23  1  0.26062416  0.03961115  0.65347298  1  0.053537  0  0.096714  0.098891  0  0.970954  0
H  H24  1  0.51055873  0.50207882  0.83082916  1  0.031061  0  0.095364  0.093694  0  0.984001  0
H  H25  1  0.98944179  0.49792472  0.33082915  1  0.030931  0  0.095365  0.093777  0  0.984003  0
H  H26  1  0.01055556  0.99792126  0.16917096  1  0.031053  0  0.09536  0.09372  0  0.983974  0
H  H27  1  0.48943585  0.00207760  0.66916972  1  0.031  0  0.095313  0.093648  0  0.98398  0
H  H28  1  0.73638394  0.45684815  0.65577087  1  0.043322  0  0.097744  0.103495  0  1.022474  0
H  H29  1  0.76360969  0.54314872  0.15577026  1  0.043331  0  0.097746  0.10355  0  1.022498  0
H  H30  1  0.23638197  0.04314862  0.34422868  1  0.043421  0  0.097727  0.1035  0  1.022452  0
H  H31  1  0.26361337  0.95685206  0.84423003  1  0.043364  0  0.097741  0.103527  0  1.022462  0
H  H32  1  0.49835835  0.48442799  0.67323288  1  0.064157  0  0.096052  0.104827  0  1.023298  0
H  H33  1  0.00163585  0.51556942  0.17323335  1  0.064161  0  0.096047  0.104786  0  1.023333  0
H  H34  1  0.99835609  0.01557093  0.32676554  1  0.064155  0  0.096037  0.104833  0  1.023278  0
H  H35  1  0.50163867  0.98443163  0.82676679  1  0.06413  0  0.096036  0.104823  0  1.023288  0
H  H36  1  0.04174452  0.43519184  0.74699950  1  0.000287  0  0.09041  0.081627  0  1.011554  0
H  H37  1  0.45824930  0.56480913  0.24700352  1  0.000345  0  0.090351  0.081626  0  1.011398  0
H  H38  1  0.54174659  0.06480465  0.25299631  1  0.000486  0  0.09039  0.081665  0  1.011389  0
H  H39  1  0.95825153  0.93519437  0.75300222  1  0.000301  0  0.090366  0.081566  0  1.011559  0
H  H40  1  0.49081431  0.42013049  0.75525635  1  0.050157  0  0.110469  0.060079  0  0.937403  0
H  H41  1  0.00918210  0.57987049  0.25525520  1  0.050208  0  0.110485  0.060101  0  0.937384  0
H  H42  1  0.99081957  0.07986941  0.24474337  1  0.050216  0  0.110506  0.060163  0  0.937328  0
H  H43  1  0.50918189  0.92013200  0.74474365  1  0.050212  0  0.110493  0.060129  0  0.937358  0
H  H44  1  0.08764331  0.43465463  0.65143194  1  0.01217  0  0.077775  0.092392  0  1.031005  0
H  H45  1  0.97033646  0.49237837  0.60616459  1  0.035489  0  0.087554  0.116548  0  1.010674  0
H  H46  1  0.23168988  0.48562573  0.60734934  1  0.028451  0  0.090326  0.120228  0  0.996107  0
H  H47  1  0.11330085  0.58371134  0.66036349  1  0.061763  0  0.097808  0.099586  0  0.97535  0
H  H48  1  0.25742025  0.53117582  0.70189477  1  0.007385  0  0.084215  0.070164  0  1.041661  0
H  H49  1  0.41234594  0.56534516  0.15143395  1  0.012186  0  0.077808  0.092443  0  1.031016  0
H  H50  1  0.52965645  0.50762323  0.10616540  1  0.035356  0  0.087587  0.116667  0  1.010633  0
H  H51  1  0.26829989  0.51437446  0.10735420  1  0.028443  0  0.090401  0.120295  0  0.996034  0
H  H52  1  0.38669542  0.41628702  0.16036490  1  0.062037  0  0.097822  0.099642  0  0.975325  0
H  H53  1  0.24257858  0.46882408  0.20189750  1  0.007362  0  0.084226  0.07025  0  1.041604  0
H  H54  1  0.58763955  0.06534520  0.34856630  1  0.012145  0  0.077838  0.092464  0  1.030936  0
H  H55  1  0.47032963  0.00762155  0.39383476  1  0.03552  0  0.087559  0.116617  0  1.01057  0
H  H56  1  0.73168167  0.01437395  0.39264894  1  0.028465  0  0.090332  0.120274  0  0.996055  0
H  H57  1  0.61329980  0.91628815  0.33963636  1  0.061989  0  0.097835  0.099685  0  0.975327  0
H  H58  1  0.75741906  0.96882207  0.29810512  1  0.00745  0  0.084253  0.070276  0  1.041591  0
H  H59  1  0.91236165  0.93465644  0.84856978  1  0.012231  0  0.077795  0.092446  0  1.030964  0
H  H60  1  0.02966641  0.99238021  0.89383765  1  0.035419  0  0.087554  0.116565  0  1.010659  0
H  H61  1  0.76832049  0.98562729  0.89265289  1  0.028523  0  0.090336  0.12026  0  0.996061  0
H  H62  1  0.88669735  0.08371153  0.83963765  1  0.0619  0  0.097862  0.099703  0  0.975394  0
H  H63  1  0.74258146  0.03117800  0.79810969  1  0.007493  0  0.084208  0.070175  0  1.041737  0
H  H64  1  0.84091662  0.36924137  0.70676936  1  0.580121  0  0.309093  0.333196  0  0.934817  0
H  H65  1  0.65907766  0.63075754  0.20676960  1  0.58008  0  0.309082  0.333137  0  0.934859  0
H  H66  1  0.34092200  0.13075529  0.29323034  1  0.58005  0  0.309061  0.333141  0  0.934838  0
H  H67  1  0.15907713  0.86924432  0.79323098  1  0.580042  0  0.30908  0.333175  0  0.934813  0
H  H68  1  0.21155891  0.66538816  0.49158346  1  0.638154  0  0.357809  0.437416  0  0.842112  0
H  H69  1  0.28845348  0.33461332  0.99158628  1  0.638151  0  0.357811  0.437414  0  0.842068  0
H  H70  1  0.71155994  0.83461510  0.50841102  1  0.638139  0  0.357815  0.437397  0  0.84209  0
H  H71  1  0.78845524  0.16538824  0.00841610  1  0.638155  0  0.357835  0.437465  0  0.841993  0
C  C72  1  0.21227489  0.82750402  0.57677673  1  1.67665  0  0.277155  0.733032  0  4.143767  0
C  C73  1  0.28772518  0.17249562  0.07676694  1  1.675507  0  0.277256  0.733228  0  4.143441  0
C  C74  1  0.71228741  0.67249827  0.42323307  1  1.675658  0  0.27715  0.733142  0  4.143905  0
C  C75  1  0.78772821  0.32750642  0.92323290  1  1.675461  0  0.277317  0.733462  0  4.143551  0
C  C76  1  0.21009093  0.82715613  0.42276155  1  1.684255  0  0.274368  0.723667  0  4.162725  0
C  C77  1  0.28989934  0.17284520  0.92276112  1  1.684302  0  0.274309  0.723668  0  4.163242  0
C  C78  1  0.71013505  0.67284423  0.57723761  1  1.684771  0  0.274443  0.723905  0  4.162722  0
C  C79  1  0.78987699  0.32715926  0.07723913  1  1.684102  0  0.274426  0.723805  0  4.162797  0
C  C80  1  0.95651814  0.53581698  0.72840526  1  0.058143  0  -0.080882  -0.022374  0  3.782465  0
C  C81  1  0.54347515  0.46418246  0.22840682  1  0.058125  0  -0.080814  -0.021658  0  3.782383  0
C  C82  1  0.45651660  0.96418070  0.27159409  1  0.057929  0  -0.08082  -0.021521  0  3.782644  0
C  C83  1  0.04348500  0.03581886  0.77159665  1  0.05821  0  -0.080811  -0.021567  0  3.782714  0
C  C84  1  0.61833518  0.56591427  0.76276953  1  -0.044481  0  -0.153961  -0.196681  0  3.864959  0
C  C85  1  0.88166101  0.43408622  0.26277226  1  -0.044415  0  -0.153934  -0.196616  0  3.864901  0
C  C86  1  0.11833700  0.93408279  0.23723073  1  -0.044632  0  -0.154009  -0.196971  0  3.864931  0
C  C87  1  0.38166320  0.06591573  0.73722988  1  -0.044722  0  -0.154005  -0.196893  0  3.864938  0
C  C88  1  0.65229270  0.51760672  0.81205163  1  -0.043185  0  -0.151228  -0.183645  0  3.860852  0
C  C89  1  0.84770125  0.48239678  0.31205325  1  -0.043006  0  -0.151357  -0.183994  0  3.861007  0
C  C90  1  0.15229626  0.98239322  0.18794726  1  -0.043136  0  -0.151238  -0.183726  0  3.860719  0
C  C91  1  0.34769579  0.01760666  0.68794812  1  -0.04315  0  -0.151208  -0.183648  0  3.860749  0
C  C92  1  0.78499063  0.37219627  0.87623830  1  0.237545  0  -0.052132  -0.225902  0  3.979679  0
C  C93  1  0.71501227  0.62780494  0.37623200  1  0.24532  0  -0.051978  -0.225654  0  3.980376  0
C  C94  1  0.28499039  0.12780384  0.12376410  1  0.245305  0  -0.052022  -0.225648  0  3.980529  0
C  C95  1  0.21501200  0.87219783  0.62376459  1  0.237692  0  -0.051998  -0.225681  0  3.98066  0
C  C96  1  0.73514672  0.54325490  0.70948823  1  0.143127  0  0.002997  0.15153  0  3.869132  0
C  C97  1  0.76484744  0.45674402  0.20949003  1  0.143669  0  0.003119  0.151388  0  3.868972  0
C  C98  1  0.23514588  0.95674253  0.29051045  1  0.143305  0  0.003021  0.151263  0  3.86934  0
C  C99  1  0.26485338  0.04325756  0.79051115  1  0.14365  0  0.00311  0.151365  0  3.869255  0
C  C100  1  0.97241487  0.47682149  0.76864954  1  -0.014342  0  -0.155689  -0.22526  0  3.863017  0
C  C101  1  0.52757807  0.52317803  0.26865166  1  -0.014458  0  -0.155657  -0.225492  0  3.86306  0
C  C102  1  0.47241973  0.02317310  0.23134725  1  -0.014613  0  -0.155735  -0.225681  0  3.863346  0
C  C103  1  0.02758074  0.97682590  0.73135225  1  -0.014993  0  -0.155743  -0.225553  0  3.86346  0
C  C104  1  0.76509707  0.45658191  0.79074613  1  0.119696  0  -0.004986  0.097007  0  3.904329  0
C  C105  1  0.73489636  0.54342008  0.29074390  1  0.119736  0  -0.004916  0.09722  0  3.904293  0
C  C106  1  0.26510421  0.04341579  0.20925292  1  0.11996  0  -0.004894  0.097388  0  3.904057  0
C  C107  1  0.23489727  0.95658654  0.70925818  1  0.119867  0  -0.004954  0.097214  0  3.904201  0
C  C108  1  0.64352119  0.42808786  0.74011351  1  0.495711  0  0.006229  0.202852  0  3.800329  0
C  C109  1  0.85647603  0.57191209  0.24011228  1  0.495751  0  0.006225  0.202865  0  3.800248  0
C  C110  1  0.14352721  0.07190997  0.25988543  1  0.49566  0  0.006137  0.202666  0  3.800289  0
C  C111  1  0.35647493  0.92809054  0.75988820  1  0.495689  0  0.006183  0.202792  0  3.800332  0
C  C112  1  0.64774848  0.47715380  0.69056116  1  -0.069618  0  -0.162241  -0.283133  0  3.839636  0
C  C113  1  0.85224505  0.52284556  0.19056028  1  -0.0696  0  -0.162251  -0.283142  0  3.839569  0
C  C114  1  0.14774830  0.02284451  0.30943777  1  -0.069645  0  -0.16221  -0.283099  0  3.839611  0
C  C115  1  0.35224862  0.97715659  0.80943935  1  -0.069667  0  -0.162281  -0.28317  0  3.839657  0
C  C116  1  0.77825372  0.40986286  0.83658673  1  -0.5313  0  -0.020241  -0.015917  0  4.043268  0
C  C117  1  0.72174802  0.59014505  0.33658716  1  -0.539217  0  -0.020384  -0.01612  0  4.044098  0
C  C118  1  0.27824909  0.09014307  0.16340888  1  -0.539166  0  -0.020342  -0.016132  0  4.043994  0
C  C119  1  0.22175150  0.90986256  0.66341112  1  -0.531436  0  -0.020292  -0.016021  0  4.043499  0
C  C120  1  0.71716369  0.58999187  0.66373146  1  -0.396099  0  -0.016614  -0.018769  0  4.016504  0
C  C121  1  0.78283106  0.41000405  0.16373313  1  -0.396783  0  -0.016684  -0.018766  0  4.01671  0
C  C122  1  0.21715829  0.91000363  0.33627152  1  -0.39626  0  -0.016693  -0.01885  0  4.017151  0
C  C123  1  0.28285226  0.08999897  0.83626927  1  -0.396866  0  -0.016754  -0.018886  0  4.017128  0
C  C124  1  0.71039112  0.62835149  0.62457263  1  0.084014  0  -0.047675  -0.219607  0  3.961161  0
C  C125  1  0.78962769  0.37164338  0.12458103  1  0.084363  0  -0.047699  -0.219568  0  3.961536  0
C  C126  1  0.21036948  0.87164548  0.37542100  1  0.084398  0  -0.047627  -0.219377  0  3.961915  0
C  C127  1  0.28963186  0.12835431  0.87542306  1  0.084607  0  -0.047563  -0.219367  0  3.961948  0
C  C128  1  0.11251653  0.53575828  0.68069264  1  -0.035466  0  -0.16636  -0.135446  0  3.946762  0
C  C129  1  0.09820356  0.48416567  0.63424773  1  -0.104156  0  -0.24516  -0.349588  0  3.975048  0
C  C130  1  0.38748327  0.46424351  0.18069497  1  -0.035738  0  -0.166466  -0.135956  0  3.947097  0
C  C131  1  0.40179390  0.51583409  0.13425011  1  -0.10397  0  -0.245262  -0.349702  0  3.975137  0
C  C132  1  0.61250997  0.96424121  0.31930636  1  -0.035505  0  -0.166511  -0.136064  0  3.947147  0
C  C133  1  0.59819359  0.01583366  0.36575006  1  -0.104121  0  -0.245185  -0.349629  0  3.974982  0
C  C134  1  0.88748810  0.03575891  0.81930928  1  -0.035459  0  -0.166369  -0.135829  0  3.947099  0
C  C135  1  0.90180237  0.98416656  0.86575280  1  -0.104253  0  -0.245198  -0.349596  0  3.975051  0
O  O136  1  0.38028945  0.81003667  0.44113272  1  -1.234429  0  -0.230967  -0.587318  0  2.279703  0
O  O137  1  0.11973414  0.18997003  0.94112554  1  -1.234636  0  -0.230872  -0.587235  0  2.280347  0
O  O138  1  0.88028671  0.68997562  0.55888429  1  -1.234787  0  -0.230845  -0.587237  0  2.280691  0
O  O139  1  0.61972469  0.31002831  0.05888326  1  -1.234455  0  -0.230819  -0.587162  0  2.280629  0
O  O140  1  0.04237207  0.81000113  0.55847489  1  -1.235766  0  -0.230447  -0.591318  0  2.279309  0
O  O141  1  0.45762141  0.19000234  0.05847488  1  -1.2351  0  -0.230471  -0.591328  0  2.27952  0
O  O142  1  0.54238209  0.69000666  0.44151536  1  -1.235056  0  -0.230446  -0.591302  0  2.279329  0
O  O143  1  0.95762676  0.30999711  0.94151812  1  -1.235146  0  -0.230503  -0.591409  0  2.279333  0
O  O144  1  0.04110500  0.81041460  0.44205695  1  -1.239594  0  -0.231367  -0.588269  0  2.28618  0
O  O145  1  0.45890815  0.18958193  0.94205993  1  -1.239416  0  -0.231469  -0.588377  0  2.285871  0
O  O146  1  0.54112013  0.68956753  0.55792819  1  -1.239597  0  -0.231597  -0.58856  0  2.285397  0
O  O147  1  0.95890319  0.31042768  0.05793051  1  -1.239357  0  -0.231553  -0.588468  0  2.285326  0
O  O148  1  0.88102445  0.68959532  0.44267102  1  -1.245477  0  -0.230039  -0.590463  0  2.282342  0
O  O149  1  0.61898286  0.31040312  0.94266830  1  -1.245182  0  -0.230096  -0.590597  0  2.281983  0
O  O150  1  0.38102636  0.81039808  0.55733364  1  -1.245777  0  -0.230067  -0.590423  0  2.281676  0
O  O151  1  0.11896123  0.18960006  0.05733284  1  -1.245351  0  -0.230033  -0.590513  0  2.281634  0
O  O152  1  0.21140107  0.71131060  0.49993031  1  -1.438998  0  -0.446851  -0.995958  0  2.190478  0
O  O153  1  0.28860501  0.28868896  0.99993093  1  -1.439103  0  -0.446845  -0.995998  0  2.190586  0
O  O154  1  0.71140146  0.78868830  0.50007013  1  -1.439016  0  -0.446852  -0.995992  0  2.190606  0
O  O155  1  0.78860370  0.21131308  0.00006933  1  -1.439014  0  -0.446859  -0.995982  0  2.190435  0
O  O156  1  0.70800676  0.36529153  0.72282999  1  -1.105866  0  -0.412958  -0.500994  0  2.168436  0
O  O157  1  0.79198827  0.63470838  0.22282776  1  -1.105861  0  -0.412962  -0.500925  0  2.168382  0
O  O158  1  0.20801283  0.13470575  0.27717048  1  -1.105824  0  -0.412891  -0.500869  0  2.168407  0
O  O159  1  0.29199001  0.86529383  0.77717119  1  -1.105801  0  -0.412917  -0.500935  0  2.168357  0
