# generated using pymatgen
data_CdH18C24N2O5
_symmetry_space_group_name_H-M   'P 1'
_cell_length_a   8.75332294
_cell_length_b   10.15731716
_cell_length_c   13.29423012
_cell_angle_alpha   112.53617044
_cell_angle_beta   89.02304758
_cell_angle_gamma   92.51147988
_symmetry_Int_Tables_number   1
_chemical_formula_structural   CdH18C24N2O5
_chemical_formula_sum   'Cd2 H36 C48 N4 O10'
_cell_volume   1090.68531047
_cell_formula_units_Z   2
loop_
 _symmetry_equiv_pos_site_id
 _symmetry_equiv_pos_as_xyz
  1  'x, y, z'
loop_
 _atom_site_type_symbol
 _atom_site_label
 _atom_site_symmetry_multiplicity
 _atom_site_fract_x
 _atom_site_fract_y
 _atom_site_fract_z
 _atom_site_occupancy
 _atom_site_hle17_bader_spin_density
 _atom_site_hle17_ddec_charge
 _atom_site_hle17_ddec_spin_density
 _atom_site_hle17_ddec_sum_bond_order
 _atom_site_hle17_magmom
 _atom_site_hse06_10hf_bader_spin_density
 _atom_site_hse06_10hf_ddec_charge
 _atom_site_hse06_10hf_ddec_spin_density
 _atom_site_hse06_10hf_ddec_sum_bond_order
 _atom_site_hse06_10hf_magmom
 _atom_site_hse06_bader_spin_density
 _atom_site_hse06_ddec_charge
 _atom_site_hse06_ddec_spin_density
 _atom_site_hse06_ddec_sum_bond_order
 _atom_site_hse06_magmom
 _atom_site_pbe_bader_spin_density
 _atom_site_pbe_cm5_charge
 _atom_site_pbe_ddec_charge
 _atom_site_pbe_ddec_spin_density
 _atom_site_pbe_ddec_sum_bond_order
 _atom_site_pbe_magmom
Cd  Cd0  1  0.47624484  0.18531826  0.32628843  1  0  1.135158  0  1.663857  0  0  0.937219  0  2.114393  0  0  0.995403  0  2.059525  0  0  0.769985  0.89217  0  2.155061  0
Cd  Cd1  1  0.52376323  0.81468945  0.67371140  1  0  1.135188  0  1.663758  0  0  0.937251  0  2.114348  0  0  0.995437  0  2.059478  0  0  0.769985  0.892201  0  2.155015  0
H  H2  1  0.54263247  0.20241222  0.55045450  1  0  0.427046  0  0.873678  0  0  0.392729  0  0.943412  0  0  0.404693  0  0.925976  0  0  0.286986  0.384047  0  0.956043  0
H  H3  1  0.45736800  0.79760316  0.44954239  1  0  0.42692  0  0.873821  0  0  0.392589  0  0.943581  0  0  0.404555  0  0.926143  0  0  0.286915  0.38391  0  0.956207  0
H  H4  1  0.53579430  0.36208047  0.55190830  1  0  0.432637  0  0.844175  0  0  0.400526  0  0.9167  0  0  0.411777  0  0.900115  0  0  0.296525  0.392245  0  0.928874  0
H  H5  1  0.46419360  0.63793657  0.44809276  1  0  0.432652  0  0.844144  0  0  0.40053  0  0.91669  0  0  0.411781  0  0.900104  0  0  0.296571  0.392248  0  0.928863  0
H  H6  1  0.86907395  0.86703003  0.22695103  1  0  0.092546  0  0.972037  0  0  0.100653  0  1.042849  0  0  0.103748  0  1.041092  0  0  0.100415  0.098436  0  1.044054  0
H  H7  1  0.13090908  0.13297787  0.77304437  1  0  0.092603  0  0.971988  0  0  0.100723  0  1.042755  0  0  0.10382  0  1.040993  0  0  0.100458  0.098504  0  1.043968  0
H  H8  1  0.48619961  0.63629947  0.29321244  1  0  0.099426  0  0.967051  0  0  0.11129  0  1.025025  0  0  0.114774  0  1.022695  0  0  0.110583  0.108793  0  1.026973  0
H  H9  1  0.51381159  0.36370071  0.70678508  1  0  0.099407  0  0.96674  0  0  0.111202  0  1.024824  0  0  0.114689  0  1.022493  0  0  0.110538  0.108723  0  1.026748  0
H  H10  1  0.91673959  0.43632957  0.20853011  1  0  0.095694  0  0.962615  0  0  0.104775  0  1.029408  0  0  0.108039  0  1.027286  0  0  0.101699  0.102424  0  1.030915  0
H  H11  1  0.08326343  0.56366477  0.79146319  1  0  0.095796  0  0.962773  0  0  0.104897  0  1.029493  0  0  0.108157  0  1.027374  0  0  0.101749  0.102545  0  1.031  0
H  H12  1  0.11290062  0.87915507  0.24444107  1  0  0.081183  0  0.980913  0  0  0.090279  0  1.048634  0  0  0.092593  0  1.048401  0  0  0.09326  0.08888  0  1.048651  0
H  H13  1  0.88707940  0.12083969  0.75556147  1  0  0.081265  0  0.981095  0  0  0.090386  0  1.048741  0  0  0.092702  0  1.048519  0  0  0.093261  0.088989  0  1.048756  0
H  H14  1  0.27324781  0.15327119  0.51896652  1  0  0.077677  0  0.964063  0  0  0.083241  0  1.033407  0  0  0.085294  0  1.031956  0  0  0.114746  0.081684  0  1.034526  0
H  H15  1  0.72675922  0.84671281  0.48103222  1  0  0.077699  0  0.964173  0  0  0.083302  0  1.033459  0  0  0.085356  0  1.032007  0  0  0.114765  0.081745  0  1.034577  0
H  H16  1  0.93837166  0.17780830  0.13225096  1  0  0.119903  0  0.953383  0  0  0.129589  0  1.013159  0  0  0.133499  0  1.011002  0  0  0.113119  0.126706  0  1.014882  0
H  H17  1  0.06163462  0.82218353  0.86774561  1  0  0.11984  0  0.953504  0  0  0.129588  0  1.013213  0  0  0.133497  0  1.011056  0  0  0.113148  0.12672  0  1.014901  0
H  H18  1  0.45989398  0.65469822  0.01867247  1  0  0.078815  0  0.971558  0  0  0.090189  0  1.034727  0  0  0.092542  0  1.0344  0  0  0.095487  0.08844  0  1.035161  0
H  H19  1  0.54010904  0.34532023  0.98131822  1  0  0.078981  0  0.971803  0  0  0.090331  0  1.034954  0  0  0.092683  0  1.034626  0  0  0.095561  0.088575  0  1.035387  0
H  H20  1  0.03682187  0.14695480  0.94921844  1  0  0.089664  0  0.953194  0  0  0.100526  0  1.013846  0  0  0.102311  0  1.013951  0  0  0.106111  0.099161  0  1.013947  0
H  H21  1  0.96319552  0.85303149  0.05078150  1  0  0.089741  0  0.953203  0  0  0.100593  0  1.013864  0  0  0.102368  0  1.013962  0  0  0.106118  0.09923  0  1.013957  0
H  H22  1  0.00088749  0.16736775  0.58314962  1  0  0.101892  0  0.966912  0  0  0.110982  0  1.0278  0  0  0.113176  0  1.02893  0  0  0.105418  0.109382  0  1.027141  0
H  H23  1  0.99911770  0.83262500  0.41684638  1  0  0.101848  0  0.966909  0  0  0.110932  0  1.02781  0  0  0.113127  0  1.028938  0  0  0.105394  0.10933  0  1.02715  0
H  H24  1  0.49199985  0.13643446  0.06603996  1  0  0.081392  0  0.937663  0  0  0.089112  0  1.002131  0  0  0.091581  0  1.000509  0  0  0.11737  0.087198  0  1.003499  0
H  H25  1  0.50800602  0.86354980  0.93396035  1  0  0.081301  0  0.937773  0  0  0.089074  0  1.002189  0  0  0.091545  0  1.000566  0  0  0.117402  0.087155  0  1.003561  0
H  H26  1  0.35877854  0.88114064  0.15209498  1  0  0.082115  0  0.980063  0  0  0.089845  0  1.047759  0  0  0.092261  0  1.047203  0  0  0.094454  0.088286  0  1.047923  0
H  H27  1  0.64119881  0.11887172  0.84790892  1  0  0.082084  0  0.979948  0  0  0.089824  0  1.047647  0  0  0.092248  0  1.04708  0  0  0.094458  0.088267  0  1.0478  0
H  H28  1  0.79613242  0.19076900  0.46038709  1  0  0.112738  0  0.96151  0  0  0.125004  0  1.014808  0  0  0.128171  0  1.012076  0  0  0.109632  0.122618  0  1.016957  0
H  H29  1  0.20387863  0.80922840  0.53961212  1  0  0.112735  0  0.96135  0  0  0.125065  0  1.014586  0  0  0.128232  0  1.011854  0  0  0.109655  0.122675  0  1.016743  0
H  H30  1  0.06442308  0.42381710  0.07162574  1  0  0.080901  0  0.98869  0  0  0.092041  0  1.052881  0  0  0.09387  0  1.053555  0  0  0.094211  0.090818  0  1.052337  0
H  H31  1  0.93557498  0.57619680  0.92837464  1  0  0.080904  0  0.988667  0  0  0.092035  0  1.052875  0  0  0.093864  0  1.05355  0  0  0.094191  0.090809  0  1.052335  0
H  H32  1  0.31862404  0.11433416  0.90968318  1  0  0.119802  0  0.980989  0  0  0.125876  0  1.044551  0  0  0.129957  0  1.042803  0  0  0.10704  0.122909  0  1.046019  0
H  H33  1  0.68138762  0.88565237  0.09031834  1  0  0.119756  0  0.980969  0  0  0.125832  0  1.04453  0  0  0.129914  0  1.042782  0  0  0.107014  0.122872  0  1.045982  0
H  H34  1  0.31260625  0.42538296  0.98203277  1  0  0.078631  0  0.979004  0  0  0.087516  0  1.046514  0  0  0.089324  0  1.047289  0  0  0.093625  0.086293  0  1.046058  0
H  H35  1  0.68738485  0.57462564  0.01796047  1  0  0.078567  0  0.9789  0  0  0.087489  0  1.046381  0  0  0.089298  0  1.047153  0  0  0.093582  0.086261  0  1.045934  0
H  H36  1  0.86885244  0.19053585  0.28029431  1  0  0.125913  0  0.987551  0  0  0.132762  0  1.051501  0  0  0.136701  0  1.049556  0  0  0.108883  0.129859  0  1.053249  0
H  H37  1  0.13115639  0.80946392  0.71970691  1  0  0.12589  0  0.987413  0  0  0.132744  0  1.051372  0  0  0.136682  0  1.049428  0  0  0.108862  0.129838  0  1.053127  0
C  C38  1  0.82223263  0.76937736  0.23336244  1  0  -0.120152  0  3.700186  0  0  -0.152777  0  3.951153  0  0  -0.152121  0  3.969037  0  0  -0.084273  -0.152013  0  3.938343  0
C  C39  1  0.17774985  0.23062165  0.76664098  1  0  -0.120169  0  3.700518  0  0  -0.15282  0  3.951465  0  0  -0.152135  0  3.969321  0  0  -0.084367  -0.15206  0  3.938668  0
C  C40  1  0.67065134  0.76657067  0.26739264  1  0  -0.067021  0  3.803799  0  0  -0.040312  0  4.03867  0  0  -0.047989  0  4.061001  0  0  -0.022126  -0.0355  0  4.024347  0
C  C41  1  0.32932300  0.23342854  0.73261842  1  0  -0.067236  0  3.804006  0  0  -0.040452  0  4.038745  0  0  -0.048172  0  4.061148  0  0  -0.022007  -0.035634  0  4.024422  0
C  C42  1  0.69629791  0.52508622  0.25571577  1  0  -0.047968  0  3.774429  0  0  -0.021884  0  4.006533  0  0  -0.029558  0  4.028879  0  0  -0.016547  -0.017237  0  3.992346  0
C  C43  1  0.30369055  0.47492073  0.74429230  1  0  -0.047803  0  3.774301  0  0  -0.021712  0  4.006397  0  0  -0.029381  0  4.028734  0  0  -0.016411  -0.017066  0  3.992221  0
C  C44  1  0.57734938  0.89712276  0.30508518  1  0  0.634819  0  3.942237  0  0  0.583238  0  4.237359  0  0  0.617023  0  4.231751  0  0  0.199208  0.560071  0  4.240504  0
C  C45  1  0.42265169  0.10288372  0.69491972  1  0  0.634843  0  3.941743  0  0  0.583257  0  4.236858  0  0  0.617052  0  4.23125  0  0  0.199254  0.560096  0  4.239991  0
C  C46  1  0.62707807  0.40266803  0.27936940  1  0  0.633573  0  3.929622  0  0  0.587271  0  4.213371  0  0  0.621101  0  4.208314  0  0  0.192934  0.56419  0  4.215916  0
C  C47  1  0.37294311  0.59732661  0.72063149  1  0  0.63339  0  3.929763  0  0  0.587059  0  4.213572  0  0  0.620888  0  4.208528  0  0  0.192955  0.56398  0  4.21611  0
C  C48  1  0.60667682  0.64204754  0.27373720  1  0  -0.096277  0  3.756023  0  0  -0.130974  0  3.998852  0  0  -0.130009  0  4.018763  0  0  -0.082529  -0.132093  0  3.986945  0
C  C49  1  0.39330924  0.35795768  0.72627279  1  0  -0.096151  0  3.755752  0  0  -0.130799  0  3.99857  0  0  -0.129826  0  4.018496  0  0  -0.082573  -0.131933  0  3.986664  0
C  C50  1  0.11183421  0.17416241  0.30416677  1  0  0.1704  0  3.768261  0  0  0.165581  0  4.009296  0  0  0.171899  0  4.030875  0  0  0.117317  0.161334  0  3.994689  0
C  C51  1  0.88816966  0.82582939  0.69583586  1  0  0.170159  0  3.768832  0  0  0.16539  0  4.009801  0  0  0.171711  0  4.031376  0  0  0.11723  0.161144  0  3.995195  0
C  C52  1  0.84819305  0.52862678  0.22217696  1  0  -0.096824  0  3.669076  0  0  -0.129837  0  3.91554  0  0  -0.128525  0  3.932973  0  0  -0.076721  -0.129544  0  3.903176  0
C  C53  1  0.15179987  0.47137505  0.77782473  1  0  -0.097101  0  3.669496  0  0  -0.130128  0  3.915953  0  0  -0.12882  0  3.933388  0  0  -0.076849  -0.129832  0  3.903591  0
C  C54  1  0.91250496  0.64964737  0.20790679  1  0  0.044528  0  3.793713  0  0  0.06129  0  4.030234  0  0  0.060498  0  4.052839  0  0  -0.007623  0.061443  0  4.014398  0
C  C55  1  0.08749952  0.35035426  0.79208725  1  0  0.044724  0  3.793905  0  0  0.061513  0  4.030438  0  0  0.060725  0  4.053033  0  0  -0.007567  0.061664  0  4.014606  0
C  C56  1  0.15445389  0.77926399  0.18560571  1  0  -0.118953  0  3.747896  0  0  -0.136465  0  3.992435  0  0  -0.138908  0  4.012982  0  0  -0.097326  -0.134942  0  3.978321  0
C  C57  1  0.84552666  0.22074165  0.81439453  1  0  -0.119476  0  3.748064  0  0  -0.13698  0  3.992631  0  0  -0.13944  0  4.013198  0  0  -0.097476  -0.135458  0  3.978517  0
C  C58  1  0.06838355  0.65113969  0.16365048  1  0  0.038074  0  3.800164  0  0  0.055888  0  4.024206  0  0  0.055452  0  4.048476  0  0  -0.013159  0.056326  0  4.007816  0
C  C59  1  0.93162216  0.34886235  0.83633986  1  0  0.038175  0  3.799745  0  0  0.055899  0  4.023893  0  0  0.055461  0  4.048164  0  0  -0.013183  0.056335  0  4.007504  0
C  C60  1  0.16348766  0.16755509  0.19519802  1  0  0.179414  0  3.756715  0  0  0.177082  0  3.996117  0  0  0.183568  0  4.01742  0  0  0.12212  0.172828  0  3.980932  0
C  C61  1  0.83652310  0.83243634  0.80480224  1  0  0.179565  0  3.756858  0  0  0.177238  0  3.996236  0  0  0.18372  0  4.01754  0  0  0.122159  0.172987  0  3.981055  0
C  C62  1  0.18018071  0.16274717  0.46908568  1  0  0.143385  0  3.707617  0  0  0.112834  0  3.95848  0  0  0.120069  0  3.977187  0  0  0.052379  0.108029  0  3.94576  0
C  C63  1  0.81982549  0.83724228  0.53090888  1  0  0.143304  0  3.707841  0  0  0.112707  0  3.958751  0  0  0.119938  0  3.977459  0  0  0.052295  0.107902  0  3.946026  0
C  C64  1  0.06046064  0.16664198  0.11523010  1  0  -0.148771  0  3.691413  0  0  -0.167468  0  3.938384  0  0  -0.174397  0  3.958228  0  0  -0.076318  -0.162742  0  3.924847  0
C  C65  1  0.93953988  0.83334876  0.88476626  1  0  -0.148692  0  3.691661  0  0  -0.167472  0  3.938627  0  0  -0.174397  0  3.958467  0  0  -0.076376  -0.162747  0  3.925099  0
C  C66  1  0.35203975  0.65361515  0.06055069  1  0  -0.069123  0  3.763148  0  0  -0.082735  0  4.008555  0  0  -0.085383  0  4.031077  0  0  -0.094562  -0.080697  0  3.993226  0
C  C67  1  0.64793997  0.34639947  0.93945443  1  0  -0.069432  0  3.763867  0  0  -0.083066  0  4.009297  0  0  -0.085712  0  4.031811  0  0  -0.094774  -0.081024  0  3.99397  0
C  C68  1  0.11616020  0.14908627  0.01225570  1  0  0.003836  0  3.724417  0  0  -0.011965  0  3.971048  0  0  -0.008667  0  3.990203  0  0  -0.063623  -0.014193  0  3.958033  0
C  C69  1  0.88384721  0.85090569  0.98774164  1  0  0.00345  0  3.724653  0  0  -0.012332  0  3.971273  0  0  -0.009015  0  3.990406  0  0  -0.063731  -0.014563  0  3.958256  0
C  C70  1  0.02862173  0.16976922  0.50382884  1  0  -0.115201  0  3.728904  0  0  -0.126496  0  3.976166  0  0  -0.133639  0  3.998917  0  0  -0.079717  -0.122101  0  3.96114  0
C  C71  1  0.97137891  0.83022497  0.49616974  1  0  -0.115148  0  3.728867  0  0  -0.126419  0  3.976139  0  0  -0.13356  0  3.99889  0  0  -0.079693  -0.122016  0  3.9611  0
C  C72  1  0.36799123  0.14193826  0.07579321  1  0  0.133926  0  3.713831  0  0  0.104022  0  3.966476  0  0  0.110644  0  3.984959  0  0  0.052362  0.09997  0  3.953615  0
C  C73  1  0.63201728  0.85805435  0.92420805  1  0  0.134042  0  3.713535  0  0  0.104097  0  3.966168  0  0  0.110717  0  3.984651  0  0  0.05231  0.10004  0  3.953312  0
C  C74  1  0.29418633  0.78059078  0.13404809  1  0  -0.06508  0  3.78107  0  0  -0.077635  0  4.029392  0  0  -0.079417  0  4.051514  0  0  -0.098411  -0.076364  0  4.013943  0
C  C75  1  0.70578912  0.21943307  0.86596349  1  0  -0.064608  0  3.780828  0  0  -0.07714  0  4.029047  0  0  -0.078924  0  4.051173  0  0  -0.098162  -0.075866  0  4.013591  0
C  C76  1  0.91575967  0.18130117  0.43540259  1  0  0.008634  0  3.688359  0  0  -0.007094  0  3.92939  0  0  -0.003891  0  3.947449  0  0  -0.061803  -0.008808  0  3.917264  0
C  C77  1  0.08424451  0.81869803  0.56460156  1  0  0.008637  0  3.688155  0  0  -0.007152  0  3.929183  0  0  -0.003949  0  3.947245  0  0  -0.061836  -0.008866  0  3.917055  0
C  C78  1  0.13009051  0.52396700  0.09149566  1  0  -0.110278  0  3.749921  0  0  -0.127716  0  3.988883  0  0  -0.130605  0  4.011227  0  0  -0.093165  -0.125802  0  3.973379  0
C  C79  1  0.86989584  0.47604076  0.90850500  1  0  -0.11032  0  3.749329  0  0  -0.127709  0  3.988286  0  0  -0.130598  0  4.01063  0  0  -0.093078  -0.125789  0  3.972774  0
C  C80  1  0.27233625  0.13403508  0.99069444  1  0  -0.116691  0  3.694251  0  0  -0.128028  0  3.941443  0  0  -0.134908  0  3.961541  0  0  -0.079868  -0.123478  0  3.927807  0
C  C81  1  0.72767786  0.86595411  0.00930460  1  0  -0.116409  0  3.693858  0  0  -0.127744  0  3.941002  0  0  -0.134624  0  3.961096  0  0  -0.079683  -0.123188  0  3.927344  0
C  C82  1  0.27004882  0.52502176  0.04045814  1  0  -0.067482  0  3.786054  0  0  -0.078949  0  4.032291  0  0  -0.08104  0  4.055449  0  0  -0.0948  -0.07766  0  4.016483  0
C  C83  1  0.72992801  0.47497790  0.95954315  1  0  -0.06744  0  3.786149  0  0  -0.078942  0  4.032379  0  0  -0.081033  0  4.055534  0  0  -0.094838  -0.077648  0  4.016564  0
C  C84  1  0.95728775  0.18212831  0.33394360  1  0  -0.143201  0  3.67607  0  0  -0.162305  0  3.923286  0  0  -0.169478  0  3.943835  0  0  -0.079124  -0.158184  0  3.9102  0
C  C85  1  0.04271403  0.81786588  0.66605498  1  0  -0.143051  0  3.676124  0  0  -0.162154  0  3.923325  0  0  -0.169329  0  3.943879  0  0  -0.078988  -0.15804  0  3.910248  0
N  N86  1  0.22057046  0.16683206  0.37267558  1  0  -0.368617  0  3.264364  0  0  -0.295081  0  3.526096  0  0  -0.315043  0  3.543225  0  0  -0.326192  -0.280947  0  3.513646  0
N  N87  1  0.77944115  0.83315170  0.62732158  1  0  -0.368589  0  3.264628  0  0  -0.295092  0  3.526406  0  0  -0.315055  0  3.543537  0  0  -0.326192  -0.280957  0  3.513953  0
N  N88  1  0.31498569  0.15737048  0.17461811  1  0  -0.362853  0  3.245443  0  0  -0.295694  0  3.505732  0  0  -0.314609  0  3.523974  0  0  -0.321174  -0.282444  0  3.492444  0
N  N89  1  0.68502054  0.84262212  0.82538316  1  0  -0.362948  0  3.245394  0  0  -0.295812  0  3.505711  0  0  -0.314729  0  3.523957  0  0  -0.32118  -0.282563  0  3.492425  0
O  O90  1  0.47536599  0.91000936  0.37602062  1  0  -0.615504  0  1.934675  0  0  -0.56209  0  2.153824  0  0  -0.587218  0  2.145983  0  0  -0.315158  -0.543697  0  2.158326  0
O  O91  1  0.52463437  0.09000599  0.62398233  1  0  -0.615538  0  1.934386  0  0  -0.562145  0  2.153551  0  0  -0.587267  0  2.145705  0  0  -0.31522  -0.543754  0  2.158051  0
O  O92  1  0.61124375  0.98928471  0.26254198  1  0  -0.651418  0  2.025286  0  0  -0.577507  0  2.280284  0  0  -0.608082  0  2.269471  0  0  -0.333245  -0.555319  0  2.288555  0
O  O93  1  0.38875021  0.01071513  0.73746006  1  0  -0.651437  0  2.025126  0  0  -0.577551  0  2.280178  0  0  -0.60813  0  2.269364  0  0  -0.333274  -0.555362  0  2.288443  0
O  O94  1  0.56103391  0.26310012  0.50665276  1  0  -0.833308  0  1.887652  0  0  -0.765416  0  2.084696  0  0  -0.787767  0  2.047403  0  0  -0.575128  -0.749431  0  2.111729  0
O  O95  1  0.43896190  0.73691483  0.49334784  1  0  -0.833134  0  1.887712  0  0  -0.765251  0  2.084779  0  0  -0.787602  0  2.047487  0  0  -0.575062  -0.749266  0  2.111803  0
O  O96  1  0.51744706  0.43046117  0.34909284  1  0  -0.651071  0  1.918536  0  0  -0.583158  0  2.140451  0  0  -0.612259  0  2.129809  0  0  -0.333228  -0.56132  0  2.146322  0
O  O97  1  0.48256093  0.56951374  0.65089417  1  0  -0.651016  0  1.918502  0  0  -0.583081  0  2.140401  0  0  -0.612181  0  2.12977  0  0  -0.333213  -0.561241  0  2.146267  0
O  O98  1  0.67732983  0.27835103  0.23154983  1  0  -0.63792  0  1.931214  0  0  -0.579732  0  2.160459  0  0  -0.606417  0  2.150665  0  0  -0.330069  -0.559999  0  2.167814  0
O  O99  1  0.32271348  0.72165441  0.76845399  1  0  -0.637776  0  1.931339  0  0  -0.579635  0  2.160685  0  0  -0.606323  0  2.150896  0  0  -0.330079  -0.559901  0  2.168035  0
