# generated using pymatgen
data_Zn2H22C40S(N2O5)2
_symmetry_space_group_name_H-M   'P 1'
_cell_length_a   5.78382572
_cell_length_b   11.62435546
_cell_length_c   27.08225964
_cell_angle_alpha   90.00032875
_cell_angle_beta   89.99923297
_cell_angle_gamma   90.25036531
_symmetry_Int_Tables_number   1
_chemical_formula_structural   Zn2H22C40S(N2O5)2
_chemical_formula_sum   'Zn4 H44 C80 S2 N8 O20'
_cell_volume   1820.81084439
_cell_formula_units_Z   2
loop_
 _symmetry_equiv_pos_site_id
 _symmetry_equiv_pos_as_xyz
  1  'x, y, z'
loop_
 _atom_site_type_symbol
 _atom_site_label
 _atom_site_symmetry_multiplicity
 _atom_site_fract_x
 _atom_site_fract_y
 _atom_site_fract_z
 _atom_site_occupancy
 _atom_site_pbe_bader_charge
 _atom_site_pbe_bader_spin_density
 _atom_site_pbe_cm5_charge
 _atom_site_pbe_ddec_charge
 _atom_site_pbe_ddec_spin_density
 _atom_site_pbe_ddec_sum_bond_order
 _atom_site_pbe_magmom
Zn  Zn0  1  0.33442747  0.88356634  0.95190090  1  1.306513  0  0.704547  0.844456  0  2.301752  0
Zn  Zn1  1  0.66553819  0.11643057  0.45190605  1  1.306569  0  0.704569  0.84463  0  2.301699  0
Zn  Zn2  1  0.66555972  0.11640129  0.04809669  1  1.30642  0  0.704501  0.844551  0  2.30157  0
Zn  Zn3  1  0.33447307  0.88358597  0.54809708  1  1.306369  0  0.704529  0.84452  0  2.301672  0
H  H4  1  0.40154879  0.23412155  0.89062996  1  0.103364  0  0.106062  0.110977  0  1.002586  0
H  H5  1  0.59845702  0.76588039  0.39062887  1  0.103435  0  0.106055  0.110973  0  1.002504  0
H  H6  1  0.59847555  0.76587168  0.10938203  1  0.103238  0  0.10605  0.111059  0  1.002778  0
H  H7  1  0.40156681  0.23415070  0.60937241  1  0.103238  0  0.106108  0.111012  0  1.002598  0
H  H8  1  0.49568013  0.32657359  0.80938524  1  0.106479  0  0.104982  0.111217  0  1.044704  0
H  H9  1  0.50427140  0.67341736  0.30938309  1  0.106688  0  0.104925  0.111115  0  1.044755  0
H  H10  1  0.50431704  0.67343529  0.19062933  1  0.106316  0  0.105  0.11126  0  1.044802  0
H  H11  1  0.49572224  0.32658896  0.69061894  1  0.106622  0  0.105032  0.111208  0  1.044689  0
H  H12  1  0.12807079  0.13131817  0.80257259  1  0.132584  0  0.114099  0.124973  0  0.989656  0
H  H13  1  0.87186361  0.86866504  0.30259495  1  0.132377  0  0.114151  0.124982  0  0.989656  0
H  H14  1  0.87185419  0.86865069  0.19740912  1  0.132331  0  0.114181  0.124987  0  0.989681  0
H  H15  1  0.12813904  0.13135241  0.69741261  1  0.132288  0  0.114193  0.125055  0  0.989563  0
H  H16  1  0.72992808  0.84896980  0.87339020  1  0.166054  0  0.119334  0.096668  0  1.033181  0
H  H17  1  0.27005672  0.15104583  0.37339145  1  0.166076  0  0.119361  0.096702  0  1.033173  0
H  H18  1  0.27004397  0.15101084  0.12661219  1  0.165939  0  0.119344  0.096673  0  1.033041  0
H  H19  1  0.72997032  0.84897750  0.62661463  1  0.165877  0  0.119352  0.096694  0  1.032968  0
H  H20  1  0.80520432  0.70951185  0.80529440  1  0.101319  0  0.117747  0.127271  0  0.970641  0
H  H21  1  0.19479458  0.29049253  0.30529440  1  0.09962  0  0.117737  0.127239  0  0.970407  0
H  H22  1  0.19476110  0.29047742  0.19470429  1  0.100114  0  0.117687  0.127232  0  0.970472  0
H  H23  1  0.80521815  0.70951626  0.69470725  1  0.099465  0  0.117731  0.12727  0  0.970586  0
H  H24  1  0.54751661  0.53660398  0.79630603  1  0.14621  0  0.108913  0.119542  0  1.027129  0
H  H25  1  0.45249161  0.46340454  0.29630090  1  0.146103  0  0.108916  0.119544  0  1.02679  0
H  H26  1  0.45242856  0.46340090  0.20368787  1  0.146232  0  0.108897  0.119448  0  1.02702  0
H  H27  1  0.54753839  0.53660329  0.70369226  1  0.14624  0  0.10888  0.119446  0  1.027127  0
H  H28  1  0.19631086  0.42533689  0.82774765  1  0.093442  0  0.100788  0.107496  0  1.042564  0
H  H29  1  0.80368841  0.57466691  0.32775173  1  0.093534  0  0.100775  0.107425  0  1.042673  0
H  H30  1  0.80365133  0.57465929  0.17224366  1  0.093623  0  0.100821  0.107557  0  1.042475  0
H  H31  1  0.19633978  0.42533835  0.67224438  1  0.093532  0  0.100782  0.107508  0  1.04268  0
H  H32  1  0.88252903  0.40359028  0.88903801  1  0.08916  0  0.100662  0.106727  0  1.024231  0
H  H33  1  0.11745964  0.59641346  0.38904457  1  0.089584  0  0.100626  0.106687  0  1.024257  0
H  H34  1  0.11746073  0.59640315  0.11095588  1  0.089931  0  0.100715  0.106902  0  1.023956  0
H  H35  1  0.88256004  0.40359614  0.61095191  1  0.08986  0  0.100743  0.106897  0  1.024063  0
H  H36  1  0.65878968  0.48671695  0.96156970  1  0.0713  0  0.108593  0.109922  0  0.993765  0
H  H37  1  0.34120492  0.51328421  0.46158202  1  0.071472  0  0.108505  0.109854  0  0.99367  0
H  H38  1  0.34120654  0.51326268  0.03842752  1  0.07166  0  0.108472  0.109705  0  0.99372  0
H  H39  1  0.65881487  0.48672884  0.53842849  1  0.071596  0  0.108528  0.109788  0  0.993798  0
H  H40  1  0.59988073  0.65448212  0.01961315  1  0.096069  0  0.105478  0.11061  0  1.022566  0
H  H41  1  0.40009504  0.34550686  0.51961786  1  0.095833  0  0.105442  0.11055  0  1.022537  0
H  H42  1  0.40010303  0.34548640  0.98038481  1  0.096051  0  0.105418  0.110496  0  1.022819  0
H  H43  1  0.59990228  0.65450632  0.48038822  1  0.096246  0  0.105407  0.11046  0  1.022714  0
H  H44  1  0.86880730  0.82221495  0.01518202  1  0.161883  0  0.121196  0.104191  0  1.006641  0
H  H45  1  0.13116360  0.17777572  0.51517898  1  0.16205  0  0.121221  0.104229  0  1.006647  0
H  H46  1  0.13118009  0.17775871  0.98482295  1  0.161886  0  0.121193  0.104221  0  1.006632  0
H  H47  1  0.86884054  0.82223484  0.48482673  1  0.162021  0  0.121244  0.104231  0  1.00656  0
C  C48  1  0.65679555  0.07991468  0.94112369  1  1.612597  0  0.221154  0.603306  0  4.190964  0
C  C49  1  0.34322946  0.92008002  0.44112598  1  1.612874  0  0.221148  0.603332  0  4.19094  0
C  C50  1  0.34321224  0.92004853  0.05887168  1  1.579536  0  0.221101  0.603341  0  4.190844  0
C  C51  1  0.65680767  0.07993464  0.55887383  1  1.612439  0  0.221111  0.603388  0  4.191027  0
C  C52  1  0.71205663  0.13218093  0.89176664  1  -0.140184  0  0.001489  -0.028243  0  3.90654  0
C  C53  1  0.28792978  0.86781168  0.39177080  1  -0.140813  0  0.0014  -0.028515  0  3.906784  0
C  C54  1  0.28794110  0.86779181  0.10823427  1  -0.108879  0  0.001612  -0.028222  0  3.906409  0
C  C55  1  0.71207643  0.13220919  0.60823085  1  -0.140954  0  0.001516  -0.028405  0  3.906205  0
C  C56  1  0.56059881  0.21274680  0.87110326  1  0.042648  0  -0.083305  -0.095807  0  3.965569  0
C  C57  1  0.43940634  0.78725233  0.37110085  1  0.042696  0  -0.083188  -0.095647  0  3.965316  0
C  C58  1  0.43942006  0.78723786  0.12890356  1  0.043608  0  -0.083421  -0.09607  0  3.965579  0
C  C59  1  0.56061395  0.21277620  0.62889637  1  0.042969  0  -0.083333  -0.095844  0  3.965421  0
C  C60  1  0.61231917  0.26476459  0.82616128  1  -0.051368  0  -0.086133  -0.099766  0  3.997189  0
C  C61  1  0.38765930  0.73523501  0.32616407  1  -0.051596  0  -0.086091  -0.099663  0  3.99734  0
C  C62  1  0.38769683  0.73523816  0.17384923  1  -0.051537  0  -0.086044  -0.099638  0  3.997028  0
C  C63  1  0.61234164  0.26478331  0.67383685  1  -0.051863  0  -0.08619  -0.099706  0  3.997273  0
C  C64  1  0.82079915  0.23729438  0.80285047  1  -0.276955  0  -0.025144  -0.086433  0  4.009409  0
C  C65  1  0.17917397  0.76271013  0.30285875  1  -0.27611  0  -0.025158  -0.086445  0  4.00921  0
C  C66  1  0.17919078  0.76270422  0.19715044  1  -0.276995  0  -0.025156  -0.086488  0  4.009553  0
C  C67  1  0.82081479  0.23730568  0.69714622  1  -0.268103  0  -0.025057  -0.086219  0  4.009164  0
C  C68  1  0.96893417  0.15376424  0.82174185  1  -0.00058  0  -0.073869  -0.106319  0  3.946543  0
C  C69  1  0.03103754  0.84623190  0.32175411  1  -0.000341  0  -0.073919  -0.106376  0  3.946641  0
C  C70  1  0.03103947  0.84621208  0.17825316  1  -0.000153  0  -0.073915  -0.106358  0  3.946731  0
C  C71  1  0.96896337  0.15378556  0.67825124  1  -0.008792  0  -0.073971  -0.106595  0  3.946645  0
C  C72  1  0.91358871  0.09980266  0.86633009  1  0.081623  0  -0.001091  -0.023674  0  3.91143  0
C  C73  1  0.08641489  0.90019298  0.36633974  1  0.081479  0  -0.001081  -0.023509  0  3.911124  0
C  C74  1  0.08640194  0.90016496  0.13366159  1  0.081767  0  -0.001203  -0.023791  0  3.911438  0
C  C75  1  0.91361572  0.09983377  0.63366080  1  0.081426  0  -0.001167  -0.023615  0  3.911424  0
C  C76  1  0.06930610  0.00542373  0.88510256  1  1.602048  0  0.199001  0.564729  0  4.255106  0
C  C77  1  0.93070346  0.99457727  0.38511620  1  1.602514  0  0.199298  0.565308  0  4.253987  0
C  C78  1  0.93068792  0.99454129  0.11488875  1  1.60175  0  0.199342  0.565511  0  4.254273  0
C  C79  1  0.06932938  0.00546496  0.61488656  1  1.602412  0  0.199219  0.56545  0  4.25415  0
C  C80  1  0.61661358  0.77513148  0.86777737  1  0.518964  0  0.066687  0.128883  0  3.888815  0
C  C81  1  0.38337122  0.22487375  0.36777996  1  0.518872  0  0.066552  0.128766  0  3.888797  0
C  C82  1  0.38336728  0.22485427  0.13222022  1  0.518893  0  0.066662  0.128917  0  3.888298  0
C  C83  1  0.61665545  0.77513839  0.63222354  1  0.519548  0  0.066666  0.129032  0  3.888257  0
C  C84  1  0.65775018  0.69571173  0.82965816  1  -0.011903  0  -0.07348  -0.112196  0  3.946666  0
C  C85  1  0.34227306  0.30428851  0.32965849  1  -0.012371  0  -0.073384  -0.112006  0  3.946558  0
C  C86  1  0.34221884  0.30428183  0.17033796  1  -0.010995  0  -0.073474  -0.112235  0  3.946573  0
C  C87  1  0.65778267  0.69571315  0.67033910  1  -0.011851  0  -0.073385  -0.1122  0  3.946572  0
C  C88  1  0.51431105  0.60095921  0.82466421  1  -0.080073  0  -0.062232  -0.075416  0  3.903822  0
C  C89  1  0.48569523  0.39904193  0.32466509  1  -0.079519  0  -0.062237  -0.075567  0  3.903662  0
C  C90  1  0.48565448  0.39903351  0.17532822  1  -0.079865  0  -0.062149  -0.075389  0  3.90425  0
C  C91  1  0.51433979  0.60096070  0.67533509  1  -0.080327  0  -0.062179  -0.075406  0  3.903885  0
C  C92  1  0.32731432  0.58630831  0.85778320  1  -0.00136  0  -0.001011  0.046001  0  4.002283  0
C  C93  1  0.67267652  0.41370451  0.35778540  1  -0.001681  0  -0.000966  0.046251  0  4.001643  0
C  C94  1  0.67265620  0.41367836  0.14221181  1  -0.000357  0  -0.000925  0.046298  0  4.00223  0
C  C95  1  0.32734508  0.58631111  0.64221662  1  -0.000715  0  -0.000946  0.046265  0  4.001938  0
C  C96  1  0.17262438  0.48954842  0.85662904  1  -0.017402  0  -0.086511  -0.121989  0  3.972687  0
C  C97  1  0.82737347  0.51046520  0.35663288  1  -0.017408  0  -0.086635  -0.122232  0  3.972445  0
C  C98  1  0.82735818  0.51043646  0.14336707  1  -0.017911  0  -0.08666  -0.122171  0  3.972866  0
C  C99  1  0.17263779  0.48955134  0.64336766  1  -0.01778  0  -0.086557  -0.122162  0  3.973066  0
C  C100  1  0.99755152  0.47815846  0.89024168  1  -0.072616  0  -0.087773  -0.124234  0  3.995468  0
C  C101  1  0.00244433  0.52185558  0.39024691  1  -0.072842  0  -0.087652  -0.124001  0  3.99533  0
C  C102  1  0.00243101  0.52182555  0.10975444  1  -0.072907  0  -0.087798  -0.124591  0  3.995354  0
C  C103  1  0.99759108  0.47815909  0.60975327  1  -0.072672  0  -0.087845  -0.124449  0  3.995536  0
C  C104  1  0.95622282  0.56538723  0.92646741  1  0.001838  0  -0.00426  0.039177  0  4.031392  0
C  C105  1  0.04375333  0.43461963  0.42646713  1  0.000954  0  -0.004238  0.039164  0  4.031225  0
C  C106  1  0.04374215  0.43458828  0.07352833  1  0.001219  0  -0.004301  0.039346  0  4.031112  0
C  C107  1  0.95627856  0.56539335  0.57352899  1  0.000475  0  -0.004355  0.039275  0  4.030855  0
C  C108  1  0.77376444  0.56135767  0.96111878  1  -0.075249  0  -0.067243  -0.079717  0  3.937537  0
C  C109  1  0.22621474  0.43864701  0.46112534  1  -0.074875  0  -0.067089  -0.079574  0  3.93668  0
C  C110  1  0.22622144  0.43862288  0.03887734  1  -0.074679  0  -0.067081  -0.079521  0  3.937086  0
C  C111  1  0.77378949  0.56136613  0.53887927  1  -0.074392  0  -0.067113  -0.07957  0  3.93684  0
C  C112  1  0.74185672  0.65238726  0.99324440  1  -0.013915  0  -0.0842  -0.129711  0  3.978542  0
C  C113  1  0.25811313  0.34760239  0.49324731  1  -0.01413  0  -0.084277  -0.129856  0  3.978254  0
C  C114  1  0.25813741  0.34758120  0.00675504  1  -0.014998  0  -0.084155  -0.129653  0  3.978369  0
C  C115  1  0.74187217  0.65241344  0.50675951  1  -0.014771  0  -0.084125  -0.129645  0  3.978282  0
C  C116  1  0.89198546  0.74792466  0.99097639  1  0.544471  0  0.067006  0.132221  0  3.878529  0
C  C117  1  0.10796568  0.25207023  0.49097618  1  0.544724  0  0.066937  0.132138  0  3.878578  0
C  C118  1  0.10798118  0.25204912  0.00902378  1  0.545083  0  0.067067  0.132244  0  3.878613  0
C  C119  1  0.89201608  0.74794304  0.50902769  1  0.544764  0  0.066991  0.132243  0  3.878677  0
C  C120  1  0.10179817  0.66397686  0.92761680  1  0.496102  0  0.119225  0.119565  0  3.979757  0
C  C121  1  0.89816964  0.33604125  0.42762109  1  0.495885  0  0.119213  0.119697  0  3.979956  0
C  C122  1  0.89816719  0.33601070  0.07238042  1  0.49633  0  0.119338  0.119741  0  3.980358  0
C  C123  1  0.10184182  0.66398131  0.57237798  1  0.496311  0  0.119301  0.119695  0  3.979695  0
C  C124  1  0.29519774  0.67230164  0.89420351  1  0.46885  0  0.120635  0.125291  0  3.976867  0
C  C125  1  0.70477520  0.32770656  0.39420946  1  0.46928  0  0.120717  0.125318  0  3.976793  0
C  C126  1  0.70478491  0.32768581  0.10578965  1  0.468883  0  0.120534  0.125214  0  3.977462  0
C  C127  1  0.29524294  0.67230908  0.60579146  1  0.468748  0  0.120466  0.125127  0  3.976814  0
S  S128  1  0.90578647  0.31672520  0.75000220  1  2.432435  0  0.474421  0.968428  0  5.740224  0
S  S129  1  0.09419002  0.68328552  0.25000610  1  2.431029  0  0.47445  0.968522  0  5.739898  0
N  N130  1  0.44049496  0.76347097  0.89905640  1  -1.232894  0  -0.31639  -0.262892  0  3.573427  0
N  N131  1  0.55948297  0.23653985  0.39906292  1  -1.233009  0  -0.316383  -0.262986  0  3.57345  0
N  N132  1  0.55949840  0.23652675  0.10094267  1  -1.2334  0  -0.316344  -0.262973  0  3.57371  0
N  N133  1  0.44054396  0.76348004  0.60094132  1  -1.233527  0  -0.31634  -0.263005  0  3.573245  0
N  N134  1  0.06665324  0.75260178  0.95906597  1  -1.23515  0  -0.30957  -0.254987  0  3.510734  0
N  N135  1  0.93330036  0.24740992  0.45906549  1  -1.235024  0  -0.309557  -0.254966  0  3.510663  0
N  N136  1  0.93333630  0.24738477  0.04093273  1  -1.235703  0  -0.309617  -0.255055  0  3.511266  0
N  N137  1  0.06669029  0.75261105  0.54092989  1  -1.235374  0  -0.309627  -0.255096  0  3.510901  0
O  O138  1  0.65337344  0.97150309  0.94484278  1  -1.160894  0  -0.310984  -0.550923  0  2.335442  0
O  O139  1  0.34663582  0.02849262  0.44484238  1  -1.16079  0  -0.311053  -0.550958  0  2.335537  0
O  O140  1  0.34663971  0.02846526  0.05515850  1  -1.160037  0  -0.311088  -0.551072  0  2.335646  0
O  O141  1  0.65338771  0.97152901  0.55515779  1  -1.160304  0  -0.311011  -0.550967  0  2.335968  0
O  O142  1  0.61915510  0.15236375  0.97551204  1  -1.165315  0  -0.310344  -0.546952  0  2.365127  0
O  O143  1  0.38089882  0.84762605  0.47550996  1  -1.165559  0  -0.310213  -0.546856  0  2.3649  0
O  O144  1  0.38087174  0.84760022  0.02448408  1  -1.165508  0  -0.310136  -0.546722  0  2.364869  0
O  O145  1  0.61912789  0.15238696  0.52448763  1  -1.165452  0  -0.310219  -0.546922  0  2.364972  0
O  O146  1  0.15562405  0.02058158  0.92885692  1  -1.165621  0  -0.326298  -0.551829  0  2.299098  0
O  O147  1  0.84436035  0.97941751  0.42886820  1  -1.16618  0  -0.326475  -0.552221  0  2.299123  0
O  O148  1  0.84436342  0.97939466  0.07113328  1  -1.166175  0  -0.326457  -0.552129  0  2.29894  0
O  O149  1  0.15562999  0.02059398  0.57113197  1  -1.166272  0  -0.326438  -0.552131  0  2.299156  0
O  O150  1  0.10227326  0.92157260  0.85740069  1  -1.155112  0  -0.322204  -0.533917  0  2.095577  0
O  O151  1  0.89773296  0.07843410  0.35741908  1  -1.154834  0  -0.322291  -0.534083  0  2.095076  0
O  O152  1  0.89772765  0.07839152  0.14258472  1  -1.15389  0  -0.322396  -0.534286  0  2.095256  0
O  O153  1  0.10234853  0.92161558  0.64259254  1  -1.154152  0  -0.322323  -0.534323  0  2.094723  0
O  O154  1  0.15785388  0.32151034  0.75000407  1  -1.286042  0  -0.314357  -0.537007  0  2.203674  0
O  O155  1  0.84211299  0.67852367  0.25000276  1  -1.285247  0  -0.314429  -0.537094  0  2.203654  0
O  O156  1  0.77584950  0.42354641  0.75000549  1  -1.318338  0  -0.311265  -0.528066  0  2.22045  0
O  O157  1  0.22409029  0.57645248  0.25000318  1  -1.318262  0  -0.311271  -0.528086  0  2.220353  0
