# generated using pymatgen
data_VH18(C6O)5
_symmetry_space_group_name_H-M   'P 1'
_cell_length_a   6.99570472
_cell_length_b   9.71668369
_cell_length_c   16.55854279
_cell_angle_alpha   107.55231039
_cell_angle_beta   91.82892592
_cell_angle_gamma   89.95119604
_symmetry_Int_Tables_number   1
_chemical_formula_structural   VH18(C6O)5
_chemical_formula_sum   'V2 H36 C60 O10'
_cell_volume   1072.57145023
_cell_formula_units_Z   2
loop_
 _symmetry_equiv_pos_site_id
 _symmetry_equiv_pos_as_xyz
  1  'x, y, z'
loop_
 _atom_site_type_symbol
 _atom_site_label
 _atom_site_symmetry_multiplicity
 _atom_site_fract_x
 _atom_site_fract_y
 _atom_site_fract_z
 _atom_site_occupancy
 _atom_site_pbe_bader_spin_density
 _atom_site_pbe_cm5_charge
 _atom_site_pbe_ddec_charge
 _atom_site_pbe_ddec_spin_density
 _atom_site_pbe_ddec_sum_bond_order
 _atom_site_pbe_magmom
V  V0  1  0.54024664  0.01904182  0.00087331  1  0  1.406327  1.808045  0  3.032016  0
V  V1  1  0.04047368  0.98179968  0.00088918  1  0  1.407213  1.809204  0  3.031336  0
H  H2  1  0.15212621  0.36346019  0.94117941  1  0  0.098993  0.098524  0  1.024441  0
H  H3  1  0.35252022  0.42732304  0.06126696  1  0  0.099367  0.09959  0  1.026307  0
H  H4  1  0.85142607  0.63357577  0.05896538  1  0  0.099045  0.098899  0  1.02611  0
H  H5  1  0.65172164  0.57563297  0.93877033  1  0  0.099341  0.099569  0  1.020899  0
H  H6  1  0.22818609  0.50767698  0.67888948  1  0  0.097471  0.096482  0  1.016902  0
H  H7  1  0.26459835  0.83897908  0.32353549  1  0  0.097287  0.095516  0  1.017922  0
H  H8  1  0.76517975  0.48689555  0.31974797  1  0  0.097597  0.096427  0  1.015252  0
H  H9  1  0.72739393  0.16491435  0.67486007  1  0  0.097356  0.095771  0  1.018369  0
H  H10  1  0.13607067  0.61958375  0.94657593  1  0  0.101331  0.097969  0  1.021489  0
H  H11  1  0.37059961  0.67868908  0.05708625  1  0  0.102134  0.105522  0  1.007595  0
H  H12  1  0.86875405  0.37712649  0.05320007  1  0  0.101926  0.104546  0  1.009044  0
H  H13  1  0.63388888  0.32421377  0.94253398  1  0  0.101365  0.09913  0  1.019788  0
H  H14  1  0.17783037  0.69245956  0.81721564  1  0  0.100291  0.099792  0  1.024856  0
H  H15  1  0.32442622  0.88321805  0.18619820  1  0  0.100322  0.100515  0  1.021382  0
H  H16  1  0.82344400  0.30315276  0.18160450  1  0  0.100608  0.10138  0  1.021203  0
H  H17  1  0.67489812  0.11987472  0.81235403  1  0  0.100276  0.099918  0  1.023887  0
H  H18  1  0.27539453  0.25376798  0.59676568  1  0  0.098453  0.099081  0  1.031444  0
H  H19  1  0.21315965  0.66901663  0.40429658  1  0  0.098702  0.099406  0  1.032149  0
H  H20  1  0.71452127  0.73971406  0.40190043  1  0  0.098575  0.099667  0  1.03029  0
H  H21  1  0.77781284  0.33611879  0.59431388  1  0  0.09799  0.098401  0  1.034705  0
H  H22  1  0.40377096  0.67951376  0.64369059  1  0  0.098152  0.093165  0  1.022349  0
H  H23  1  0.09172312  0.04641543  0.35710135  1  0  0.097761  0.092604  0  1.022556  0
H  H24  1  0.59126265  0.31601813  0.35755054  1  0  0.097763  0.0929  0  1.022071  0
H  H25  1  0.90259785  0.95952242  0.64399619  1  0  0.097989  0.092828  0  1.023988  0
H  H26  1  0.40372498  0.74898754  0.51087199  1  0  0.095094  0.088888  0  1.031323  0
H  H27  1  0.09012442  0.25233525  0.49015435  1  0  0.095108  0.089182  0  1.028963  0
H  H28  1  0.58630223  0.24417561  0.48956357  1  0  0.095296  0.089319  0  1.029651  0
H  H29  1  0.90056777  0.75501853  0.51026147  1  0  0.09471  0.088147  0  1.030187  0
H  H30  1  0.32840695  0.85698769  0.77906835  1  0  0.10322  0.107974  0  1.023436  0
H  H31  1  0.16961382  0.08473728  0.22222358  1  0  0.103071  0.106126  0  1.026724  0
H  H32  1  0.67152417  0.14080436  0.22232492  1  0  0.103619  0.107089  0  1.026028  0
H  H33  1  0.82983834  0.91899693  0.77900659  1  0  0.103105  0.107533  0  1.023165  0
H  H34  1  0.32822947  0.00028699  0.51376773  1  0  0.097115  0.097978  0  1.024526  0
H  H35  1  0.16291432  0.50084501  0.48715931  1  0  0.097196  0.098226  0  1.027904  0
H  H36  1  0.66067548  0.99224550  0.48563807  1  0  0.097014  0.097877  0  1.025251  0
H  H37  1  0.82773331  0.50595740  0.51223937  1  0  0.097311  0.098173  0  1.026636  0
C  C38  1  0.20929797  0.28552189  0.80664528  1  0  0.000319  0.061882  0  3.980514  0
C  C39  1  0.28934978  0.48602862  0.19520503  1  0  0.000893  0.063361  0  3.97249  0
C  C40  1  0.78966295  0.71073349  0.19308530  1  0  0.000315  0.062389  0  3.97313  0
C  C41  1  0.71026394  0.51731997  0.80441956  1  0  -0.000103  0.060717  0  3.979874  0
C  C42  1  0.22738057  0.32739473  0.73058173  1  0  -0.006014  0.080857  0  4.021542  0
C  C43  1  0.26723469  0.60575530  0.27111393  1  0  -0.005858  0.079749  0  4.020926  0
C  C44  1  0.76809074  0.66779984  0.26862063  1  0  -0.005197  0.080811  0  4.016939  0
C  C45  1  0.72847445  0.39810368  0.72793252  1  0  -0.005418  0.082483  0  4.021847  0
C  C46  1  0.17253939  0.39455854  0.88400440  1  0  -0.090757  -0.132088  0  3.98066  0
C  C47  1  0.32971015  0.51656211  0.11844578  1  0  -0.091838  -0.134656  0  3.979549  0
C  C48  1  0.82911363  0.60211043  0.11584591  1  0  -0.091806  -0.134267  0  3.977962  0
C  C49  1  0.67242918  0.48644664  0.88127752  1  0  -0.091493  -0.133113  0  3.978504  0
C  C50  1  0.21483855  0.47653251  0.73648834  1  0  -0.089918  -0.130161  0  3.976081  0
C  C51  1  0.28070798  0.74918937  0.26585477  1  0  -0.089257  -0.1283  0  3.971889  0
C  C52  1  0.78114735  0.51855196  0.26244778  1  0  -0.089558  -0.129022  0  3.972522  0
C  C53  1  0.71445816  0.25453522  0.73285031  1  0  -0.09012  -0.130628  0  3.97657  0
C  C54  1  0.16314486  0.53700141  0.88705119  1  0  -0.087811  -0.06492  0  3.991322  0
C  C55  1  0.34013489  0.65624907  0.11601554  1  0  -0.086777  -0.065872  0  3.988439  0
C  C56  1  0.83912645  0.45949489  0.11252308  1  0  -0.086856  -0.065561  0  3.985568  0
C  C57  1  0.66197430  0.34667521  0.88342131  1  0  -0.08695  -0.064465  0  3.990683  0
C  C58  1  0.18655201  0.57874012  0.81278552  1  0  -0.088947  -0.067716  0  3.995093  0
C  C59  1  0.31381726  0.77387204  0.19020257  1  0  -0.089556  -0.069081  0  3.996212  0
C  C60  1  0.81333694  0.41695821  0.18634339  1  0  -0.089201  -0.068177  0  3.995195  0
C  C61  1  0.68512300  0.22944537  0.80870476  1  0  -0.089683  -0.069153  0  3.994863  0
C  C62  1  0.28292161  0.03472566  0.72600338  1  0  -0.002927  0.051657  0  3.984405  0
C  C63  1  0.21230193  0.31730593  0.27505414  1  0  -0.002185  0.053439  0  3.980338  0
C  C64  1  0.71321418  0.96114462  0.27414477  1  0  -0.002371  0.053798  0  3.978771  0
C  C65  1  0.78438790  0.68691597  0.72499961  1  0  -0.003023  0.051927  0  3.983483  0
C  C66  1  0.28749287  0.07628762  0.64935577  1  0  -0.011197  0.07067  0  4.039619  0
C  C67  1  0.20518398  0.43752130  0.35168899  1  0  -0.011454  0.069629  0  4.040608  0
C  C68  1  0.70581285  0.91836140  0.35032898  1  0  -0.01073  0.070502  0  4.037894  0
C  C69  1  0.78898012  0.56742435  0.64792141  1  0  -0.010692  0.071876  0  4.037166  0
C  C70  1  0.23984620  0.14045281  0.80241764  1  0  -0.006877  -0.122243  0  3.905012  0
C  C71  1  0.25849404  0.34489840  0.19902260  1  0  -0.007255  -0.124413  0  3.901743  0
C  C72  1  0.75914893  0.85619690  0.19772727  1  0  -0.007474  -0.125277  0  3.901489  0
C  C73  1  0.74123496  0.65848842  0.80105585  1  0  -0.007444  -0.122523  0  3.902995  0
C  C74  1  0.26180990  0.22147906  0.65403140  1  0  -0.086545  -0.183314  0  3.952141  0
C  C75  1  0.22963654  0.57806201  0.34720382  1  0  -0.086536  -0.182384  0  3.953528  0
C  C76  1  0.73083419  0.77291336  0.34510173  1  0  -0.085803  -0.181527  0  3.951699  0
C  C77  1  0.76377566  0.42660758  0.65185768  1  0  -0.087065  -0.184687  0  3.954237  0
C  C78  1  0.36717022  0.78945945  0.64566899  1  0  -0.09234  -0.073149  0  4.017853  0
C  C79  1  0.12782607  0.15447535  0.35532437  1  0  -0.091769  -0.072071  0  4.019711  0
C  C80  1  0.62744663  0.20583989  0.35522522  1  0  -0.092096  -0.072197  0  4.021048  0
C  C81  1  0.86662376  0.85127988  0.64546405  1  0  -0.092095  -0.072275  0  4.019189  0
C  C82  1  0.36738195  0.82938201  0.56999402  1  0  -0.09912  -0.093394  0  4.050008  0
C  C83  1  0.12622297  0.27203944  0.43101793  1  0  -0.099092  -0.094063  0  4.048383  0
C  C84  1  0.62427027  0.16456754  0.43040037  1  0  -0.099188  -0.093889  0  4.049753  0
C  C85  1  0.86601202  0.73448286  0.56934463  1  0  -0.097667  -0.091466  0  4.047045  0
C  C86  1  0.32524053  0.88894066  0.72135651  1  0  -0.088589  -0.12524  0  3.958022  0
C  C87  1  0.17096367  0.17619993  0.27976246  1  0  -0.08996  -0.125938  0  3.956563  0
C  C88  1  0.67192992  0.10746714  0.27951158  1  0  -0.090043  -0.12719  0  3.957909  0
C  C89  1  0.82613762  0.82833683  0.72096854  1  0  -0.089085  -0.126574  0  3.959074  0
C  C90  1  0.32695859  0.96861517  0.57164751  1  0  -0.094511  -0.140063  0  3.987396  0
C  C91  1  0.16539209  0.40967519  0.42933222  1  0  -0.095409  -0.140286  0  3.985992  0
C  C92  1  0.66419268  0.02500877  0.42816629  1  0  -0.095542  -0.140883  0  3.985827  0
C  C93  1  0.82688651  0.59649906  0.57044033  1  0  -0.095841  -0.141283  0  3.984961  0
C  C94  1  0.24344522  0.09760513  0.88184594  1  0  0.238636  0.640724  0  4.084653  0
C  C95  1  0.26492251  0.22022432  0.12012883  1  0  0.238385  0.642462  0  4.076876  0
C  C96  1  0.76510534  0.90104202  0.11923257  1  0  0.238097  0.642396  0  4.074065  0
C  C97  1  0.74410287  0.78214220  0.88091029  1  0  0.239183  0.642634  0  4.080798  0
O  O98  1  0.40827840  0.08799187  0.91497368  1  0  -0.346117  -0.603725  0  2.440364  0
O  O99  1  0.10401139  0.16212775  0.08840479  1  0  -0.346753  -0.586667  0  2.396865  0
O  O100  1  0.60402900  0.92691130  0.08773112  1  0  -0.345752  -0.585407  0  2.392867  0
O  O101  1  0.90863496  0.82564688  0.91437520  1  0  -0.346126  -0.604929  0  2.443893  0
O  O102  1  0.08480724  0.06999283  0.91051878  1  0  -0.342985  -0.573752  0  2.34919  0
O  O103  1  0.42787265  0.17716953  0.09027830  1  0  -0.344617  -0.596697  0  2.390817  0
O  O104  1  0.92803860  0.91401167  0.08957373  1  0  -0.344824  -0.596462  0  2.386664  0
O  O105  1  0.58524208  0.83883450  0.90967827  1  0  -0.342678  -0.574824  0  2.348061  0
O  O106  1  0.75691892  0.08333035  0.00090347  1  0  -0.592972  -0.759399  0  1.758798  0
O  O107  1  0.25726378  0.91724889  0.00038806  1  0  -0.593456  -0.759957  0  1.757726  0
