# generated using pymatgen
data_Mg3H52C54(N5O8)2
_symmetry_space_group_name_H-M   'P 1'
_cell_length_a   15.15440531
_cell_length_b   15.15446815
_cell_length_c   16.96717482
_cell_angle_alpha   70.06744787
_cell_angle_beta   70.06743652
_cell_angle_gamma   70.65282942
_symmetry_Int_Tables_number   1
_chemical_formula_structural   Mg3H52C54(N5O8)2
_chemical_formula_sum   'Mg6 H104 C108 N20 O32'
_cell_volume   3340.22871076
_cell_formula_units_Z   2
loop_
 _symmetry_equiv_pos_site_id
 _symmetry_equiv_pos_as_xyz
  1  'x, y, z'
loop_
 _atom_site_type_symbol
 _atom_site_label
 _atom_site_symmetry_multiplicity
 _atom_site_fract_x
 _atom_site_fract_y
 _atom_site_fract_z
 _atom_site_occupancy
 _atom_site_pbe_bader_charge
 _atom_site_pbe_bader_spin_density
 _atom_site_pbe_cm5_charge
 _atom_site_pbe_ddec_charge
 _atom_site_pbe_ddec_spin_density
 _atom_site_pbe_ddec_sum_bond_order
 _atom_site_pbe_magmom
Mg  Mg0  1  0.99999992  0.50000215  0.99999664  1  1.703697  0  0.814713  1.414929  0  1.387969  0
Mg  Mg1  1  0.49999975  0.99999997  0.49999989  1  1.703696  0  0.814689  1.414898  0  1.38805  0
Mg  Mg2  1  0.02898311  0.63826318  0.77892714  1  1.686524  0  0.826928  1.337753  0  1.466488  0
Mg  Mg3  1  0.36173635  0.97101461  0.72107310  1  1.686505  0  0.826913  1.337762  0  1.466529  0
Mg  Mg4  1  0.97101498  0.36173887  0.22107538  1  1.686485  0  0.826927  1.337822  0  1.466405  0
Mg  Mg5  1  0.63826102  0.02898416  0.27892648  1  1.686494  0  0.826921  1.337784  0  1.466475  0
H  H6  1  0.27114187  0.73400787  0.81764266  1  0.160102  0  0.109143  0.125661  0  1.034397  0
H  H7  1  0.26599465  0.72885663  0.68235476  1  0.16049  0  0.109173  0.125666  0  1.034343  0
H  H8  1  0.72885192  0.26600017  0.18235935  1  0.160194  0  0.109176  0.125728  0  1.034289  0
H  H9  1  0.73400700  0.27113959  0.31764901  1  0.160482  0  0.109153  0.125586  0  1.034404  0
H  H10  1  0.90506998  0.49114514  0.70711125  1  0.107972  0  0.101231  0.097112  0  1.051306  0
H  H11  1  0.50885193  0.09492250  0.79289004  1  0.107904  0  0.101265  0.097153  0  1.051263  0
H  H12  1  0.09492010  0.50885055  0.29289140  1  0.107844  0  0.101238  0.097111  0  1.051284  0
H  H13  1  0.49114112  0.90507739  0.20710694  1  0.107879  0  0.10127  0.097179  0  1.051285  0
H  H14  1  0.82175217  0.39663550  0.67125985  1  0.11011  0  0.10194  0.099521  0  1.035293  0
H  H15  1  0.60336399  0.17824204  0.82874140  1  0.110115  0  0.101927  0.099523  0  1.035367  0
H  H16  1  0.17824077  0.60335944  0.32874513  1  0.11022  0  0.101922  0.099467  0  1.035444  0
H  H17  1  0.39663046  0.82175536  0.17125886  1  0.110311  0  0.101924  0.099503  0  1.035377  0
H  H18  1  0.22116841  0.45441027  0.97166009  1  0.134011  0  0.106186  0.110535  0  1.045736  0
H  H19  1  0.54559557  0.77882800  0.52834239  1  0.134156  0  0.106206  0.110543  0  1.045823  0
H  H20  1  0.77882974  0.54559530  0.02833841  1  0.1341  0  0.106192  0.11054  0  1.045796  0
H  H21  1  0.45440613  0.22117105  0.47165758  1  0.134135  0  0.10619  0.110516  0  1.045861  0
H  H22  1  0.41356930  0.69965325  0.87409197  1  0.07751  0  0.105428  0.111524  0  1.031197  0
H  H23  1  0.30035073  0.58642901  0.62590459  1  0.077614  0  0.10542  0.111476  0  1.031257  0
H  H24  1  0.58642451  0.30035828  0.12591077  1  0.077511  0  0.10537  0.111419  0  1.031288  0
H  H25  1  0.69965021  0.41356741  0.37409817  1  0.077707  0  0.105428  0.111527  0  1.03123  0
H  H26  1  0.36680627  0.41905898  0.02575011  1  0.083169  0  0.099455  0.094739  0  1.075582  0
H  H27  1  0.58094438  0.63318925  0.47425025  1  0.083087  0  0.099448  0.094668  0  1.075606  0
H  H28  1  0.63319261  0.58094572  0.97424607  1  0.083026  0  0.099437  0.094659  0  1.075626  0
H  H29  1  0.41905370  0.36680862  0.52574997  1  0.082945  0  0.099456  0.094699  0  1.075596  0
H  H30  1  0.84838880  0.32610867  0.97258917  1  0.102865  0  0.103875  0.107829  0  1.022817  0
H  H31  1  0.67388868  0.15161423  0.52741132  1  0.102899  0  0.103836  0.107759  0  1.022842  0
H  H32  1  0.15161357  0.67388737  0.02741503  1  0.102939  0  0.103807  0.107677  0  1.022847  0
H  H33  1  0.32611521  0.84838567  0.47258775  1  0.10291  0  0.103815  0.107718  0  1.022857  0
H  H34  1  0.76161784  0.23338707  0.93806271  1  0.106053  0  0.10489  0.108194  0  1.009833  0
H  H35  1  0.76661081  0.23838138  0.56193758  1  0.106114  0  0.104868  0.108134  0  1.009847  0
H  H36  1  0.23838379  0.76660775  0.06194148  1  0.106135  0  0.104885  0.10818  0  1.009771  0
H  H37  1  0.23339659  0.76160918  0.43806617  1  0.105882  0  0.104862  0.10818  0  1.009867  0
H  H38  1  0.59147100  0.80885673  0.12774139  1  0.094504  0  0.109482  0.116451  0  1.014534  0
H  H39  1  0.19113776  0.40852034  0.37225747  1  0.094546  0  0.109503  0.116519  0  1.014482  0
H  H40  1  0.40852355  0.19114631  0.87225245  1  0.094454  0  0.109464  0.116467  0  1.014498  0
H  H41  1  0.80886254  0.59148327  0.62774216  1  0.094573  0  0.109515  0.116533  0  1.014514  0
H  H42  1  0.18026500  0.42700212  0.79920679  1  0.099982  0  0.128262  0.055224  0  0.992292  0
H  H43  1  0.57299861  0.81973833  0.70078867  1  0.099935  0  0.128285  0.055226  0  0.992289  0
H  H44  1  0.81973163  0.57299959  0.20079685  1  0.100055  0  0.128275  0.055231  0  0.992321  0
H  H45  1  0.42699812  0.18026416  0.29920409  1  0.099996  0  0.128286  0.055219  0  0.992352  0
H  H46  1  0.75009588  0.69089121  0.08253842  1  0.097059  0  0.104521  0.103325  0  1.028937  0
H  H47  1  0.30910357  0.24989903  0.41746179  1  0.097018  0  0.10453  0.103343  0  1.028891  0
H  H48  1  0.24989645  0.30910748  0.91745737  1  0.096914  0  0.104536  0.103367  0  1.028885  0
H  H49  1  0.69089742  0.75010160  0.58253852  1  0.09701  0  0.104564  0.103347  0  1.028825  0
H  H50  1  0.80739935  0.88637211  0.83073870  1  0.107584  0  0.104932  0.107649  0  1.006988  0
H  H51  1  0.11363401  0.19260597  0.66926880  1  0.107541  0  0.104896  0.107601  0  1.006979  0
H  H52  1  0.19260313  0.11363027  0.16925888  1  0.107642  0  0.104936  0.10767  0  1.006887  0
H  H53  1  0.88636988  0.80739739  0.33073396  1  0.107509  0  0.104872  0.10762  0  1.006976  0
H  H54  1  0.28250769  0.29131339  0.77440596  1  0.088799  0  0.107207  0.115075  0  1.020475  0
H  H55  1  0.70868898  0.71749691  0.72558816  1  0.088683  0  0.107213  0.115114  0  1.020515  0
H  H56  1  0.71748818  0.70868638  0.22560024  1  0.088944  0  0.107219  0.115071  0  1.020337  0
H  H57  1  0.29131213  0.28250869  0.27440297  1  0.08886  0  0.107235  0.115103  0  1.020412  0
H  H58  1  0.37401626  0.31468163  0.67599093  1  0.079058  0  0.108004  0.12889  0  0.980134  0
H  H59  1  0.68532400  0.62598276  0.82400275  1  0.079125  0  0.108004  0.128868  0  0.980063  0
H  H60  1  0.62598034  0.68531935  0.32401647  1  0.079015  0  0.107995  0.12889  0  0.980148  0
H  H61  1  0.31467925  0.37401810  0.17598798  1  0.079024  0  0.108006  0.128936  0  0.980159  0
H  H62  1  0.28594888  0.25682369  0.68248827  1  0.074408  0  0.107025  0.126243  0  1.002165  0
H  H63  1  0.74317858  0.71405494  0.81750732  1  0.074091  0  0.107032  0.126254  0  1.002178  0
H  H64  1  0.71405063  0.74317658  0.31751494  1  0.074252  0  0.107015  0.126256  0  1.002181  0
H  H65  1  0.25682035  0.28595119  0.18248548  1  0.074267  0  0.107012  0.126245  0  1.002189  0
H  H66  1  0.86310146  0.81277088  0.70514331  1  0.102574  0  0.125075  0.04218  0  1.011566  0
H  H67  1  0.18723578  0.13689252  0.79485568  1  0.102628  0  0.125102  0.042262  0  1.011518  0
H  H68  1  0.13690603  0.18722809  0.29485674  1  0.102579  0  0.125114  0.042258  0  1.011485  0
H  H69  1  0.81276586  0.86309884  0.20514542  1  0.102621  0  0.12508  0.04219  0  1.011557  0
H  H70  1  0.64830390  0.00278939  0.87313260  1  0.119678  0  0.104017  0.106927  0  1.058211  0
H  H71  1  0.99721573  0.35170422  0.62687298  1  0.119635  0  0.103991  0.106894  0  1.058195  0
H  H72  1  0.35170076  0.99721592  0.12686582  1  0.119796  0  0.104042  0.106974  0  1.058148  0
H  H73  1  0.00279036  0.64829931  0.37312672  1  0.119617  0  0.103983  0.106866  0  1.058194  0
H  H74  1  0.24550764  0.38400873  0.55717411  1  0.087951  0  0.099444  0.113203  0  1.036234  0
H  H75  1  0.61599140  0.75448549  0.94282402  1  0.087739  0  0.099353  0.113042  0  1.036421  0
H  H76  1  0.75449113  0.61599171  0.44283163  1  0.087803  0  0.099416  0.113193  0  1.036202  0
H  H77  1  0.38401034  0.24551083  0.05716849  1  0.087843  0  0.099434  0.113233  0  1.036208  0
H  H78  1  0.29525408  0.48031991  0.54799631  1  0.06899  0  0.100674  0.106978  0  1.045026  0
H  H79  1  0.51968187  0.70473757  0.95199762  1  0.068857  0  0.100677  0.106924  0  1.045094  0
H  H80  1  0.70474399  0.51968073  0.45200722  1  0.068968  0  0.100688  0.106985  0  1.045028  0
H  H81  1  0.48031845  0.29526051  0.04799480  1  0.068906  0  0.100669  0.106973  0  1.045031  0
H  H82  1  0.16683160  0.49644407  0.57735759  1  0.08287  0  0.111871  0.136081  0  0.985704  0
H  H83  1  0.50355539  0.83316163  0.92264120  1  0.082992  0  0.111897  0.136135  0  0.985732  0
H  H84  1  0.83316647  0.50355726  0.42264691  1  0.082884  0  0.111872  0.136064  0  0.985752  0
H  H85  1  0.49644492  0.16683784  0.07735317  1  0.082928  0  0.11188  0.136105  0  0.985753  0
H  H86  1  0.02843856  0.91492536  0.46998859  1  0.054922  0  0.102376  0.109315  0  0.99853  0
H  H87  1  0.08507125  0.97156501  0.03001567  1  0.054943  0  0.102388  0.109349  0  0.998489  0
H  H88  1  0.97157468  0.08507211  0.53001491  1  0.054796  0  0.102412  0.109311  0  0.99858  0
H  H89  1  0.91492679  0.02843005  0.96998657  1  0.054773  0  0.102417  0.109342  0  0.998544  0
H  H90  1  0.97675399  0.83876871  0.44745320  1  0.067791  0  0.105856  0.122416  0  1.001713  0
H  H91  1  0.16123105  0.02324975  0.05255061  1  0.067755  0  0.10585  0.12238  0  1.001716  0
H  H92  1  0.02325571  0.16123529  0.55254764  1  0.067834  0  0.10583  0.122378  0  1.001719  0
H  H93  1  0.83876554  0.97674707  0.94745331  1  0.067697  0  0.105824  0.122358  0  1.001705  0
H  H94  1  0.05863927  0.78660564  0.51571392  1  0.112592  0  0.116799  0.136862  0  1.000468  0
H  H95  1  0.21339160  0.94136226  0.98429110  1  0.112664  0  0.116857  0.136903  0  1.000479  0
H  H96  1  0.94136892  0.21339243  0.48428795  1  0.113268  0  0.116833  0.136913  0  1.000481  0
H  H97  1  0.78660574  0.05863718  0.01571123  1  0.112758  0  0.116836  0.136864  0  1.000506  0
H  H98  1  0.77916746  0.93267295  0.62462300  1  0.083464  0  0.111734  0.125092  0  0.991726  0
H  H99  1  0.06733305  0.22083234  0.87537140  1  0.08348  0  0.111723  0.125101  0  0.991671  0
H  H100  1  0.22084294  0.06733016  0.37537908  1  0.08341  0  0.111755  0.12514  0  0.991703  0
H  H101  1  0.93266646  0.77916239  0.12462697  1  0.083357  0  0.111735  0.125096  0  0.991726  0
H  H102  1  0.80393748  0.92717732  0.51576122  1  0.08254  0  0.110283  0.133739  0  0.990884  0
H  H103  1  0.07282393  0.19606712  0.98423377  1  0.082648  0  0.110293  0.133768  0  0.990972  0
H  H104  1  0.19607144  0.07282196  0.48424126  1  0.082854  0  0.110313  0.133801  0  0.991033  0
H  H105  1  0.92717704  0.80392793  0.01576466  1  0.082942  0  0.11031  0.133782  0  0.991029  0
H  H106  1  0.85109494  0.00640116  0.53867290  1  0.058204  0  0.103017  0.113094  0  0.999306  0
H  H107  1  0.99360024  0.14890682  0.96132222  1  0.05828  0  0.103013  0.113024  0  0.999399  0
H  H108  1  0.14891402  0.99359885  0.46132641  1  0.058393  0  0.102988  0.113061  0  0.999393  0
H  H109  1  0.00639781  0.85108826  0.03867824  1  0.058373  0  0.102992  0.112991  0  0.999417  0
C  C110  1  0.15481175  0.61442204  0.85399941  1  1.534644  0  0.214263  0.585951  0  4.1846  0
C  C111  1  0.38558264  0.84518572  0.64599827  1  1.534629  0  0.214318  0.586092  0  4.184735  0
C  C112  1  0.84518644  0.38558703  0.14599805  1  1.535178  0  0.214341  0.586121  0  4.184728  0
C  C113  1  0.61441617  0.15481338  0.35400137  1  1.535129  0  0.214302  0.586137  0  4.184584  0
C  C114  1  0.87678077  0.70773595  0.92510958  1  1.624648  0  0.219466  0.604925  0  4.228756  0
C  C115  1  0.29226368  0.12321851  0.57489116  1  1.624232  0  0.219544  0.605049  0  4.228499  0
C  C116  1  0.12321665  0.29226494  0.07488581  1  1.624543  0  0.219472  0.605029  0  4.228605  0
C  C117  1  0.70773659  0.87678161  0.42510833  1  1.623894  0  0.219565  0.605028  0  4.228586  0
C  C118  1  0.23809703  0.59550693  0.89034568  1  -0.034856  0  -0.008604  -0.021008  0  3.93737  0
C  C119  1  0.40449548  0.76190171  0.60965530  1  -0.034935  0  -0.008595  -0.020971  0  3.93727  0
C  C120  1  0.76190402  0.40449722  0.10965121  1  -0.035329  0  -0.00865  -0.021044  0  3.937375  0
C  C121  1  0.59550472  0.23809558  0.39034918  1  -0.035849  0  -0.00866  -0.021155  0  3.937392  0
C  C122  1  0.88069887  0.41445558  0.84192967  1  -0.021525  0  -0.014113  -0.026812  0  3.932118  0
C  C123  1  0.58554278  0.11929866  0.65807153  1  -0.021496  0  -0.014134  -0.026761  0  3.932184  0
C  C124  1  0.11929703  0.58554422  0.15807298  1  -0.021486  0  -0.014118  -0.026776  0  3.932349  0
C  C125  1  0.41445245  0.88070276  0.34192672  1  -0.02144  0  -0.014062  -0.026818  0  3.932173  0
C  C126  1  0.92796860  0.47439211  0.86192004  1  1.601639  0  0.219607  0.614319  0  4.209927  0
C  C127  1  0.52560722  0.07203060  0.63807919  1  1.601621  0  0.219516  0.614187  0  4.210194  0
C  C128  1  0.07202953  0.52561067  0.13807752  1  1.601759  0  0.219593  0.614284  0  4.210317  0
C  C129  1  0.47439094  0.92797290  0.36191639  1  1.601605  0  0.21955  0.6143  0  4.21001  0
C  C130  1  0.29170736  0.66507101  0.86347724  1  -0.016963  0  -0.077289  -0.084141  0  3.935305  0
C  C131  1  0.33493128  0.70829154  0.63652136  1  -0.016903  0  -0.077309  -0.084182  0  3.935045  0
C  C132  1  0.70829077  0.33493455  0.13652304  1  -0.016307  0  -0.077261  -0.08421  0  3.935197  0
C  C133  1  0.66507109  0.29170380  0.36348305  1  -0.016868  0  -0.077333  -0.084045  0  3.935197  0
C  C134  1  0.87330543  0.43440064  0.75692846  1  -0.04313  0  -0.088383  -0.097509  0  3.996638  0
C  C135  1  0.56559703  0.12669050  0.74307283  1  -0.043256  0  -0.088387  -0.097555  0  3.996711  0
C  C136  1  0.12669043  0.56559566  0.24307584  1  -0.043083  0  -0.088367  -0.0976  0  3.996951  0
C  C137  1  0.43439891  0.87331004  0.25692547  1  -0.043217  0  -0.088459  -0.097635  0  3.99687  0
C  C138  1  0.82811912  0.38195435  0.73685830  1  -0.064319  0  -0.090215  -0.15292  0  3.971608  0
C  C139  1  0.61804171  0.17187887  0.76314344  1  -0.064245  0  -0.090236  -0.15297  0  3.971716  0
C  C140  1  0.17188249  0.61803698  0.26314576  1  -0.064487  0  -0.090224  -0.152817  0  3.971847  0
C  C141  1  0.38195706  0.82811532  0.23685767  1  -0.064378  0  -0.090245  -0.152953  0  3.971791  0
C  C142  1  0.40063862  0.55606063  0.95193256  1  0.352196  0  0.085465  0.166036  0  4.04981  0
C  C143  1  0.44394274  0.59935977  0.54806658  1  0.351866  0  0.085447  0.166059  0  4.049673  0
C  C144  1  0.59935881  0.44394651  0.04806687  1  0.351708  0  0.08538  0.166062  0  4.049749  0
C  C145  1  0.55605964  0.40063766  0.45193839  1  0.351781  0  0.085434  0.166022  0  4.049869  0
C  C146  1  0.26488786  0.50686886  0.94979764  1  -0.076998  0  -0.080391  -0.081236  0  3.953938  0
C  C147  1  0.49313533  0.73510844  0.55020418  1  -0.077322  0  -0.080517  -0.081505  0  3.954157  0
C  C148  1  0.73510958  0.49313691  0.05019925  1  -0.077381  0  -0.080398  -0.081336  0  3.954093  0
C  C149  1  0.50686488  0.26488954  0.44980068  1  -0.077322  0  -0.080414  -0.081281  0  3.954237  0
C  C150  1  0.37193893  0.64567316  0.89461118  1  -0.052926  0  -0.080242  -0.138447  0  3.926404  0
C  C151  1  0.35433021  0.62805867  0.60538754  1  -0.052975  0  -0.080199  -0.138332  0  3.92628  0
C  C152  1  0.62805777  0.35433555  0.10539036  1  -0.053377  0  -0.08018  -0.138324  0  3.926496  0
C  C153  1  0.64566997  0.37193651  0.39461816  1  -0.052452  0  -0.080151  -0.138386  0  3.926457  0
C  C154  1  0.78837373  0.30861207  0.80266512  1  0.301779  0  0.082599  0.168187  0  4.054896  0
C  C155  1  0.69138199  0.21162607  0.69733670  1  0.301804  0  0.082578  0.168155  0  4.054832  0
C  C156  1  0.21162715  0.69137874  0.19733931  1  0.301735  0  0.08252  0.168023  0  4.054917  0
C  C157  1  0.30861748  0.78836862  0.30266641  1  0.301475  0  0.082561  0.168194  0  4.054899  0
C  C158  1  0.34528010  0.48726210  0.98014666  1  -0.050583  0  -0.089975  -0.152456  0  3.960147  0
C  C159  1  0.51274350  0.65471578  0.51985492  1  -0.050152  0  -0.08987  -0.152166  0  3.959964  0
C  C160  1  0.65471590  0.51274612  0.01985110  1  -0.049983  0  -0.089915  -0.152268  0  3.960113  0
C  C161  1  0.48725743  0.34528062  0.48014901  1  -0.050054  0  -0.089971  -0.152372  0  3.960204  0
C  C162  1  0.78624140  0.78130692  0.95385746  1  -0.067734  0  -0.014462  -0.038612  0  3.961521  0
C  C163  1  0.21869260  0.21375739  0.54614455  1  -0.067981  0  -0.0144  -0.038525  0  3.961485  0
C  C164  1  0.21375307  0.21869049  0.04614102  1  -0.067791  0  -0.014455  -0.038756  0  3.961805  0
C  C165  1  0.78131202  0.78624372  0.45385571  1  -0.067602  0  -0.014481  -0.038618  0  3.961599  0
C  C166  1  0.84237074  0.34051880  0.90699471  1  -0.038788  0  -0.084433  -0.087317  0  3.988147  0
C  C167  1  0.65947972  0.15762894  0.59300701  1  -0.038773  0  -0.084403  -0.087281  0  3.988207  0
C  C168  1  0.15763019  0.65947830  0.09301020  1  -0.038975  0  -0.084337  -0.087053  0  3.9881  0
C  C169  1  0.34052051  0.84236768  0.40699412  1  -0.039067  0  -0.084359  -0.087072  0  3.988168  0
C  C170  1  0.79503571  0.28891244  0.88786843  1  -0.071573  0  -0.084008  -0.14862  0  3.961225  0
C  C171  1  0.71108458  0.20496388  0.61213258  1  -0.071668  0  -0.083935  -0.148481  0  3.961149  0
C  C172  1  0.20496808  0.71107973  0.11213591  1  -0.071489  0  -0.083976  -0.148598  0  3.96115  0
C  C173  1  0.28892064  0.79502584  0.38787089  1  -0.071382  0  -0.083977  -0.148672  0  3.961318  0
C  C174  1  0.63957386  0.82488981  0.06296467  1  -0.067221  0  -0.078196  -0.140472  0  3.936069  0
C  C175  1  0.17510647  0.36042080  0.43703563  1  -0.066817  0  -0.078302  -0.140698  0  3.936263  0
C  C176  1  0.36042357  0.17511179  0.93703051  1  -0.066904  0  -0.078232  -0.140644  0  3.936012  0
C  C177  1  0.82489527  0.63958105  0.56296291  1  -0.066887  0  -0.078324  -0.140731  0  3.936497  0
C  C178  1  0.17974920  0.46114964  0.73040231  1  1.394793  0  0.185053  0.310621  0  4.090517  0
C  C179  1  0.53884934  0.82025183  0.76959257  1  1.395081  0  0.184965  0.310635  0  4.090714  0
C  C180  1  0.82024815  0.53885119  0.26960079  1  1.395173  0  0.18513  0.310698  0  4.090557  0
C  C181  1  0.46115099  0.17974765  0.23039943  1  1.395089  0  0.185015  0.310575  0  4.090833  0
C  C182  1  0.72686207  0.76008063  0.03823696  1  -0.029606  0  -0.085387  -0.097766  0  3.994967  0
C  C183  1  0.23991499  0.27313443  0.46176366  1  -0.029559  0  -0.085381  -0.097741  0  3.994952  0
C  C184  1  0.27313315  0.23991801  0.96175975  1  -0.029644  0  -0.085346  -0.097658  0  3.994896  0
C  C185  1  0.76008745  0.72686583  0.53823633  1  -0.029475  0  -0.085348  -0.097596  0  3.994984  0
C  C186  1  0.75866981  0.87019296  0.89521619  1  -0.074026  0  -0.084278  -0.093024  0  3.997112  0
C  C187  1  0.12980936  0.24133445  0.60478684  1  -0.073904  0  -0.084316  -0.093027  0  3.997107  0
C  C188  1  0.24133052  0.12980860  0.10477873  1  -0.074134  0  -0.084321  -0.093045  0  3.997088  0
C  C189  1  0.87019382  0.75866981  0.39521468  1  -0.073906  0  -0.084259  -0.093071  0  3.996894  0
C  C190  1  0.29749048  0.31225471  0.70345666  1  0.226655  0  -0.127324  -0.275946  0  3.901821  0
C  C191  1  0.68774637  0.70251367  0.79653622  1  0.227427  0  -0.127394  -0.276006  0  3.901946  0
C  C192  1  0.70250686  0.68774958  0.29655012  1  0.226862  0  -0.127342  -0.275898  0  3.901557  0
C  C193  1  0.31225186  0.29749267  0.20345378  1  0.22691  0  -0.127372  -0.27602  0  3.901843  0
C  C194  1  0.92797766  0.79872755  0.65164576  1  1.386209  0  0.190515  0.318845  0  4.096824  0
C  C195  1  0.20127648  0.07201651  0.84835635  1  1.38637  0  0.190574  0.318684  0  4.096879  0
C  C196  1  0.07202763  0.20126985  0.34835718  1  1.387029  0  0.190511  0.318822  0  4.096771  0
C  C197  1  0.79872660  0.92797587  0.15164637  1  1.38627  0  0.190472  0.318778  0  4.096786  0
C  C198  1  0.67118007  0.93472969  0.91863470  1  -0.016127  0  -0.081228  -0.141483  0  3.945056  0
C  C199  1  0.06527277  0.32882562  0.58136838  1  -0.016226  0  -0.081163  -0.141496  0  3.94515  0
C  C200  1  0.32882389  0.06527375  0.08135918  1  -0.015719  0  -0.081176  -0.141514  0  3.945076  0
C  C201  1  0.93473181  0.67117545  0.41863544  1  -0.016159  0  -0.081123  -0.141321  0  3.944891  0
C  C202  1  0.23566706  0.44409839  0.58372633  1  0.23815  0  -0.139505  -0.276656  0  3.87914  0
C  C203  1  0.55590221  0.76432854  0.91626971  1  0.237766  0  -0.139444  -0.276427  0  3.879472  0
C  C204  1  0.76433246  0.55590189  0.41627628  1  0.238111  0  -0.139502  -0.276671  0  3.879187  0
C  C205  1  0.44409811  0.23567024  0.08372309  1  0.238093  0  -0.139506  -0.276734  0  3.879199  0
C  C206  1  0.00094720  0.84911560  0.49707238  1  0.247681  0  -0.127973  -0.266023  0  3.893027  0
C  C207  1  0.15088271  0.99905409  0.00292971  1  0.247629  0  -0.128023  -0.266059  0  3.893031  0
C  C208  1  0.99906102  0.15088457  0.50292886  1  0.247139  0  -0.127996  -0.266024  0  3.892986  0
C  C209  1  0.84911605  0.00094218  0.99707373  1  0.247793  0  -0.127988  -0.265985  0  3.89309  0
C  C210  1  0.60995445  0.91095466  0.00231355  1  0.330834  0  0.091584  0.166964  0  4.049591  0
C  C211  1  0.08904456  0.39004365  0.49768774  1  0.330723  0  0.091617  0.167046  0  4.049639  0
C  C212  1  0.39004732  0.08904653  0.99768046  1  0.331067  0  0.091615  0.167108  0  4.049588  0
C  C213  1  0.91096077  0.60995725  0.50231415  1  0.330648  0  0.091582  0.166841  0  4.049879  0
C  C214  1  0.83421927  0.93512055  0.56253789  1  0.253024  0  -0.126233  -0.273955  0  3.911467  0
C  C215  1  0.06488393  0.16578430  0.93745764  1  0.25272  0  -0.126224  -0.273915  0  3.911542  0
C  C216  1  0.16579187  0.06488100  0.43746149  1  0.252457  0  -0.126254  -0.274061  0  3.911689  0
C  C217  1  0.93511413  0.83421078  0.06254283  1  0.252539  0  -0.126226  -0.273907  0  3.911856  0
N  N218  1  0.92079268  0.85829685  0.57365656  1  -1.226521  0  -0.2787  0.021702  0  3.722913  0
N  N219  1  0.14170626  0.07920741  0.92634286  1  -1.226476  0  -0.278741  0.021723  0  3.723011  0
N  N220  1  0.07921627  0.14170454  0.42634411  1  -1.226618  0  -0.278692  0.02178  0  3.722721  0
N  N221  1  0.85829324  0.92078730  0.07365729  1  -1.226614  0  -0.278686  0.021779  0  3.722998  0
N  N222  1  0.48498671  0.54218667  0.97735628  1  -0.470736  0  -0.145565  -0.13102  0  3.278401  0
N  N223  1  0.45781672  0.51501278  0.52264257  1  -0.502218  0  -0.145583  -0.13117  0  3.278363  0
N  N224  1  0.51500924  0.45781804  0.02264490  1  -0.502184  0  -0.145554  -0.131135  0  3.27828  0
N  N225  1  0.54218644  0.48498661  0.47735687  1  -0.470682  0  -0.145554  -0.131007  0  3.278464  0
N  N226  1  0.23390281  0.40607192  0.67557857  1  -1.228394  0  -0.280381  0.026111  0  3.720623  0
N  N227  1  0.59392744  0.76609786  0.82441636  1  -1.227927  0  -0.28028  0.026024  0  3.720948  0
N  N228  1  0.76609526  0.59392941  0.32442653  1  -1.228382  0  -0.280465  0.025941  0  3.720404  0
N  N229  1  0.40607003  0.23390517  0.17557426  1  -1.228345  0  -0.280429  0.026039  0  3.720503  0
N  N230  1  0.73847464  0.25326072  0.78952290  1  -0.463105  0  -0.15534  -0.140972  0  3.28724  0
N  N231  1  0.74673743  0.26152290  0.71047955  1  -0.510209  0  -0.155232  -0.140822  0  3.287193  0
N  N232  1  0.26152120  0.74673555  0.21048377  1  -0.510015  0  -0.155234  -0.140776  0  3.287091  0
N  N233  1  0.25326127  0.73846985  0.28952731  1  -0.462873  0  -0.155243  -0.140909  0  3.287064  0
N  N234  1  0.51676274  0.96801169  0.03037965  1  -0.516605  0  -0.140411  -0.119587  0  3.260411  0
N  N235  1  0.03198613  0.48323457  0.46961691  1  -0.478011  0  -0.140329  -0.11946  0  3.260193  0
N  N236  1  0.48323834  0.03199180  0.96961271  1  -0.478517  0  -0.140314  -0.119366  0  3.260368  0
N  N237  1  0.96801487  0.51676745  0.53038357  1  -0.51676  0  -0.140369  -0.119343  0  3.260297  0
O  O238  1  0.93645073  0.55487349  0.80676868  1  -1.246343  0  -0.366407  -0.659083  0  2.251687  0
O  O239  1  0.44512751  0.06354558  0.69322971  1  -1.246322  0  -0.366392  -0.65905  0  2.251806  0
O  O240  1  0.06354383  0.44513093  0.19322652  1  -1.246376  0  -0.366459  -0.659159  0  2.251868  0
O  O241  1  0.55487134  0.93645494  0.30676655  1  -1.246319  0  -0.366388  -0.65907  0  2.251785  0
O  O242  1  0.95563958  0.44057483  0.93131183  1  -1.224072  0  -0.348247  -0.641374  0  2.257567  0
O  O243  1  0.55942481  0.04436296  0.56868635  1  -1.224137  0  -0.348194  -0.641318  0  2.25767  0
O  O244  1  0.04436725  0.55942507  0.06868224  1  -1.224172  0  -0.348193  -0.641287  0  2.257755  0
O  O245  1  0.44057550  0.95563928  0.43131014  1  -1.224038  0  -0.348211  -0.641369  0  2.257633  0
O  O246  1  0.89596297  0.62866101  0.98098752  1  -1.231969  0  -0.338685  -0.633499  0  2.306861  0
O  O247  1  0.37134094  0.10403777  0.51901215  1  -1.231943  0  -0.338702  -0.633514  0  2.306687  0
O  O248  1  0.10403444  0.37134057  0.01900944  1  -1.231941  0  -0.338695  -0.633509  0  2.306751  0
O  O249  1  0.62866008  0.89596426  0.48098655  1  -1.231931  0  -0.338709  -0.633511  0  2.306822  0
O  O250  1  0.92477858  0.73078120  0.84654717  1  -1.240309  0  -0.359283  -0.655005  0  2.265099  0
O  O251  1  0.26921982  0.07521964  0.65345408  1  -1.239911  0  -0.359339  -0.655103  0  2.265045  0
O  O252  1  0.07521668  0.26922164  0.15344829  1  -1.240586  0  -0.359317  -0.655079  0  2.264943  0
O  O253  1  0.73077901  0.92478363  0.34654667  1  -1.239928  0  -0.359346  -0.65508  0  2.265044  0
O  O254  1  0.00104578  0.73252635  0.66465555  1  -1.201444  0  -0.319886  -0.496946  0  2.289279  0
O  O255  1  0.26747584  0.99894789  0.83534916  1  -1.201596  0  -0.319954  -0.496897  0  2.289173  0
O  O256  1  0.99895664  0.26747251  0.33534545  1  -1.202116  0  -0.319943  -0.497073  0  2.289262  0
O  O257  1  0.73252653  0.00104814  0.16465623  1  -1.201456  0  -0.319884  -0.496968  0  2.289208  0
O  O258  1  0.13130999  0.54549150  0.70641127  1  -1.207815  0  -0.322067  -0.512636  0  2.336674  0
O  O259  1  0.45450915  0.86868886  0.79358427  1  -1.208286  0  -0.322042  -0.512617  0  2.336868  0
O  O260  1  0.86868668  0.45451371  0.29359073  1  -1.208214  0  -0.322049  -0.512592  0  2.336818  0
O  O261  1  0.54548609  0.13131189  0.20641122  1  -1.208107  0  -0.321979  -0.512495  0  2.337058  0
O  O262  1  0.14178839  0.68522891  0.78899011  1  -1.193263  0  -0.330744  -0.582131  0  2.148104  0
O  O263  1  0.31477572  0.85821175  0.71100734  1  -1.193139  0  -0.330814  -0.582243  0  2.148193  0
O  O264  1  0.85820980  0.31478154  0.21100870  1  -1.193061  0  -0.330775  -0.582189  0  2.148279  0
O  O265  1  0.68522237  0.14178752  0.28899305  1  -1.193082  0  -0.33076  -0.582172  0  2.148181  0
O  O266  1  0.09859278  0.55565407  0.88593856  1  -1.278524  0  -0.367721  -0.716232  0  2.341193  0
O  O267  1  0.44434773  0.90140762  0.61405734  1  -1.278611  0  -0.367682  -0.716243  0  2.341306  0
O  O268  1  0.90140756  0.44435236  0.11405904  1  -1.278742  0  -0.367752  -0.716333  0  2.341225  0
O  O269  1  0.55565108  0.09859008  0.38594154  1  -1.278673  0  -0.367705  -0.716321  0  2.341236  0
