# generated using pymatgen
data_TmAg3H6C14N2O11
_symmetry_space_group_name_H-M   'P 1'
_cell_length_a   8.14487824
_cell_length_b   13.77087328
_cell_length_c   14.56635412
_cell_angle_alpha   89.99992649
_cell_angle_beta   90.00011970
_cell_angle_gamma   90.00003686
_symmetry_Int_Tables_number   1
_chemical_formula_structural   TmAg3H6C14N2O11
_chemical_formula_sum   'Tm4 Ag12 H24 C56 N8 O44'
_cell_volume   1633.79266568
_cell_formula_units_Z   4
loop_
 _symmetry_equiv_pos_site_id
 _symmetry_equiv_pos_as_xyz
  1  'x, y, z'
loop_
 _atom_site_type_symbol
 _atom_site_label
 _atom_site_symmetry_multiplicity
 _atom_site_fract_x
 _atom_site_fract_y
 _atom_site_fract_z
 _atom_site_occupancy
 _atom_site_hle17_bader_spin_density
 _atom_site_hle17_ddec_charge
 _atom_site_hle17_ddec_spin_density
 _atom_site_hle17_ddec_sum_bond_order
 _atom_site_hle17_magmom
 _atom_site_hse06_10hf_bader_spin_density
 _atom_site_hse06_10hf_ddec_charge
 _atom_site_hse06_10hf_ddec_spin_density
 _atom_site_hse06_10hf_ddec_sum_bond_order
 _atom_site_hse06_10hf_magmom
 _atom_site_hse06_bader_spin_density
 _atom_site_hse06_ddec_charge
 _atom_site_hse06_ddec_spin_density
 _atom_site_hse06_ddec_sum_bond_order
 _atom_site_hse06_magmom
 _atom_site_pbe_bader_spin_density
 _atom_site_pbe_cm5_charge
 _atom_site_pbe_ddec_charge
 _atom_site_pbe_ddec_spin_density
 _atom_site_pbe_ddec_sum_bond_order
 _atom_site_pbe_magmom
Tm  Tm0  1  0.97364529  0.25000125  0.75000141  1  0  2.165596  0  1.680351  0  0  1.988698  0  2.18788  0  0  2.041473  0  2.147467  0  0  1.510911  1.948225  0  2.220233  0
Tm  Tm1  1  0.52635469  0.25000005  0.25000095  1  0  2.165592  0  1.680377  0  0  1.988708  0  2.187892  0  0  2.04146  0  2.147515  0  0  1.510895  1.948235  0  2.220238  0
Tm  Tm2  1  0.02635486  0.75000020  0.24999829  1  0  2.16556  0  1.680427  0  0  1.988663  0  2.18796  0  0  2.041414  0  2.147588  0  0  1.51088  1.948184  0  2.220314  0
Tm  Tm3  1  0.47364792  0.74999922  0.75000081  1  0  2.165579  0  1.680433  0  0  1.988689  0  2.187945  0  0  2.041417  0  2.147607  0  0  1.510892  1.948229  0  2.22027  0
Ag  Ag4  1  0.25000101  0.05691041  0.50000237  1  0  0.643224  0  1.331114  0  0  0.532409  0  1.773097  0  0  0.568568  0  1.711811  0  0  0.43299  0.506369  0  1.816447  0
Ag  Ag5  1  0.25000337  0.44308311  0.99999822  1  0  0.643263  0  1.33113  0  0  0.532425  0  1.773166  0  0  0.568587  0  1.71186  0  0  0.432979  0.506385  0  1.816515  0
Ag  Ag6  1  0.74999914  0.94308596  0.49999801  1  0  0.643239  0  1.331131  0  0  0.532408  0  1.773136  0  0  0.568575  0  1.711837  0  0  0.432991  0.506369  0  1.816486  0
Ag  Ag7  1  0.74999678  0.55691471  0.00000217  1  0  0.643213  0  1.331167  0  0  0.532372  0  1.773207  0  0  0.568538  0  1.711904  0  0  0.432968  0.50633  0  1.816555  0
Ag  Ag8  1  0.55081959  0.17432784  0.51494033  1  0  0.676602  0  1.2753  0  0  0.563232  0  1.711721  0  0  0.602334  0  1.646743  0  0  0.446976  0.534871  0  1.75778  0
Ag  Ag9  1  0.94918277  0.17432431  0.48505594  1  0  0.676589  0  1.275293  0  0  0.563205  0  1.711729  0  0  0.602307  0  1.646758  0  0  0.446955  0.534843  0  1.757788  0
Ag  Ag10  1  0.94917953  0.32567450  0.01494027  1  0  0.676574  0  1.275332  0  0  0.563205  0  1.711745  0  0  0.602304  0  1.646769  0  0  0.446956  0.534846  0  1.757801  0
Ag  Ag11  1  0.55082300  0.32567304  0.98506131  1  0  0.676576  0  1.2753  0  0  0.563175  0  1.711743  0  0  0.602279  0  1.64677  0  0  0.446956  0.534811  0  1.757802  0
Ag  Ag12  1  0.44917810  0.82567288  0.48506074  1  0  0.676573  0  1.275363  0  0  0.56319  0  1.711782  0  0  0.602294  0  1.646813  0  0  0.446945  0.534826  0  1.75784  0
Ag  Ag13  1  0.05082229  0.82567424  0.51493895  1  0  0.676567  0  1.275328  0  0  0.563184  0  1.711747  0  0  0.602287  0  1.64677  0  0  0.446953  0.534821  0  1.757807  0
Ag  Ag14  1  0.05081080  0.67432622  0.98505600  1  0  0.676609  0  1.275328  0  0  0.563226  0  1.711779  0  0  0.602326  0  1.646802  0  0  0.446964  0.534864  0  1.757837  0
Ag  Ag15  1  0.44917715  0.67432550  0.01494045  1  0  0.676603  0  1.275333  0  0  0.563236  0  1.711759  0  0  0.602334  0  1.646784  0  0  0.446971  0.534874  0  1.757817  0
H  H16  1  0.27533890  0.22964486  0.05553142  1  0  0.440446  0  0.855394  0  0  0.410472  0  0.915764  0  0  0.421512  0  0.90005  0  0  0.295095  0.402613  0  0.926924  0
H  H17  1  0.22465961  0.22964424  0.94446900  1  0  0.440485  0  0.855327  0  0  0.410506  0  0.915715  0  0  0.421547  0  0.899999  0  0  0.295098  0.402651  0  0.92687  0
H  H18  1  0.22465769  0.27035289  0.55553020  1  0  0.440476  0  0.855344  0  0  0.410517  0  0.915706  0  0  0.421562  0  0.899982  0  0  0.295098  0.402657  0  0.926869  0
H  H19  1  0.27533596  0.27035370  0.44446949  1  0  0.440438  0  0.855398  0  0  0.410465  0  0.915767  0  0  0.421505  0  0.900054  0  0  0.295105  0.402608  0  0.926923  0
H  H20  1  0.72465756  0.77035514  0.94446965  1  0  0.440461  0  0.85536  0  0  0.410477  0  0.915756  0  0  0.421521  0  0.900034  0  0  0.295074  0.402619  0  0.926916  0
H  H21  1  0.77533808  0.77035503  0.05553070  1  0  0.440457  0  0.855379  0  0  0.410487  0  0.915741  0  0  0.421528  0  0.900026  0  0  0.295107  0.402629  0  0.9269  0
H  H22  1  0.77534123  0.72964638  0.44447019  1  0  0.440466  0  0.855361  0  0  0.410501  0  0.915722  0  0  0.421543  0  0.900004  0  0  0.295101  0.402642  0  0.926883  0
H  H23  1  0.72466419  0.72964630  0.55553090  1  0  0.440449  0  0.855389  0  0  0.410478  0  0.915753  0  0  0.421518  0  0.900041  0  0  0.295107  0.402624  0  0.926901  0
H  H24  1  0.89703057  0.64619177  0.79216473  1  0  0.138089  0  0.921345  0  0  0.145803  0  0.986242  0  0  0.150757  0  0.98205  0  0  0.116207  0.142171  0  0.989553  0
H  H25  1  0.60297353  0.64619283  0.20783646  1  0  0.137996  0  0.921443  0  0  0.145764  0  0.98629  0  0  0.150721  0  0.982092  0  0  0.11617  0.142129  0  0.989602  0
H  H26  1  0.60297380  0.85380924  0.29216217  1  0  0.138017  0  0.921465  0  0  0.145783  0  0.986307  0  0  0.150738  0  0.982109  0  0  0.116185  0.14215  0  0.989616  0
H  H27  1  0.89702562  0.85381047  0.70783671  1  0  0.138037  0  0.921421  0  0  0.145807  0  0.98627  0  0  0.150761  0  0.982076  0  0  0.116204  0.142177  0  0.989581  0
H  H28  1  0.10297326  0.35380823  0.20783634  1  0  0.137992  0  0.921443  0  0  0.145766  0  0.986285  0  0  0.150722  0  0.982088  0  0  0.116181  0.142133  0  0.989598  0
H  H29  1  0.39702416  0.35380789  0.79216324  1  0  0.138008  0  0.921459  0  0  0.145776  0  0.986301  0  0  0.150729  0  0.982107  0  0  0.116189  0.142145  0  0.989612  0
H  H30  1  0.39702389  0.14619076  0.70783822  1  0  0.138036  0  0.921453  0  0  0.145804  0  0.986294  0  0  0.150758  0  0.982098  0  0  0.116196  0.142173  0  0.989605  0
H  H31  1  0.10297331  0.14619099  0.29216299  1  0  0.138085  0  0.921378  0  0  0.145844  0  0.986225  0  0  0.150802  0  0.982032  0  0  0.116199  0.14221  0  0.98954  0
H  H32  1  0.61327017  0.52371670  0.56874497  1  0  0.143112  0  0.921314  0  0  0.151293  0  0.983233  0  0  0.155876  0  0.980792  0  0  0.116392  0.147958  0  0.985233  0
H  H33  1  0.88673011  0.52371539  0.43125843  1  0  0.143093  0  0.92134  0  0  0.151272  0  0.983256  0  0  0.155854  0  0.980819  0  0  0.116384  0.147938  0  0.985256  0
H  H34  1  0.88672969  0.97628461  0.06874054  1  0  0.143074  0  0.921335  0  0  0.151255  0  0.983245  0  0  0.155832  0  0.980823  0  0  0.116374  0.147923  0  0.985243  0
H  H35  1  0.61326986  0.97628543  0.93125682  1  0  0.143083  0  0.92132  0  0  0.151261  0  0.98324  0  0  0.155842  0  0.980806  0  0  0.116368  0.147935  0  0.985232  0
H  H36  1  0.38672998  0.47628475  0.43125542  1  0  0.143079  0  0.921353  0  0  0.151213  0  0.98332  0  0  0.155801  0  0.980868  0  0  0.116351  0.147896  0  0.985301  0
H  H37  1  0.11327126  0.47628461  0.56874196  1  0  0.143099  0  0.921339  0  0  0.151281  0  0.983243  0  0  0.15586  0  0.980814  0  0  0.116386  0.147947  0  0.985241  0
H  H38  1  0.11327169  0.02371321  0.93125916  1  0  0.143095  0  0.921378  0  0  0.151244  0  0.983341  0  0  0.155841  0  0.980862  0  0  0.116363  0.147937  0  0.985306  0
H  H39  1  0.38672784  0.02371748  0.06874219  1  0  0.143092  0  0.921345  0  0  0.151267  0  0.983255  0  0  0.155846  0  0.980827  0  0  0.116403  0.147932  0  0.985256  0
C  C40  1  0.02011139  0.46512825  0.84812273  1  0  0.629421  0  3.892289  0  0  0.575588  0  4.174761  0  0  0.611355  0  4.168381  0  0  0.209273  0.550998  0  4.178229  0
C  C41  1  0.47988616  0.46512880  0.15188084  1  0  0.629372  0  3.892477  0  0  0.575537  0  4.174958  0  0  0.611308  0  4.16856  0  0  0.209277  0.550947  0  4.178418  0
C  C42  1  0.47989120  0.03486983  0.34812100  1  0  0.62935  0  3.892501  0  0  0.575518  0  4.174969  0  0  0.611278  0  4.168588  0  0  0.209255  0.550928  0  4.17843  0
C  C43  1  0.02010588  0.03487462  0.65187897  1  0  0.629305  0  3.892347  0  0  0.575424  0  4.174885  0  0  0.611199  0  4.16848  0  0  0.209185  0.550836  0  4.178349  0
C  C44  1  0.97988999  0.53487175  0.15187628  1  0  0.629379  0  3.892406  0  0  0.575558  0  4.174854  0  0  0.611333  0  4.168451  0  0  0.209309  0.550966  0  4.178319  0
C  C45  1  0.52010908  0.53487047  0.84812161  1  0  0.629324  0  3.892542  0  0  0.575469  0  4.175014  0  0  0.611224  0  4.168642  0  0  0.209259  0.550877  0  4.178483  0
C  C46  1  0.52011018  0.96512799  0.65187870  1  0  0.629366  0  3.892358  0  0  0.575473  0  4.174916  0  0  0.611244  0  4.168513  0  0  0.209215  0.550885  0  4.178381  0
C  C47  1  0.97988936  0.96512683  0.34812005  1  0  0.629312  0  3.892405  0  0  0.57542  0  4.174952  0  0  0.611191  0  4.168553  0  0  0.209204  0.550831  0  4.178413  0
C  C48  1  0.91022770  0.49134031  0.77004468  1  0  0.118295  0  3.811706  0  0  0.12749  0  4.05245  0  0  0.128123  0  4.073431  0  0  0.101935  0.127139  0  4.038204  0
C  C49  1  0.58977133  0.49134062  0.22995739  1  0  0.118428  0  3.811635  0  0  0.127596  0  4.052433  0  0  0.12823  0  4.073408  0  0  0.101949  0.127245  0  4.038183  0
C  C50  1  0.58977236  0.00865806  0.27004390  1  0  0.118432  0  3.811619  0  0  0.127612  0  4.052398  0  0  0.128248  0  4.073375  0  0  0.10197  0.127259  0  4.038153  0
C  C51  1  0.91022736  0.00866144  0.72995601  1  0  0.118295  0  3.811826  0  0  0.127489  0  4.052644  0  0  0.12812  0  4.073622  0  0  0.101905  0.127133  0  4.038405  0
C  C52  1  0.08977368  0.50866041  0.22995640  1  0  0.118327  0  3.811655  0  0  0.127492  0  4.052452  0  0  0.128123  0  4.073429  0  0  0.101943  0.127141  0  4.038202  0
C  C53  1  0.41022882  0.50865720  0.77004369  1  0  0.118359  0  3.811643  0  0  0.127608  0  4.05233  0  0  0.128244  0  4.073311  0  0  0.101971  0.127257  0  4.038083  0
C  C54  1  0.41022533  0.99134049  0.72995649  1  0  0.118304  0  3.811775  0  0  0.127514  0  4.052545  0  0  0.128147  0  4.07352  0  0  0.101925  0.127156  0  4.038311  0
C  C55  1  0.08977279  0.99134074  0.27004300  1  0  0.118423  0  3.811761  0  0  0.127616  0  4.05255  0  0  0.128252  0  4.073524  0  0  0.101968  0.127263  0  4.038304  0
C  C56  1  0.85821465  0.58491681  0.75018238  1  0  -0.206712  0  3.594058  0  0  -0.238071  0  3.847748  0  0  -0.245378  0  3.864472  0  0  -0.084624  -0.233388  0  3.836777  0
C  C57  1  0.64178692  0.58491711  0.24982095  1  0  -0.206585  0  3.594063  0  0  -0.237991  0  3.847768  0  0  -0.245298  0  3.864493  0  0  -0.084564  -0.233306  0  3.836787  0
C  C58  1  0.64178833  0.91508280  0.25017842  1  0  -0.206634  0  3.594048  0  0  -0.238063  0  3.847788  0  0  -0.245364  0  3.864503  0  0  -0.084594  -0.233379  0  3.836816  0
C  C59  1  0.85820870  0.91508614  0.74982039  1  0  -0.206601  0  3.594137  0  0  -0.238046  0  3.847876  0  0  -0.245347  0  3.864598  0  0  -0.084594  -0.233364  0  3.836905  0
C  C60  1  0.14178672  0.41508464  0.24981869  1  0  -0.206578  0  3.594072  0  0  -0.237983  0  3.84778  0  0  -0.245288  0  3.864503  0  0  -0.084575  -0.233303  0  3.836804  0
C  C61  1  0.35821323  0.41508217  0.75017876  1  0  -0.206602  0  3.594107  0  0  -0.238032  0  3.847789  0  0  -0.245336  0  3.86451  0  0  -0.084598  -0.233353  0  3.836823  0
C  C62  1  0.35821059  0.08491574  0.74982128  1  0  -0.206658  0  3.594065  0  0  -0.238089  0  3.847785  0  0  -0.245391  0  3.864503  0  0  -0.084602  -0.233406  0  3.836815  0
C  C63  1  0.14178900  0.08491677  0.25018069  1  0  -0.206727  0  3.594153  0  0  -0.238124  0  3.847834  0  0  -0.245438  0  3.864564  0  0  -0.084617  -0.233442  0  3.836865  0
C  C64  1  0.74556337  0.60001464  0.67691964  1  0  0.422879  0  3.858959  0  0  0.409991  0  4.12045  0  0  0.42847  0  4.130731  0  0  0.101784  0.397505  0  4.113011  0
C  C65  1  0.75444069  0.60001343  0.32308093  1  0  0.42277  0  3.859057  0  0  0.409894  0  4.120539  0  0  0.428372  0  4.130822  0  0  0.101735  0.397413  0  4.11309  0
C  C66  1  0.75443935  0.89998652  0.17691720  1  0  0.42284  0  3.858943  0  0  0.40998  0  4.120404  0  0  0.428458  0  4.130679  0  0  0.101787  0.397492  0  4.112961  0
C  C67  1  0.74556012  0.89998681  0.82308232  1  0  0.422845  0  3.859033  0  0  0.410003  0  4.120459  0  0  0.428478  0  4.130739  0  0  0.101767  0.397519  0  4.113015  0
C  C68  1  0.25444047  0.39998681  0.32308007  1  0  0.422834  0  3.858953  0  0  0.409928  0  4.120471  0  0  0.428404  0  4.130753  0  0  0.101747  0.397443  0  4.113034  0
C  C69  1  0.24556069  0.39998729  0.67691809  1  0  0.422813  0  3.858965  0  0  0.409951  0  4.120425  0  0  0.428427  0  4.13071  0  0  0.101762  0.397465  0  4.112982  0
C  C70  1  0.24555957  0.10001348  0.82308319  1  0  0.422873  0  3.858885  0  0  0.410016  0  4.120332  0  0  0.428493  0  4.130616  0  0  0.101805  0.397531  0  4.112896  0
C  C71  1  0.25443881  0.10001319  0.17692013  1  0  0.422764  0  3.859037  0  0  0.409901  0  4.12049  0  0  0.428379  0  4.13077  0  0  0.101723  0.397417  0  4.113044  0
C  C72  1  0.70047845  0.51712958  0.62511809  1  0  -0.211422  0  3.594075  0  0  -0.243547  0  3.850394  0  0  -0.251509  0  3.866867  0  0  -0.082984  -0.238524  0  3.839739  0
C  C73  1  0.79952183  0.51712832  0.37488395  1  0  -0.211318  0  3.59406  0  0  -0.243424  0  3.850354  0  0  -0.251385  0  3.866828  0  0  -0.082911  -0.238404  0  3.839702  0
C  C74  1  0.79952408  0.98287092  0.12511561  1  0  -0.211277  0  3.594057  0  0  -0.243407  0  3.850355  0  0  -0.25137  0  3.866825  0  0  -0.082903  -0.238387  0  3.839701  0
C  C75  1  0.70047794  0.98287039  0.87488312  1  0  -0.211379  0  3.594112  0  0  -0.243512  0  3.850389  0  0  -0.251474  0  3.86686  0  0  -0.082969  -0.238497  0  3.839732  0
C  C76  1  0.29952416  0.48287187  0.37488093  1  0  -0.211344  0  3.594106  0  0  -0.243405  0  3.850381  0  0  -0.251363  0  3.866855  0  0  -0.082935  -0.238399  0  3.839721  0
C  C77  1  0.20047832  0.48287095  0.62511507  1  0  -0.211345  0  3.594084  0  0  -0.24348  0  3.850367  0  0  -0.251444  0  3.866841  0  0  -0.082941  -0.238457  0  3.839711  0
C  C78  1  0.20047730  0.01712762  0.87488410  1  0  -0.211375  0  3.594094  0  0  -0.243494  0  3.850392  0  0  -0.251452  0  3.866872  0  0  -0.082936  -0.238494  0  3.839722  0
C  C79  1  0.29952221  0.01712960  0.12511589  1  0  -0.211255  0  3.594046  0  0  -0.243357  0  3.850339  0  0  -0.251321  0  3.866812  0  0  -0.082889  -0.238334  0  3.839686  0
C  C80  1  0.75808029  0.42641856  0.65144460  1  0  0.142161  0  3.783248  0  0  0.144399  0  4.031849  0  0  0.147993  0  4.049053  0  0  0.113095  0.142015  0  4.020142  0
C  C81  1  0.74191989  0.42641731  0.34855892  1  0  0.142232  0  3.783188  0  0  0.144451  0  4.031802  0  0  0.148046  0  4.049005  0  0  0.113112  0.142064  0  4.020101  0
C  C82  1  0.74192056  0.07358215  0.15144117  1  0  0.142128  0  3.78324  0  0  0.144374  0  4.031823  0  0  0.14797  0  4.049023  0  0  0.11304  0.141991  0  4.020117  0
C  C83  1  0.75808046  0.07358386  0.84855934  1  0  0.142089  0  3.783127  0  0  0.144382  0  4.031688  0  0  0.147978  0  4.04889  0  0  0.113107  0.142  0  4.019986  0
C  C84  1  0.24192109  0.57358217  0.34855304  1  0  0.142026  0  3.783386  0  0  0.14428  0  4.031945  0  0  0.147873  0  4.04915  0  0  0.113049  0.141891  0  4.02024  0
C  C85  1  0.25808026  0.57358269  0.65144078  1  0  0.142125  0  3.78317  0  0  0.1444  0  4.031731  0  0  0.147995  0  4.048931  0  0  0.113098  0.142016  0  4.020021  0
C  C86  1  0.25808082  0.92641712  0.84855784  1  0  0.142053  0  3.78326  0  0  0.144322  0  4.031816  0  0  0.147914  0  4.049022  0  0  0.113042  0.141939  0  4.020117  0
C  C87  1  0.24191969  0.92641904  0.15144105  1  0  0.142132  0  3.78319  0  0  0.144343  0  4.031837  0  0  0.147941  0  4.049039  0  0  0.113046  0.141956  0  4.020126  0
C  C88  1  0.70138809  0.33357116  0.60848329  1  0  0.63567  0  3.908741  0  0  0.587941  0  4.191044  0  0  0.622185  0  4.184345  0  0  0.208386  0.564556  0  4.194557  0
C  C89  1  0.79861198  0.33356842  0.39151828  1  0  0.635756  0  3.908979  0  0  0.588027  0  4.19129  0  0  0.62227  0  4.184591  0  0  0.208478  0.564643  0  4.194801  0
C  C90  1  0.79861260  0.16642888  0.10848188  1  0  0.635702  0  3.909028  0  0  0.58798  0  4.191304  0  0  0.622224  0  4.184604  0  0  0.208451  0.564592  0  4.194821  0
C  C91  1  0.70138607  0.16643051  0.89151921  1  0  0.635654  0  3.909081  0  0  0.587832  0  4.191483  0  0  0.622073  0  4.184788  0  0  0.208381  0.564442  0  4.195003  0
C  C92  1  0.29861206  0.66643029  0.39151504  1  0  0.635902  0  3.908454  0  0  0.588166  0  4.190754  0  0  0.622409  0  4.184053  0  0  0.208511  0.564785  0  4.194262  0
C  C93  1  0.20138939  0.66642940  0.60848073  1  0  0.635827  0  3.908917  0  0  0.588071  0  4.191219  0  0  0.622314  0  4.184521  0  0  0.208493  0.564689  0  4.194724  0
C  C94  1  0.20138755  0.83357039  0.89151851  1  0  0.635824  0  3.908869  0  0  0.588071  0  4.191192  0  0  0.622315  0  4.184493  0  0  0.208478  0.564682  0  4.19471  0
C  C95  1  0.29861531  0.83357094  0.10848255  1  0  0.635699  0  3.908939  0  0  0.587963  0  4.19126  0  0  0.622203  0  4.184567  0  0  0.20842  0.564582  0  4.194765  0
N  N96  1  0.86139933  0.41267285  0.72209035  1  0  -0.47454  0  3.317096  0  0  -0.428756  0  3.570153  0  0  -0.444478  0  3.591591  0  0  -0.414064  -0.417744  0  3.555379  0
N  N97  1  0.63860083  0.41267311  0.27791181  1  0  -0.474708  0  3.316971  0  0  -0.428927  0  3.570071  0  0  -0.44464  0  3.591498  0  0  -0.414134  -0.417917  0  3.555299  0
N  N98  1  0.63860301  0.08732849  0.22208953  1  0  -0.474681  0  3.316871  0  0  -0.428898  0  3.569949  0  0  -0.444615  0  3.591384  0  0  -0.414088  -0.417886  0  3.555174  0
N  N99  1  0.86139803  0.08732961  0.77791234  1  0  -0.474533  0  3.316856  0  0  -0.428767  0  3.569933  0  0  -0.444482  0  3.591361  0  0  -0.41408  -0.417757  0  3.555164  0
N  N100  1  0.13860450  0.58732715  0.27790866  1  0  -0.474422  0  3.317083  0  0  -0.42864  0  3.570142  0  0  -0.444356  0  3.591583  0  0  -0.414029  -0.417629  0  3.555362  0
N  N101  1  0.36140055  0.58732762  0.72208926  1  0  -0.474621  0  3.316814  0  0  -0.42888  0  3.569873  0  0  -0.444592  0  3.591305  0  0  -0.414128  -0.41787  0  3.555098  0
N  N102  1  0.36139837  0.91267151  0.77791086  1  0  -0.474471  0  3.316948  0  0  -0.42869  0  3.569982  0  0  -0.444403  0  3.591419  0  0  -0.414028  -0.417679  0  3.555207  0
N  N103  1  0.13860212  0.91267257  0.22208873  1  0  -0.474615  0  3.316908  0  0  -0.428822  0  3.569988  0  0  -0.444536  0  3.591418  0  0  -0.41408  -0.417804  0  3.555209  0
O  O104  1  0.04952371  0.37447241  0.85898894  1  0  -0.703958  0  2.175632  0  0  -0.626643  0  2.440183  0  0  -0.65774  0  2.431805  0  0  -0.360119  -0.604389  0  2.445156  0
O  O105  1  0.45047620  0.37447297  0.14101748  1  0  -0.703978  0  2.175796  0  0  -0.626628  0  2.440272  0  0  -0.657762  0  2.431982  0  0  -0.36018  -0.604373  0  2.445239  0
O  O106  1  0.45048874  0.12552638  0.35898913  1  0  -0.703894  0  2.175625  0  0  -0.626632  0  2.440275  0  0  -0.657737  0  2.431935  0  0  -0.360153  -0.604377  0  2.445241  0
O  O107  1  0.04951703  0.12552974  0.64101416  1  0  -0.703878  0  2.175586  0  0  -0.626542  0  2.44016  0  0  -0.657681  0  2.431872  0  0  -0.360102  -0.604285  0  2.445128  0
O  O108  1  0.95048381  0.62552831  0.14100870  1  0  -0.703986  0  2.175704  0  0  -0.626645  0  2.440214  0  0  -0.657773  0  2.431909  0  0  -0.36018  -0.604387  0  2.44518  0
O  O109  1  0.54951290  0.62552703  0.85899046  1  0  -0.703939  0  2.175721  0  0  -0.626634  0  2.440304  0  0  -0.657754  0  2.432011  0  0  -0.360183  -0.60438  0  2.445273  0
O  O110  1  0.54951632  0.87447144  0.64101263  1  0  -0.703962  0  2.175622  0  0  -0.62662  0  2.440187  0  0  -0.657751  0  2.431897  0  0  -0.360142  -0.604367  0  2.445153  0
O  O111  1  0.95048312  0.87447098  0.35898554  1  0  -0.703908  0  2.175715  0  0  -0.62657  0  2.440282  0  0  -0.657704  0  2.431995  0  0  -0.360103  -0.604312  0  2.445246  0
O  O112  1  0.08074226  0.52978207  0.90073233  1  0  -0.652432  0  2.215547  0  0  -0.571272  0  2.516337  0  0  -0.606093  0  2.501152  0  0  -0.322735  -0.546635  0  2.525834  0
O  O113  1  0.41925781  0.52978123  0.09926979  1  0  -0.652459  0  2.215532  0  0  -0.5713  0  2.51633  0  0  -0.60612  0  2.501139  0  0  -0.322739  -0.54667  0  2.525837  0
O  O114  1  0.41925984  0.97021569  0.40072862  1  0  -0.652445  0  2.215579  0  0  -0.57125  0  2.516291  0  0  -0.606095  0  2.501175  0  0  -0.32274  -0.546619  0  2.52579  0
O  O115  1  0.08073335  0.97022275  0.59926747  1  0  -0.652367  0  2.215347  0  0  -0.571187  0  2.516157  0  0  -0.606006  0  2.500962  0  0  -0.322707  -0.546556  0  2.525665  0
O  O116  1  0.91925666  0.47021793  0.09926806  1  0  -0.652397  0  2.215574  0  0  -0.571237  0  2.516337  0  0  -0.606069  0  2.501174  0  0  -0.322725  -0.546605  0  2.525835  0
O  O117  1  0.58073988  0.47021732  0.90073060  1  0  -0.652387  0  2.215613  0  0  -0.571213  0  2.516385  0  0  -0.60604  0  2.501236  0  0  -0.322709  -0.546579  0  2.525884  0
O  O118  1  0.58074031  0.02977995  0.59926833  1  0  -0.652403  0  2.215542  0  0  -0.571215  0  2.516334  0  0  -0.606046  0  2.501172  0  0  -0.322701  -0.546581  0  2.525832  0
O  O119  1  0.91926066  0.02977942  0.40072949  1  0  -0.65238  0  2.215392  0  0  -0.571193  0  2.516209  0  0  -0.60601  0  2.501015  0  0  -0.322722  -0.54656  0  2.52571  0
O  O120  1  0.67918179  0.68549215  0.66133294  1  0  -0.736136  0  2.056118  0  0  -0.673158  0  2.307896  0  0  -0.697794  0  2.299096  0  0  -0.423017  -0.655019  0  2.313113  0
O  O121  1  0.82082235  0.68549095  0.33866615  1  0  -0.73617  0  2.056123  0  0  -0.673196  0  2.307887  0  0  -0.697846  0  2.299111  0  0  -0.423055  -0.655054  0  2.313097  0
O  O122  1  0.82081841  0.81450830  0.16133068  1  0  -0.736192  0  2.056143  0  0  -0.673209  0  2.307877  0  0  -0.697864  0  2.299116  0  0  -0.423047  -0.655082  0  2.313132  0
O  O123  1  0.67918096  0.81451000  0.83866756  1  0  -0.736191  0  2.056163  0  0  -0.673194  0  2.307879  0  0  -0.697847  0  2.299116  0  0  -0.423014  -0.655062  0  2.31311  0
O  O124  1  0.32081959  0.31450930  0.33866676  1  0  -0.736178  0  2.056144  0  0  -0.673189  0  2.307916  0  0  -0.697843  0  2.299144  0  0  -0.423026  -0.655041  0  2.313118  0
O  O125  1  0.17918025  0.31450978  0.66133081  1  0  -0.736161  0  2.056089  0  0  -0.67318  0  2.307829  0  0  -0.697839  0  2.299061  0  0  -0.423024  -0.655049  0  2.313073  0
O  O126  1  0.17917928  0.18549097  0.83866833  1  0  -0.736215  0  2.056158  0  0  -0.673228  0  2.307904  0  0  -0.69789  0  2.299133  0  0  -0.423065  -0.655084  0  2.313115  0
O  O127  1  0.32082042  0.18549000  0.16133146  1  0  -0.736147  0  2.056105  0  0  -0.673163  0  2.30784  0  0  -0.697816  0  2.299075  0  0  -0.423009  -0.655029  0  2.313071  0
O  O128  1  0.58505844  0.33552530  0.55179093  1  0  -0.567745  0  2.006565  0  0  -0.504138  0  2.250145  0  0  -0.534236  0  2.242231  0  0  -0.30414  -0.482915  0  2.25486  0
O  O129  1  0.91494409  0.33552471  0.44821064  1  0  -0.56784  0  2.006506  0  0  -0.504245  0  2.250094  0  0  -0.534353  0  2.242206  0  0  -0.304207  -0.483022  0  2.254808  0
O  O130  1  0.91494204  0.16447555  0.05179034  1  0  -0.567772  0  2.006642  0  0  -0.504157  0  2.250194  0  0  -0.534265  0  2.242305  0  0  -0.304168  -0.482934  0  2.254911  0
O  O131  1  0.58505908  0.16447342  0.94821007  1  0  -0.567764  0  2.006595  0  0  -0.504117  0  2.250194  0  0  -0.53422  0  2.242301  0  0  -0.304182  -0.482894  0  2.254911  0
O  O132  1  0.41494048  0.66447543  0.44820946  1  0  -0.567927  0  2.006353  0  0  -0.504316  0  2.249936  0  0  -0.534422  0  2.24204  0  0  -0.304262  -0.483097  0  2.254652  0
O  O133  1  0.08506220  0.66447529  0.55178769  1  0  -0.567829  0  2.00654  0  0  -0.504209  0  2.250126  0  0  -0.534305  0  2.242213  0  0  -0.304196  -0.482988  0  2.254838  0
O  O134  1  0.08505811  0.83552590  0.94820936  1  0  -0.567802  0  2.006586  0  0  -0.5042  0  2.250189  0  0  -0.534301  0  2.242284  0  0  -0.304173  -0.482977  0  2.254908  0
O  O135  1  0.41494353  0.83552440  0.05179170  1  0  -0.567759  0  2.006617  0  0  -0.504141  0  2.25019  0  0  -0.534237  0  2.242286  0  0  -0.304152  -0.482918  0  2.254901  0
O  O136  1  0.77505894  0.25547226  0.63534735  1  0  -0.764292  0  2.103819  0  0  -0.701067  0  2.37539  0  0  -0.730916  0  2.363736  0  0  -0.399773  -0.679365  0  2.382477  0
O  O137  1  0.72494105  0.25547171  0.36465432  1  0  -0.764272  0  2.1041  0  0  -0.701031  0  2.37566  0  0  -0.73088  0  2.364013  0  0  -0.399771  -0.67933  0  2.382745  0
O  O138  1  0.72494185  0.24452775  0.13534575  1  0  -0.764263  0  2.103884  0  0  -0.701055  0  2.375462  0  0  -0.7309  0  2.363812  0  0  -0.399785  -0.679351  0  2.382547  0
O  O139  1  0.77505322  0.24452944  0.86465731  1  0  -0.764164  0  2.103926  0  0  -0.700914  0  2.37554  0  0  -0.730772  0  2.363901  0  0  -0.399708  -0.67921  0  2.382626  0
O  O140  1  0.22494367  0.74452992  0.36465030  1  0  -0.764303  0  2.103857  0  0  -0.701086  0  2.375436  0  0  -0.730931  0  2.363787  0  0  -0.399756  -0.679385  0  2.382518  0
O  O141  1  0.27506032  0.74452757  0.63534538  1  0  -0.764285  0  2.103907  0  0  -0.701053  0  2.375472  0  0  -0.730898  0  2.363827  0  0  -0.399783  -0.679354  0  2.382553  0
O  O142  1  0.27506198  0.75547152  0.86465533  1  0  -0.764349  0  2.103917  0  0  -0.701111  0  2.375488  0  0  -0.730954  0  2.363839  0  0  -0.399805  -0.67941  0  2.382574  0
O  O143  1  0.22494816  0.75547128  0.13534720  1  0  -0.764273  0  2.103779  0  0  -0.701063  0  2.375389  0  0  -0.730914  0  2.363751  0  0  -0.399786  -0.67936  0  2.382469  0
O  O144  1  0.24999959  0.26987042  0.99999970  1  0  -0.867686  0  2.034664  0  0  -0.780212  0  2.266722  0  0  -0.810854  0  2.227753  0  0  -0.579164  -0.758268  0  2.293652  0
O  O145  1  0.24999619  0.23012673  0.49999952  1  0  -0.867686  0  2.034726  0  0  -0.780221  0  2.266731  0  0  -0.810864  0  2.227762  0  0  -0.579164  -0.758274  0  2.293667  0
O  O146  1  0.74999872  0.73012818  0.99999972  1  0  -0.867659  0  2.034708  0  0  -0.780179  0  2.266762  0  0  -0.810823  0  2.227796  0  0  -0.579146  -0.758233  0  2.293694  0
O  O147  1  0.75000273  0.76987109  0.50000018  1  0  -0.867678  0  2.034713  0  0  -0.78021  0  2.266759  0  0  -0.810852  0  2.22779  0  0  -0.579176  -0.758264  0  2.293696  0
