# generated using pymatgen
data_CdH28C32(NO)4
_symmetry_space_group_name_H-M   'P 1'
_cell_length_a   10.89382300
_cell_length_b   11.15538700
_cell_length_c   13.51100000
_cell_angle_alpha   84.18990760
_cell_angle_beta   78.03442743
_cell_angle_gamma   60.77273387
_symmetry_Int_Tables_number   1
_chemical_formula_structural   CdH28C32(NO)4
_chemical_formula_sum   'Cd2 H56 C64 N8 O8'
_cell_volume   1401.75507385
_cell_formula_units_Z   2
loop_
 _symmetry_equiv_pos_site_id
 _symmetry_equiv_pos_as_xyz
  1  'x, y, z'
loop_
 _atom_site_type_symbol
 _atom_site_label
 _atom_site_symmetry_multiplicity
 _atom_site_fract_x
 _atom_site_fract_y
 _atom_site_fract_z
 _atom_site_occupancy
 _atom_site_hle17_bader_spin_density
 _atom_site_hle17_ddec_charge
 _atom_site_hle17_ddec_spin_density
 _atom_site_hle17_ddec_sum_bond_order
 _atom_site_hle17_magmom
 _atom_site_hse06_10hf_bader_spin_density
 _atom_site_hse06_10hf_ddec_charge
 _atom_site_hse06_10hf_ddec_spin_density
 _atom_site_hse06_10hf_ddec_sum_bond_order
 _atom_site_hse06_10hf_magmom
 _atom_site_hse06_bader_spin_density
 _atom_site_hse06_ddec_charge
 _atom_site_hse06_ddec_spin_density
 _atom_site_hse06_ddec_sum_bond_order
 _atom_site_hse06_magmom
 _atom_site_pbe_bader_charge
 _atom_site_pbe_bader_spin_density
 _atom_site_pbe_cm5_charge
 _atom_site_pbe_ddec_charge
 _atom_site_pbe_ddec_spin_density
 _atom_site_pbe_ddec_sum_bond_order
 _atom_site_pbe_magmom
Cd  Cd0  1  0.77793648  0.44415351  0.24994887  1  0  1.034782  0  1.727465  0  0  0.823307  0  2.1696  0  0  0.886056  0  2.120349  0  1.257811  0  0.740513  0.778881  0  2.203091  0
Cd  Cd1  1  0.22206045  0.55584827  0.75005245  1  0  1.034759  0  1.727442  0  0  0.823288  0  2.169571  0  0  0.886032  0  2.120324  0  1.257793  0  0.740511  0.778847  0  2.203082  0
H  H2  1  0.70389247  0.39973734  0.50075712  1  0  0.087549  0  0.978953  0  0  0.094532  0  1.046538  0  0  0.097159  0  1.043856  0  0.139836  0  0.116653  0.092558  0  1.048571  0
H  H3  1  0.89625793  0.40002393  0.99903551  1  0  0.087108  0  0.979506  0  0  0.094218  0  1.04711  0  0  0.096868  0  1.04434  0  0.141807  0  0.116392  0.092253  0  1.049168  0
H  H4  1  0.29611102  0.60026445  0.49924311  1  0  0.087496  0  0.979005  0  0  0.094493  0  1.046592  0  0  0.097126  0  1.043892  0  0.139787  0  0.116623  0.092519  0  1.048624  0
H  H5  1  0.10374130  0.59997888  0.00096756  1  0  0.087207  0  0.979374  0  0  0.094249  0  1.047062  0  0  0.096899  0  1.044293  0  0.141818  0  0.116404  0.092279  0  1.049121  0
H  H6  1  0.73641915  0.45332026  0.66725530  1  0  0.095182  0  0.956792  0  0  0.106537  0  1.015856  0  0  0.10891  0  1.016816  0  0.075474  0  0.102685  0.104776  0  1.015507  0
H  H7  1  0.80991188  0.45364280  0.83263009  1  0  0.095304  0  0.957171  0  0  0.106744  0  1.016174  0  0  0.109081  0  1.017204  0  0.075925  0  0.102735  0.105054  0  1.01571  0
H  H8  1  0.26358622  0.54668153  0.33274387  1  0  0.095286  0  0.956596  0  0  0.106588  0  1.015733  0  0  0.108969  0  1.016685  0  0.075487  0  0.102681  0.104825  0  1.015389  0
H  H9  1  0.19008862  0.54636310  0.16737326  1  0  0.095277  0  0.957156  0  0  0.106721  0  1.016153  0  0  0.109061  0  1.017175  0  0.075908  0  0.102741  0.10503  0  1.015691  0
H  H10  1  0.82971120  0.62133131  0.66805496  1  0  0.102662  0  0.948606  0  0  0.113602  0  1.010589  0  0  0.116251  0  1.009036  0  0.119278  0  0.10966  0.111705  0  1.011589  0
H  H11  1  0.54851464  0.62161790  0.83201121  1  0  0.10328  0  0.948916  0  0  0.113877  0  1.011255  0  0  0.116559  0  1.009644  0  0.117781  0  0.109848  0.111965  0  1.012283  0
H  H12  1  0.17029614  0.37866842  0.33194183  1  0  0.102651  0  0.948615  0  0  0.113582  0  1.010614  0  0  0.116232  0  1.00906  0  0.119288  0  0.109633  0.111686  0  1.011614  0
H  H13  1  0.45148322  0.37838389  0.16799070  1  0  0.103281  0  0.948932  0  0  0.113882  0  1.011254  0  0  0.116562  0  1.009648  0  0.117764  0  0.10984  0.111972  0  1.012282  0
H  H14  1  0.90794718  0.78026191  0.57295937  1  0  0.122471  0  0.962047  0  0  0.130059  0  1.0239  0  0  0.134697  0  1.02036  0  0.168843  0  0.106409  0.126676  0  1.026509  0
H  H15  1  0.31148919  0.78034409  0.92723273  1  0  0.122545  0  0.962149  0  0  0.130153  0  1.024038  0  0  0.134743  0  1.020573  0  0.144885  0  0.10647  0.126774  0  1.026632  0
H  H16  1  0.09205486  0.21974090  0.42703731  1  0  0.122494  0  0.96194  0  0  0.130082  0  1.023807  0  0  0.134719  0  1.020271  0  0.168821  0  0.106433  0.126701  0  1.026414  0
H  H17  1  0.68851175  0.21965154  0.07276992  1  0  0.122537  0  0.962136  0  0  0.130089  0  1.024089  0  0  0.134713  0  1.020584  0  0.170683  0  0.106449  0.126711  0  1.026681  0
H  H18  1  0.94644208  0.89469930  0.40975057  1  0  0.093422  0  0.941207  0  0  0.108647  0  0.993468  0  0  0.111112  0  0.993133  0  0.049253  0  0.10546  0.106947  0  0.993664  0
H  H19  1  0.15866352  0.89459144  0.09053208  1  0  0.093249  0  0.94125  0  0  0.108772  0  0.993222  0  0  0.111242  0  0.99289  0  0.055366  0  0.105221  0.107059  0  0.993443  0
H  H20  1  0.05355714  0.10530351  0.59024511  1  0  0.093347  0  0.941195  0  0  0.108588  0  0.993453  0  0  0.111052  0  0.993119  0  0.049305  0  0.105449  0.106886  0  0.993649  0
H  H21  1  0.84133658  0.10540213  0.90947014  1  0  0.09326  0  0.941246  0  0  0.108779  0  0.993232  0  0  0.111249  0  0.9929  0  0.055367  0  0.105234  0.107066  0  0.993453  0
H  H22  1  0.94421051  0.92266793  0.22278038  1  0  0.097141  0  0.939281  0  0  0.110003  0  0.996863  0  0  0.112819  0  0.994612  0  0.092342  0  0.110413  0.107885  0  0.998636  0
H  H23  1  0.13314607  0.92253953  0.27748799  1  0  0.097042  0  0.939438  0  0  0.109815  0  0.997155  0  0  0.112627  0  0.994913  0  0.092559  0  0.110343  0.107703  0  0.998913  0
H  H24  1  0.05578590  0.07733488  0.77721725  1  0  0.097139  0  0.939352  0  0  0.10999  0  0.996943  0  0  0.112805  0  0.994694  0  0.092337  0  0.110422  0.107872  0  0.998717  0
H  H25  1  0.86685104  0.07745815  0.72251365  1  0  0.097101  0  0.939399  0  0  0.109849  0  0.99714  0  0  0.112661  0  0.9949  0  0.092466  0  0.110368  0.107737  0  0.998899  0
H  H26  1  0.92117825  0.83745852  0.06535343  1  0  0.110509  0  0.939987  0  0  0.122691  0  0.993887  0  0  0.126235  0  0.99245  0  0.116885  0  0.113101  0.1202  0  0.99488  0
H  H27  1  0.24172708  0.83747290  0.43479523  1  0  0.110665  0  0.94039  0  0  0.122891  0  0.994199  0  0  0.126392  0  0.992816  0  0.082992  0  0.113194  0.120467  0  0.995114  0
H  H28  1  0.07882200  0.16254224  0.93464372  1  0  0.110522  0  0.939944  0  0  0.122662  0  0.993905  0  0  0.126214  0  0.992456  0  0.116943  0  0.113076  0.120168  0  0.994899  0
H  H29  1  0.75827308  0.16252991  0.56520621  1  0  0.110672  0  0.940339  0  0  0.122888  0  0.994169  0  0  0.12639  0  0.992785  0  0.083056  0  0.113206  0.120457  0  0.995092  0
H  H30  1  0.85984569  0.64801081  0.08043608  1  0  0.087489  0  0.948008  0  0  0.09183  0  1.019279  0  0  0.094939  0  1.016067  0  0.132717  0  0.118724  0.089461  0  1.021805  0
H  H31  1  0.49261150  0.64820803  0.41953637  1  0  0.087875  0  0.946688  0  0  0.091898  0  1.018492  0  0  0.094982  0  1.015287  0  0.134808  0  0.118931  0.08954  0  1.02102  0
H  H32  1  0.14015517  0.35198687  0.91956050  1  0  0.087459  0  0.948119  0  0  0.091823  0  1.019363  0  0  0.094927  0  1.01615  0  0.132676  0  0.118735  0.089451  0  1.021893  0
H  H33  1  0.50738857  0.35179684  0.58046565  1  0  0.087957  0  0.946688  0  0  0.091993  0  1.018482  0  0  0.095076  0  1.015279  0  0.134539  0  0.118965  0.089632  0  1.021009  0
H  H34  1  0.28889163  0.21512158  0.20954718  1  0  0.079796  0  0.945103  0  0  0.095621  0  1.010842  0  0  0.097476  0  1.010163  0  0.011375  0  0.0892  0.094303  0  1.011454  0
H  H35  1  0.49558013  0.21532702  0.29049542  1  0  0.07936  0  0.945109  0  0  0.095245  0  1.010751  0  0  0.097102  0  1.010097  0  0.01859  0  0.088981  0.093916  0  1.011337  0
H  H36  1  0.71110393  0.78487918  0.79045150  1  0  0.079848  0  0.945144  0  0  0.095635  0  1.010899  0  0  0.097478  0  1.010217  0  0.011316  0  0.089192  0.094316  0  1.01151  0
H  H37  1  0.50442560  0.78466655  0.70950438  1  0  0.079341  0  0.945062  0  0  0.095264  0  1.010696  0  0  0.09712  0  1.010042  0  0.018521  0  0.088981  0.093937  0  1.011286  0
H  H38  1  0.25617955  0.07480694  0.22683798  1  0  0.083517  0  0.952985  0  0  0.099255  0  1.015665  0  0  0.10098  0  1.015522  0  0.020296  0  0.08732  0.09802  0  1.015911  0
H  H39  1  0.66864915  0.07507710  0.27299901  1  0  0.083549  0  0.95246  0  0  0.099217  0  1.015184  0  0  0.100973  0  1.015007  0  0.026395  0  0.087242  0.097931  0  1.015456  0
H  H40  1  0.74381456  0.92519484  0.77316456  1  0  0.083566  0  0.95298  0  0  0.09932  0  1.01561  0  0  0.101036  0  1.015459  0  0.020379  0  0.087342  0.098083  0  1.015858  0
H  H41  1  0.33135597  0.92491955  0.72700138  1  0  0.083527  0  0.9525  0  0  0.099234  0  1.015202  0  0  0.100987  0  1.015027  0  0.026608  0  0.087248  0.097949  0  1.015479  0
H  H42  1  0.29431710  0.21724788  0.02462935  1  0  0.056957  0  0.955618  0  0  0.073241  0  1.023118  0  0  0.073448  0  1.02466  0  0.011528  0  0.082384  0.072969  0  1.022275  0
H  H43  1  0.48851232  0.21718728  0.47539826  1  0  0.056832  0  0.955641  0  0  0.073159  0  1.023144  0  0  0.073365  0  1.024678  0  0.011457  0  0.082385  0.072888  0  1.022309  0
H  H44  1  0.70567770  0.78274877  0.97537129  1  0  0.057123  0  0.955621  0  0  0.073353  0  1.023105  0  0  0.073558  0  1.024649  0  0.011437  0  0.082452  0.07308  0  1.022263  0
H  H45  1  0.51149323  0.78281040  0.52460271  1  0  0.056849  0  0.955707  0  0  0.073181  0  1.023216  0  0  0.073389  0  1.024754  0  0.011443  0  0.082382  0.072909  0  1.022381  0
H  H46  1  0.25219055  0.08256539  0.03756390  1  0  0.047188  0  0.955371  0  0  0.065815  0  1.020776  0  0  0.065726  0  1.022107  0  -0.001839  0  0.080234  0.065818  0  1.019937  0
H  H47  1  0.66532926  0.08249760  0.46217659  1  0  0.047347  0  0.955581  0  0  0.06587  0  1.021216  0  0  0.065767  0  1.022561  0  0.000949  0  0.08026  0.065858  0  1.020404  0
H  H48  1  0.74780519  0.91743126  0.96243732  1  0  0.047252  0  0.955457  0  0  0.065895  0  1.0208  0  0  0.065805  0  1.022134  0  -0.001683  0  0.080264  0.065898  0  1.019962  0
H  H49  1  0.33467765  0.91750111  0.53782258  1  0  0.047361  0  0.955647  0  0  0.065881  0  1.021293  0  0  0.065801  0  1.02262  0  0.001004  0  0.080239  0.065868  0  1.020481  0
H  H50  1  0.48160605  0.92687432  0.10005631  1  0  0.052731  0  0.948734  0  0  0.071108  0  1.010785  0  0  0.071156  0  1.012697  0  -0.004714  0  0.079113  0.071049  0  1.009464  0
H  H51  1  0.59134294  0.92692876  0.39987588  1  0  0.052457  0  0.9489  0  0  0.070922  0  1.010864  0  0  0.070967  0  1.012769  0  -0.003118  0  0.079105  0.070871  0  1.00954  0
H  H52  1  0.51839251  0.07312233  0.89994221  1  0  0.052667  0  0.948719  0  0  0.071064  0  1.010759  0  0  0.071114  0  1.012666  0  -0.004639  0  0.07912  0.07101  0  1.00943  0
H  H53  1  0.40866354  0.07306892  0.60012271  1  0  0.052465  0  0.948936  0  0  0.07092  0  1.010885  0  0  0.070967  0  1.012792  0  -0.003048  0  0.079103  0.070863  0  1.009566  0
H  H54  1  0.52535398  0.06098595  0.08584352  1  0  0.053162  0  0.939701  0  0  0.073681  0  0.999494  0  0  0.073938  0  1.000613  0  -0.011828  0  0.080482  0.073398  0  0.998834  0
H  H55  1  0.41347652  0.06105580  0.41426347  1  0  0.053343  0  0.939312  0  0  0.073657  0  0.999398  0  0  0.073906  0  1.000514  0  -0.029757  0  0.080367  0.073388  0  0.99872  0
H  H56  1  0.47464073  0.93901275  0.91415474  1  0  0.053109  0  0.939718  0  0  0.073616  0  0.999533  0  0  0.073873  0  1.000653  0  -0.011949  0  0.080469  0.073322  0  0.998887  0
H  H57  1  0.58652852  0.93894290  0.58573602  1  0  0.053308  0  0.939357  0  0  0.073602  0  0.99944  0  0  0.073853  0  1.000559  0  -0.029792  0  0.080348  0.073334  0  0.99876  0
C  C58  1  0.74327206  0.47142981  0.50564044  1  0  0.145473  0  3.680607  0  0  0.112738  0  3.936231  0  0  0.121297  0  3.951687  0  0.527116  0  0.059393  0.107042  0  3.926062  0
C  C59  1  0.78517128  0.47168969  0.99423382  1  0  0.14629  0  3.681182  0  0  0.113343  0  3.936732  0  0  0.121924  0  3.95216  0  0.529346  0  0.06004  0.107618  0  3.926595  0
C  C60  1  0.25672862  0.52857198  0.49436026  1  0  0.145504  0  3.680574  0  0  0.112739  0  3.936208  0  0  0.121299  0  3.951673  0  0.527099  0  0.059426  0.107044  0  3.926036  0
C  C61  1  0.21482795  0.52831312  0.00576926  1  0  0.146262  0  3.681152  0  0  0.113376  0  3.936675  0  0  0.121955  0  3.952105  0  0.529261  0  0.060055  0.107659  0  3.926532  0
C  C62  1  0.76149923  0.50282313  0.59817625  1  0  -0.113908  0  3.742726  0  0  -0.127879  0  4.000823  0  0  -0.134555  0  4.02274  0  -0.058228  0  -0.083044  -0.123666  0  3.98645  0
C  C63  1  0.73542908  0.50307890  0.90175274  1  0  -0.114635  0  3.743729  0  0  -0.12865  0  4.001928  0  0  -0.135323  0  4.023849  0  -0.049681  0  -0.083106  -0.124459  0  3.987544  0
C  C64  1  0.23850375  0.49717969  0.40182324  1  0  -0.11389  0  3.742633  0  0  -0.12781  0  4.000707  0  0  -0.134494  0  4.022625  0  -0.058023  0  -0.082963  -0.123597  0  3.986333  0
C  C65  1  0.26457305  0.49692186  0.09824781  1  0  -0.114565  0  3.743803  0  0  -0.128576  0  4.001949  0  0  -0.135248  0  4.023875  0  -0.049601  0  -0.083092  -0.124385  0  3.987564  0
C  C66  1  0.81145077  0.59505654  0.59879981  1  0  -0.04978  0  3.680884  0  0  -0.076501  0  3.933125  0  0  -0.074399  0  3.951302  0  -0.062162  0  -0.063091  -0.077424  0  3.92054  0
C  C67  1  0.59321516  0.59529382  0.90121177  1  0  -0.050354  0  3.681594  0  0  -0.077017  0  3.933914  0  0  -0.074916  0  3.952102  0  -0.090294  0  -0.06355  -0.077946  0  3.921332  0
C  C68  1  0.18855323  0.40494422  0.40119894  1  0  -0.049877  0  3.681063  0  0  -0.076565  0  3.93327  0  0  -0.074463  0  3.951452  0  -0.061764  0  -0.063135  -0.077488  0  3.920684  0
C  C69  1  0.40679081  0.40470488  0.09878830  1  0  -0.050384  0  3.68165  0  0  -0.077043  0  3.934003  0  0  -0.074942  0  3.95219  0  -0.090413  0  -0.06352  -0.077971  0  3.921418  0
C  C70  1  0.84125219  0.65701011  0.50696643  1  0  0.030351  0  3.774615  0  0  0.047412  0  4.005409  0  0  0.044796  0  4.029974  0  -0.014291  0  0.001522  0.049076  0  3.988664  0
C  C71  1  0.50154880  0.65715495  0.99310317  1  0  0.030705  0  3.774796  0  0  0.048297  0  4.00515  0  0  0.045693  0  4.029706  0  -0.027395  0  0.001862  0.049955  0  3.988408  0
C  C72  1  0.15874661  0.34299167  0.49303162  1  0  0.030354  0  3.774741  0  0  0.047384  0  4.005595  0  0  0.044765  0  4.030161  0  -0.014771  0  0.00153  0.049046  0  3.98885  0
C  C73  1  0.49845196  0.34284478  0.00690064  1  0  0.030653  0  3.774822  0  0  0.048179  0  4.005247  0  0  0.045576  0  4.029807  0  -0.027533  0  0.001777  0.049837  0  3.988507  0
C  C74  1  0.88917856  0.75652741  0.50270940  1  0  -0.08869  0  3.711601  0  0  -0.109928  0  3.962881  0  0  -0.112064  0  3.983938  0  -0.044161  0  -0.078683  -0.10829  0  3.94865  0
C  C75  1  0.35406137  0.75659520  0.99746866  1  0  -0.089151  0  3.712914  0  0  -0.110725  0  3.96439  0  0  -0.112837  0  3.985467  0  0.00756  0  -0.079199  -0.109079  0  3.950144  0
C  C76  1  0.11082535  0.24347541  0.49728697  1  0  -0.088708  0  3.711587  0  0  -0.109961  0  3.96292  0  0  -0.112094  0  3.983972  0  -0.044385  0  -0.078715  -0.108323  0  3.948688  0
C  C77  1  0.64593718  0.24340145  0.00253504  1  0  -0.089111  0  3.712753  0  0  -0.110622  0  3.964244  0  0  -0.11276  0  3.985304  0  -0.018323  0  -0.079168  -0.108977  0  3.949999  0
C  C78  1  0.91237018  0.81703057  0.41284823  1  0  -0.106817  0  3.761498  0  0  -0.128668  0  4.016378  0  0  -0.133275  0  4.041038  0  -0.045254  0  -0.085719  -0.125616  0  3.999859  0
C  C79  1  0.27043280  0.81699257  0.08737792  1  0  -0.10691  0  3.762351  0  0  -0.128827  0  4.017506  0  0  -0.133455  0  4.042156  0  -0.041929  0  -0.085403  -0.125762  0  4.000986  0
C  C80  1  0.08762665  0.18297327  0.58714776  1  0  -0.106718  0  3.761524  0  0  -0.128581  0  4.016381  0  0  -0.133186  0  4.041041  0  -0.045266  0  -0.085741  -0.125527  0  3.999858  0
C  C81  1  0.72956584  0.18300203  0.91262446  1  0  -0.106843  0  3.762271  0  0  -0.128794  0  4.017392  0  0  -0.133423  0  4.042049  0  -0.041852  0  -0.08541  -0.125728  0  4.000872  0
C  C82  1  0.89479434  0.77950589  0.32054875  1  0  0.019982  0  3.80604  0  0  0.037311  0  4.038315  0  0  0.035275  0  4.063114  0  -0.020351  0  -0.004257  0.038479  0  4.021992  0
C  C83  1  0.32569059  0.77947405  0.17960768  1  0  0.020771  0  3.806114  0  0  0.037787  0  4.038852  0  0  0.035798  0  4.063583  0  -0.017116  0  -0.003734  0.038919  0  4.022569  0
C  C84  1  0.10520104  0.22049898  0.67944740  1  0  0.019981  0  3.805948  0  0  0.037389  0  4.038154  0  0  0.035347  0  4.062961  0  -0.020585  0  -0.004181  0.038557  0  4.021829  0
C  C85  1  0.67430839  0.22052363  0.82039512  1  0  0.020577  0  3.806081  0  0  0.037678  0  4.038702  0  0  0.035691  0  4.06343  0  -0.017207  0  -0.003733  0.038811  0  4.02242  0
C  C86  1  0.91728473  0.83992894  0.22613087  1  0  -0.063661  0  3.723152  0  0  -0.089656  0  3.97583  0  0  -0.087843  0  3.994278  0  -0.066984  0  -0.067078  -0.090642  0  3.963564  0
C  C87  1  0.24286277  0.83986320  0.27405478  1  0  -0.063818  0  3.722693  0  0  -0.089763  0  3.975568  0  0  -0.087948  0  3.993958  0  -0.02932  0  -0.067315  -0.090743  0  3.963338  0
C  C88  1  0.08271219  0.16007285  0.77386602  1  0  -0.063751  0  3.723135  0  0  -0.089743  0  3.975778  0  0  -0.087933  0  3.994237  0  -0.066922  0  -0.067104  -0.090727  0  3.963512  0
C  C89  1  0.75713757  0.16013551  0.72594846  1  0  -0.063899  0  3.722614  0  0  -0.089855  0  3.975474  0  0  -0.088038  0  3.993856  0  -0.029142  0  -0.067354  -0.090833  0  3.96324  0
C  C90  1  0.90345829  0.79468587  0.13969831  1  0  -0.118823  0  3.741672  0  0  -0.132598  0  3.997668  0  0  -0.138577  0  4.01742  0  -0.069803  0  -0.081151  -0.128656  0  3.984113  0
C  C91  1  0.30210164  0.79472593  0.36042577  1  0  -0.119022  0  3.741727  0  0  -0.132713  0  3.997336  0  0  -0.138668  0  4.017104  0  -0.063207  0  -0.081236  -0.128825  0  3.983764  0
C  C92  1  0.09653991  0.20531900  0.86029885  1  0  -0.118784  0  3.741821  0  0  -0.132539  0  3.997815  0  0  -0.138526  0  4.017571  0  -0.069719  0  -0.081166  -0.128595  0  3.984263  0
C  C93  1  0.69789750  0.20527894  0.63957715  1  0  -0.118956  0  3.74162  0  0  -0.132645  0  3.997248  0  0  -0.1386  0  4.017018  0  -0.063169  0  -0.081257  -0.128751  0  3.983679  0
C  C94  1  0.86700566  0.68866640  0.14786021  1  0  0.148106  0  3.683838  0  0  0.115658  0  3.943711  0  0  0.123952  0  3.959194  0  0.523533  0  0.059957  0.110294  0  3.933168  0
C  C95  1  0.44464439  0.68881226  0.35215740  1  0  0.147726  0  3.683633  0  0  0.11549  0  3.943388  0  0  0.123814  0  3.95884  0  0.522667  0  0.059703  0.110101  0  3.932884  0
C  C96  1  0.13299356  0.31133642  0.85213769  1  0  0.148121  0  3.684133  0  0  0.11566  0  3.943987  0  0  0.12396  0  3.959466  0  0.52358  0  0.060007  0.110295  0  3.933442  0
C  C97  1  0.55535568  0.31119261  0.64784537  1  0  0.147659  0  3.683613  0  0  0.115402  0  3.943356  0  0  0.123726  0  3.958811  0  0.520458  0  0.059714  0.110018  0  3.932847  0
C  C98  1  0.85281051  0.67671183  0.32155575  1  0  0.130271  0  3.742907  0  0  0.123557  0  3.981704  0  0  0.128001  0  4.002818  0  0.49474  0  0.118108  0.12047  0  3.967551  0
C  C99  1  0.47052462  0.67679606  0.17849207  1  0  0.130128  0  3.743268  0  0  0.123606  0  3.982096  0  0  0.128037  0  4.003203  0  0.489236  0  0.118615  0.120535  0  3.967938  0
C  C100  1  0.14718521  0.32329612  0.67844156  1  0  0.130316  0  3.742851  0  0  0.123507  0  3.981748  0  0  0.127952  0  4.002863  0  0.495077  0  0.118097  0.120419  0  3.967592  0
C  C101  1  0.52947478  0.32320265  0.82151058  1  0  0.130331  0  3.74326  0  0  0.123797  0  3.982031  0  0  0.128229  0  4.003137  0  0.489141  0  0.118637  0.120723  0  3.967876  0
C  C102  1  0.82108837  0.61753375  0.41727290  1  0  0.127275  0  3.751026  0  0  0.12052  0  3.990707  0  0  0.124936  0  4.012244  0  0.507769  0  0.118842  0.117476  0  3.976068  0
C  C103  1  0.56131682  0.61768167  0.08274696  1  0  0.127473  0  3.750564  0  0  0.120249  0  3.990512  0  0  0.124651  0  4.012059  0  0.501687  0  0.118597  0.117212  0  3.975864  0
C  C104  1  0.17890795  0.38247112  0.58272531  1  0  0.12717  0  3.751155  0  0  0.120437  0  3.99088  0  0  0.124853  0  4.01242  0  0.50768  0  0.118803  0.117394  0  3.976239  0
C  C105  1  0.43868165  0.38231704  0.91725733  1  0  0.12748  0  3.750566  0  0  0.120291  0  3.990479  0  0  0.124693  0  4.012026  0  0.501797  0  0.118645  0.117256  0  3.975831  0
C  C106  1  0.07794210  0.26447756  0.19380101  1  0  0.666355  0  3.900486  0  0  0.626483  0  4.192851  0  0  0.659679  0  4.187216  0  1.548741  0  0.180422  0.604065  0  4.195552  0
C  C107  1  0.65720689  0.26469944  0.30618210  1  0  0.665951  0  3.90105  0  0  0.62618  0  4.193162  0  0  0.659383  0  4.187553  0  1.565818  0  0.180547  0.603739  0  4.195847  0
C  C108  1  0.92205491  0.73552217  0.80619529  1  0  0.666262  0  3.900695  0  0  0.626367  0  4.193039  0  0  0.65955  0  4.187411  0  1.548309  0  0.180393  0.603948  0  4.195737  0
C  C109  1  0.34279533  0.73529927  0.69381860  1  0  0.665976  0  3.901203  0  0  0.626247  0  4.193268  0  0  0.65945  0  4.187658  0  1.565784  0  0.180583  0.603814  0  4.19595  0
C  C110  1  0.23840800  0.16550777  0.17873729  1  0  -0.253974  0  3.703621  0  0  -0.291264  0  3.954509  0  0  -0.296835  0  3.963168  0  -0.005282  0  -0.172079  -0.287569  0  3.948747  0
C  C111  1  0.59576181  0.16570396  0.32119802  1  0  -0.253516  0  3.702978  0  0  -0.290603  0  3.953369  0  0  -0.296235  0  3.962115  0  -0.043863  0  -0.171632  -0.286787  0  3.947472  0
C  C112  1  0.76158774  0.83448888  0.82126393  1  0  -0.254116  0  3.703879  0  0  -0.291344  0  3.95461  0  0  -0.296866  0  3.963217  0  -0.005334  0  -0.172131  -0.287647  0  3.948847  0
C  C113  1  0.40424289  0.83429166  0.67880104  1  0  -0.253484  0  3.70292  0  0  -0.290647  0  3.953348  0  0  -0.296276  0  3.962101  0  -0.04404  0  -0.17165  -0.286852  0  3.947479  0
C  C114  1  0.30871629  0.12460462  0.06915814  1  0  -0.084798  0  3.736317  0  0  -0.125691  0  3.996117  0  0  -0.125924  0  4.011334  0  0.017559  0  -0.174135  -0.125274  0  3.985712  0
C  C115  1  0.56663813  0.12460360  0.43076438  1  0  -0.085264  0  3.736463  0  0  -0.126198  0  3.996068  0  0  -0.126431  0  4.011339  0  0.012312  0  -0.174393  -0.125807  0  3.985642  0
C  C116  1  0.69127757  0.87539203  0.93084338  1  0  -0.085189  0  3.736686  0  0  -0.126024  0  3.996355  0  0  -0.126273  0  4.011565  0  0.017506  0  -0.174216  -0.125606  0  3.985952  0
C  C117  1  0.43336614  0.87539100  0.56923410  1  0  -0.085274  0  3.736572  0  0  -0.126266  0  3.99625  0  0  -0.126521  0  4.011534  0  0.012485  0  -0.174365  -0.125862  0  3.985822  0
C  C118  1  0.46689518  0.01982703  0.05531890  1  0  -0.10803  0  3.712576  0  0  -0.14461  0  3.97083  0  0  -0.145701  0  3.985854  0  0.03141  0  -0.171951  -0.143715  0  3.96033  0
C  C119  1  0.51317435  0.01986401  0.44467235  1  0  -0.107756  0  3.712045  0  0  -0.144309  0  3.970208  0  0  -0.145367  0  3.985185  0  0.027464  0  -0.171819  -0.143429  0  3.959724  0
C  C120  1  0.53310201  0.98016859  0.94468068  1  0  -0.107771  0  3.712569  0  0  -0.144369  0  3.970786  0  0  -0.145459  0  3.985814  0  0.0086  0  -0.171983  -0.143473  0  3.960291  0
C  C121  1  0.48682992  0.98013058  0.55532983  1  0  -0.107755  0  3.712177  0  0  -0.144222  0  3.970292  0  0  -0.145294  0  3.98529  0  0.050519  0  -0.171832  -0.143343  0  3.959815  0
N  N122  1  0.77277619  0.52618784  0.41809744  1  0  -0.327333  0  3.204489  0  0  -0.264351  0  3.464301  0  0  -0.282148  0  3.482284  0  -1.222344  0  -0.307728  -0.252101  0  3.451964  0
N  N123  1  0.70100211  0.52638404  0.08180507  1  0  -0.327375  0  3.203924  0  0  -0.264082  0  3.46375  0  0  -0.281887  0  3.481767  0  -1.231214  0  -0.307951  -0.251835  0  3.451418  0
N  N124  1  0.22722064  0.47381600  0.58190225  1  0  -0.32733  0  3.204582  0  0  -0.264343  0  3.464422  0  0  -0.282136  0  3.482392  0  -1.222359  0  -0.307743  -0.252089  0  3.452077  0
N  N125  1  0.29899917  0.47361467  0.91819727  1  0  -0.327455  0  3.203948  0  0  -0.264176  0  3.463738  0  0  -0.28198  0  3.481758  0  -1.231074  0  -0.307992  -0.251923  0  3.451391  0
N  N126  1  0.84098196  0.63270140  0.23578603  1  0  -0.331403  0  3.208053  0  0  -0.269487  0  3.469075  0  0  -0.287358  0  3.487847  0  -1.199427  0  -0.309508  -0.25738  0  3.45638  0
N  N127  1  0.52652652  0.63286678  0.26419522  1  0  -0.331592  0  3.209745  0  0  -0.269617  0  3.470553  0  0  -0.287495  0  3.489325  0  -1.201646  0  -0.3099  -0.257503  0  3.45785  0
N  N128  1  0.15901309  0.36730039  0.76421413  1  0  -0.331302  0  3.208032  0  0  -0.269351  0  3.469065  0  0  -0.287221  0  3.487835  0  -1.199541  0  -0.309498  -0.257243  0  3.456367  0
N  N129  1  0.47347425  0.36713295  0.73580860  1  0  -0.331708  0  3.209853  0  0  -0.269743  0  3.470676  0  0  -0.287621  0  3.489448  0  -1.199133  0  -0.309957  -0.25763  0  3.457975  0
O  O130  1  0.02254285  0.33109360  0.11895414  1  0  -0.64448  0  1.918739  0  0  -0.588556  0  2.148929  0  0  -0.615335  0  2.141529  0  -1.192542  0  -0.339343  -0.569584  0  2.15316  0
O  O131  1  0.64618581  0.33111209  0.38107466  1  0  -0.644176  0  1.918813  0  0  -0.588289  0  2.148927  0  0  -0.614973  0  2.141386  0  -1.188422  0  -0.339237  -0.569327  0  2.153168  0
O  O132  1  0.97746097  0.66891127  0.88104133  1  0  -0.64447  0  1.918956  0  0  -0.588553  0  2.149177  0  0  -0.615321  0  2.141757  0  -1.192428  0  -0.339345  -0.569578  0  2.153405  0
O  O133  1  0.35381598  0.66888559  0.61892693  1  0  -0.6442  0  1.91891  0  0  -0.588319  0  2.148995  0  0  -0.615006  0  2.141457  0  -1.188374  0  -0.339259  -0.569355  0  2.153229  0
O  O134  1  0.00638739  0.27637152  0.28397038  1  0  -0.663146  0  1.948929  0  0  -0.60254  0  2.185162  0  0  -0.631614  0  2.175479  0  -1.186707  0  -0.35253  -0.581973  0  2.19079  0
O  O135  1  0.71667118  0.27680808  0.21600098  1  0  -0.662972  0  1.949371  0  0  -0.602469  0  2.185725  0  0  -0.63155  0  2.17604  0  -1.183416  0  -0.352615  -0.581895  0  2.191356  0
O  O136  1  0.99360374  0.72362307  0.71602438  1  0  -0.662983  0  1.948807  0  0  -0.602395  0  2.185051  0  0  -0.63147  0  2.175381  0  -1.186306  0  -0.352488  -0.581825  0  2.190676  0
O  O137  1  0.28332864  0.72319165  0.78399929  1  0  -0.662963  0  1.949396  0  0  -0.602486  0  2.185746  0  0  -0.631561  0  2.176051  0  -1.183483  0  -0.352618  -0.58191  0  2.191373  0
