# generated using pymatgen
data_ZnH11C18N3O4
_symmetry_space_group_name_H-M   'P 1'
_cell_length_a   10.15110737
_cell_length_b   11.41880359
_cell_length_c   13.99042233
_cell_angle_alpha   90.00000704
_cell_angle_beta   101.83771947
_cell_angle_gamma   90.00003329
_symmetry_Int_Tables_number   1
_chemical_formula_structural   ZnH11C18N3O4
_chemical_formula_sum   'Zn2 H22 C36 N6 O8'
_cell_volume   1587.18986395
_cell_formula_units_Z   2
loop_
 _symmetry_equiv_pos_site_id
 _symmetry_equiv_pos_as_xyz
  1  'x, y, z'
loop_
 _atom_site_type_symbol
 _atom_site_label
 _atom_site_symmetry_multiplicity
 _atom_site_fract_x
 _atom_site_fract_y
 _atom_site_fract_z
 _atom_site_occupancy
 _atom_site_hle17_bader_spin_density
 _atom_site_hle17_ddec_charge
 _atom_site_hle17_ddec_spin_density
 _atom_site_hle17_ddec_sum_bond_order
 _atom_site_hle17_magmom
 _atom_site_hse06_10hf_bader_spin_density
 _atom_site_hse06_10hf_ddec_charge
 _atom_site_hse06_10hf_ddec_spin_density
 _atom_site_hse06_10hf_ddec_sum_bond_order
 _atom_site_hse06_10hf_magmom
 _atom_site_hse06_bader_spin_density
 _atom_site_hse06_ddec_charge
 _atom_site_hse06_ddec_spin_density
 _atom_site_hse06_ddec_sum_bond_order
 _atom_site_hse06_magmom
 _atom_site_pbe_bader_spin_density
 _atom_site_pbe_cm5_charge
 _atom_site_pbe_ddec_charge
 _atom_site_pbe_ddec_spin_density
 _atom_site_pbe_ddec_sum_bond_order
 _atom_site_pbe_magmom
Zn  Zn0  1  0.62659414  0.00000019  0.39691241  1  0  1.036787  0  1.848923  0  0  0.855254  0  2.312107  0  0  0.906138  0  2.254507  0  0  0.684996  0.820556  0  2.351448  0
Zn  Zn1  1  0.37340623  0.99999983  0.60308825  1  0  1.03679  0  1.848929  0  0  0.855237  0  2.312124  0  0  0.906122  0  2.254523  0  0  0.684999  0.82054  0  2.351463  0
H  H2  1  0.08442350  0.00000005  0.41046770  1  0  0.127577  0  0.951024  0  0  0.132033  0  1.02222  0  0  0.137291  0  1.016619  0  0  0.108155  0.128089  0  1.026496  0
H  H3  1  0.91557651  0.00000028  0.58953214  1  0  0.127556  0  0.951043  0  0  0.132015  0  1.022232  0  0  0.137272  0  1.01663  0  0  0.10815  0.12807  0  1.026507  0
H  H4  1  0.83974056  0.99999991  0.11992207  1  0  0.121789  0  0.942295  0  0  0.12258  0  1.014867  0  0  0.128285  0  1.00849  0  0  0.109097  0.1184  0  1.019603  0
H  H5  1  0.16025881  0.00000186  0.88007701  1  0  0.121811  0  0.942252  0  0  0.122603  0  1.014827  0  0  0.128306  0  1.00845  0  0  0.109098  0.118422  0  1.019561  0
H  H6  1  0.27281025  0.00000008  0.16017031  1  0  0.119091  0  0.929604  0  0  0.125024  0  0.994409  0  0  0.130146  0  0.989373  0  0  0.110162  0.121228  0  0.998159  0
H  H7  1  0.72718912  0.99999994  0.83982948  1  0  0.119114  0  0.929678  0  0  0.125045  0  0.994477  0  0  0.130167  0  0.989441  0  0  0.110169  0.121251  0  0.998227  0
H  H8  1  0.46568250  0.19713200  0.28310238  1  0  0.096969  0  0.928264  0  0  0.107385  0  0.982595  0  0  0.109767  0  0.980913  0  0  0.126578  0.105726  0  0.983766  0
H  H9  1  0.53431766  0.19713205  0.71689750  1  0  0.096927  0  0.928302  0  0  0.107368  0  0.982609  0  0  0.109737  0  0.980942  0  0  0.126557  0.10571  0  0.983781  0
H  H10  1  0.53431787  0.80286889  0.71689685  1  0  0.096941  0  0.928309  0  0  0.107382  0  0.982616  0  0  0.109755  0  0.980944  0  0  0.126571  0.105724  0  0.983787  0
H  H11  1  0.46568271  0.80286884  0.28310316  1  0  0.096907  0  0.92824  0  0  0.107351  0  0.982555  0  0  0.10972  0  0.980888  0  0  0.126553  0.105691  0  0.983727  0
H  H12  1  0.45797154  0.41386924  0.27839902  1  0  0.103765  0  0.951851  0  0  0.117087  0  1.004773  0  0  0.120129  0  1.004043  0  0  0.111047  0.115111  0  1.005165  0
H  H13  1  0.54202877  0.41386930  0.72160020  1  0  0.103734  0  0.95192  0  0  0.117071  0  1.004827  0  0  0.120112  0  1.004097  0  0  0.111035  0.115097  0  1.005219  0
H  H14  1  0.54202883  0.58613078  0.72160093  1  0  0.10376  0  0.951856  0  0  0.117079  0  1.00478  0  0  0.120122  0  1.004049  0  0  0.111041  0.115104  0  1.005173  0
H  H15  1  0.45797261  0.58613072  0.27839918  1  0  0.103772  0  0.951855  0  0  0.117102  0  1.00477  0  0  0.120144  0  1.004039  0  0  0.111053  0.115126  0  1.005163  0
H  H16  1  0.79200882  0.41171325  0.52766715  1  0  0.101602  0  0.952231  0  0  0.114634  0  1.006185  0  0  0.118002  0  1.005  0  0  0.108885  0.11247  0  1.006833  0
H  H17  1  0.20799149  0.41171310  0.47233278  1  0  0.101609  0  0.952227  0  0  0.114646  0  1.006178  0  0  0.118013  0  1.004994  0  0  0.108887  0.112481  0  1.006825  0
H  H18  1  0.20799155  0.58828589  0.47233351  1  0  0.10159  0  0.952281  0  0  0.114628  0  1.006232  0  0  0.117995  0  1.005049  0  0  0.108884  0.112462  0  1.00688  0
H  H19  1  0.79200788  0.58828604  0.52766773  1  0  0.101592  0  0.952254  0  0  0.114636  0  1.006197  0  0  0.118003  0  1.005013  0  0  0.108887  0.112471  0  1.006845  0
H  H20  1  0.78338797  0.19468263  0.52019472  1  0  0.094473  0  0.925518  0  0  0.104386  0  0.983452  0  0  0.106552  0  0.981921  0  0  0.125914  0.102798  0  0.984678  0
H  H21  1  0.21661118  0.19468248  0.47980501  1  0  0.094457  0  0.925531  0  0  0.104376  0  0.983463  0  0  0.106542  0  0.981932  0  0  0.125913  0.102786  0  0.984687  0
H  H22  1  0.21661140  0.80531739  0.47980507  1  0  0.094456  0  0.92552  0  0  0.104367  0  0.983459  0  0  0.106533  0  0.981928  0  0  0.125902  0.102777  0  0.984683  0
H  H23  1  0.78338819  0.80531753  0.52019550  1  0  0.094487  0  0.925487  0  0  0.104387  0  0.98344  0  0  0.106553  0  0.981909  0  0  0.125902  0.102798  0  0.984663  0
C  C24  1  0.33047039  0.00000011  0.35940790  1  0  0.656559  0  3.916768  0  0  0.602282  0  4.21659  0  0  0.637852  0  4.207545  0  0  0.210403  0.578354  0  4.222278  0
C  C25  1  0.66952697  0.99999903  0.64059517  1  0  0.656673  0  3.916745  0  0  0.602413  0  4.216511  0  0  0.637998  0  4.207467  0  0  0.210479  0.578487  0  4.2222  0
C  C26  1  0.19399127  0.00000007  0.29273874  1  0  -0.087534  0  3.803647  0  0  -0.061383  0  4.042702  0  0  -0.072466  0  4.068821  0  0  -0.031385  -0.054636  0  4.025248  0
C  C27  1  0.80600976  0.00000026  0.70726125  1  0  -0.087717  0  3.803748  0  0  -0.061514  0  4.042736  0  0  -0.072652  0  4.068924  0  0  -0.031428  -0.054769  0  4.025288  0
C  C28  1  0.07733445  0.00000005  0.33154773  1  0  -0.070091  0  3.668518  0  0  -0.108862  0  3.916039  0  0  -0.105484  0  3.933852  0  0  -0.076625  -0.110506  0  3.903955  0
C  C29  1  0.92266556  0.00000029  0.66845140  1  0  -0.07  0  3.668592  0  0  -0.108779  0  3.916089  0  0  -0.105383  0  3.933915  0  0  -0.076607  -0.110422  0  3.904008  0
C  C30  1  0.94994531  0.00000027  0.26899279  1  0  -0.048997  0  3.763412  0  0  -0.020473  0  3.992074  0  0  -0.030556  0  4.016728  0  0  -0.019079  -0.014251  0  3.975547  0
C  C31  1  0.05005370  0.00000182  0.73100619  1  0  -0.049022  0  3.763476  0  0  -0.02051  0  3.992147  0  0  -0.030592  0  4.016796  0  0  -0.019093  -0.014287  0  3.975621  0
C  C32  1  0.82535972  0.99999992  0.31121723  1  0  0.609283  0  3.954277  0  0  0.565705  0  4.239627  0  0  0.599246  0  4.235453  0  0  0.181279  0.543261  0  4.24199  0
C  C33  1  0.17464066  0.00000097  0.68878200  1  0  0.609299  0  3.95438  0  0  0.565724  0  4.239728  0  0  0.599266  0  4.235553  0  0  0.181274  0.54328  0  4.242092  0
C  C34  1  0.93885299  0.00000113  0.16794055  1  0  -0.102672  0  3.645721  0  0  -0.137079  0  3.886941  0  0  -0.135253  0  3.905372  0  0  -0.069908  -0.138083  0  3.874604  0
C  C35  1  0.06114803  0.00000008  0.83205944  1  0  -0.102706  0  3.645641  0  0  -0.137104  0  3.886869  0  0  -0.135278  0  3.905297  0  0  -0.069926  -0.138107  0  3.874532  0
C  C36  1  0.05592639  0.00000002  0.12890800  1  0  0.142855  0  3.826793  0  0  0.154018  0  4.077611  0  0  0.150727  0  4.104185  0  0  0.077904  0.155977  0  4.059632  0
C  C37  1  0.94407298  0.99999912  0.87109108  1  0  0.142836  0  3.826778  0  0  0.153987  0  4.077607  0  0  0.150696  0  4.104178  0  0  0.077906  0.155949  0  4.059629  0
C  C38  1  0.18284891  0.00000094  0.19133594  1  0  -0.110957  0  3.680923  0  0  -0.148276  0  3.929161  0  0  -0.14732  0  3.948643  0  0  -0.074773  -0.14824  0  3.915734  0
C  C39  1  0.81715147  0.99999908  0.80866472  1  0  -0.110913  0  3.681004  0  0  -0.148245  0  3.929217  0  0  -0.147273  0  3.948714  0  0  -0.074762  -0.148209  0  3.915793  0
C  C40  1  0.53550001  0.24931000  0.33592459  1  0  0.139289  0  3.694654  0  0  0.110114  0  3.94323  0  0  0.116688  0  3.962322  0  0  0.058149  0.105925  0  3.929881  0
C  C41  1  0.46450019  0.24931088  0.66407530  1  0  0.13934  0  3.694614  0  0  0.110143  0  3.943197  0  0  0.116727  0  3.962292  0  0  0.058192  0.105953  0  3.929853  0
C  C42  1  0.46450037  0.75069002  0.66407535  1  0  0.139289  0  3.694711  0  0  0.110091  0  3.943294  0  0  0.116672  0  3.96239  0  0  0.058146  0.105901  0  3.929945  0
C  C43  1  0.53550119  0.75068914  0.33592551  1  0  0.139362  0  3.69461  0  0  0.110144  0  3.943217  0  0  0.116728  0  3.962314  0  0  0.058167  0.105955  0  3.929866  0
C  C44  1  0.53254581  0.37089629  0.33438433  1  0  -0.161201  0  3.718579  0  0  -0.180784  0  3.965421  0  0  -0.188948  0  3.987439  0  0  -0.080012  -0.175269  0  3.95024  0
C  C45  1  0.46745447  0.37089630  0.66561559  1  0  -0.16116  0  3.718633  0  0  -0.180769  0  3.965478  0  0  -0.188931  0  3.987491  0  0  -0.080004  -0.175255  0  3.950301  0
C  C46  1  0.46745557  0.62910461  0.66561648  1  0  -0.16113  0  3.718545  0  0  -0.180721  0  3.965379  0  0  -0.188884  0  3.987396  0  0  -0.079974  -0.175208  0  3.950204  0
C  C47  1  0.53254591  0.62910372  0.33438435  1  0  -0.161207  0  3.71859  0  0  -0.180799  0  3.965441  0  0  -0.188962  0  3.987457  0  0  -0.080017  -0.175283  0  3.95026  0
C  C48  1  0.62457758  0.43505891  0.40349686  1  0  0.091857  0  3.763838  0  0  0.102325  0  3.999095  0  0  0.106388  0  4.021202  0  0  0.010394  0.099726  0  3.984342  0
C  C49  1  0.37542375  0.43505973  0.59650394  1  0  0.091848  0  3.76378  0  0  0.102341  0  3.999007  0  0  0.106405  0  4.021117  0  0  0.010402  0.099742  0  3.984255  0
C  C50  1  0.37542380  0.56494199  0.59650324  1  0  0.091769  0  3.763831  0  0  0.102272  0  3.999049  0  0  0.106332  0  4.02116  0  0  0.010377  0.09967  0  3.984297  0
C  C51  1  0.62457763  0.56494116  0.40349687  1  0  0.091784  0  3.763915  0  0  0.102282  0  3.999156  0  0  0.106345  0  4.021264  0  0  0.010385  0.09968  0  3.984405  0
C  C52  1  0.71657080  0.36955820  0.47170015  1  0  -0.165593  0  3.720278  0  0  -0.184747  0  3.967759  0  0  -0.192893  0  3.989212  0  0  -0.08343  -0.179504  0  3.953122  0
C  C53  1  0.28342948  0.36955897  0.52830048  1  0  -0.165597  0  3.720166  0  0  -0.184769  0  3.967654  0  0  -0.192916  0  3.989107  0  0  -0.083434  -0.179524  0  3.953013  0
C  C54  1  0.28342756  0.63044007  0.52830021  1  0  -0.165555  0  3.720188  0  0  -0.184733  0  3.967678  0  0  -0.192879  0  3.989132  0  0  -0.083419  -0.17949  0  3.953038  0
C  C55  1  0.71657190  0.63043930  0.47170033  1  0  -0.16551  0  3.720216  0  0  -0.184684  0  3.967696  0  0  -0.19283  0  3.989149  0  0  -0.0834  -0.179441  0  3.953057  0
C  C56  1  0.71298266  0.24786331  0.46855065  1  0  0.142897  0  3.691537  0  0  0.11267  0  3.941433  0  0  0.119787  0  3.959985  0  0  0.057979  0.108146  0  3.928628  0
C  C57  1  0.28701653  0.24786321  0.53144981  1  0  0.142885  0  3.691609  0  0  0.112653  0  3.941511  0  0  0.11977  0  3.960063  0  0  0.057953  0.108131  0  3.928702  0
C  C58  1  0.28701671  0.75213670  0.53144915  1  0  0.142902  0  3.691428  0  0  0.112679  0  3.941337  0  0  0.119797  0  3.959888  0  0  0.057972  0.108156  0  3.928528  0
C  C59  1  0.71298284  0.75213593  0.46855141  1  0  0.142816  0  3.69145  0  0  0.112599  0  3.941363  0  0  0.119715  0  3.959915  0  0  0.057952  0.108075  0  3.928556  0
N  N60  1  0.05758456  0.99999883  0.02787982  1  0  -0.152901  0  3.006163  0  0  -0.134513  0  3.287827  0  0  -0.133023  0  3.294115  0  0  -0.151949  -0.135726  0  3.284068  0
N  N61  1  0.94241617  0.99999913  0.97211951  1  0  -0.152845  0  3.006141  0  0  -0.134445  0  3.287798  0  0  -0.132954  0  3.294087  0  0  -0.151917  -0.135661  0  3.28404  0
N  N62  1  0.62361227  0.18832903  0.40210119  1  0  -0.288737  0  3.247676  0  0  -0.215772  0  3.512687  0  0  -0.233946  0  3.529379  0  0  -0.307539  -0.20309  0  3.50086  0
N  N63  1  0.37638788  0.18832898  0.59789869  1  0  -0.288716  0  3.247684  0  0  -0.21575  0  3.512706  0  0  -0.233924  0  3.529394  0  0  -0.307526  -0.203068  0  3.50088  0
N  N64  1  0.37638810  0.81167099  0.59789804  1  0  -0.288729  0  3.247678  0  0  -0.215764  0  3.512701  0  0  -0.233938  0  3.529389  0  0  -0.307539  -0.203081  0  3.500871  0
N  N65  1  0.62361249  0.81167104  0.40210197  1  0  -0.288708  0  3.247694  0  0  -0.215731  0  3.512715  0  0  -0.233904  0  3.529402  0  0  -0.307521  -0.203049  0  3.500886  0
O  O66  1  0.43205169  0.00000014  0.31816645  1  0  -0.63913  0  2.088132  0  0  -0.571864  0  2.352219  0  0  -0.599696  0  2.336904  0  0  -0.316841  -0.552953  0  2.362226  0
O  O67  1  0.56794768  0.99999988  0.68183406  1  0  -0.639145  0  2.088315  0  0  -0.571883  0  2.352406  0  0  -0.599713  0  2.337083  0  0  -0.316856  -0.552973  0  2.36241  0
O  O68  1  0.33659827  0.00000012  0.45030627  1  0  -0.651474  0  2.144033  0  0  -0.595076  0  2.435786  0  0  -0.620823  0  2.419121  0  0  -0.32233  -0.577721  0  2.44692  0
O  O69  1  0.66340175  0.00000021  0.54969500  1  0  -0.651516  0  2.143877  0  0  -0.59517  0  2.435653  0  0  -0.620915  0  2.41898  0  0  -0.322368  -0.577811  0  2.446783  0
O  O70  1  0.84003458  0.00000025  0.40464286  1  0  -0.640576  0  1.97694  0  0  -0.584284  0  2.222995  0  0  -0.612823  0  2.21263  0  0  -0.333987  -0.565127  0  2.229982  0
O  O71  1  0.15996443  0.00000009  0.59535684  1  0  -0.640531  0  1.977011  0  0  -0.584242  0  2.223074  0  0  -0.612779  0  2.212706  0  0  -0.333946  -0.565084  0  2.23006  0
O  O72  1  0.71002350  0.99999989  0.25509537  1  0  -0.620241  0  1.890122  0  0  -0.569673  0  2.104735  0  0  -0.59528  0  2.094948  0  0  -0.341065  -0.552694  0  2.111435  0
O  O73  1  0.28997688  0.00000013  0.74490457  1  0  -0.620288  0  1.890143  0  0  -0.569719  0  2.104755  0  0  -0.595325  0  2.094966  0  0  -0.341088  -0.552738  0  2.111454  0
