# generated using pymatgen
data_AgH3C2(N3O)2
_symmetry_space_group_name_H-M   'P 1'
_cell_length_a   6.60165460
_cell_length_b   8.43537461
_cell_length_c   10.74858443
_cell_angle_alpha   89.99997595
_cell_angle_beta   104.51721376
_cell_angle_gamma   90.00009611
_symmetry_Int_Tables_number   1
_chemical_formula_structural   AgH3C2(N3O)2
_chemical_formula_sum   'Ag4 H12 C8 N24 O8'
_cell_volume   579.45040503
_cell_formula_units_Z   4
loop_
 _symmetry_equiv_pos_site_id
 _symmetry_equiv_pos_as_xyz
  1  'x, y, z'
loop_
 _atom_site_type_symbol
 _atom_site_label
 _atom_site_symmetry_multiplicity
 _atom_site_fract_x
 _atom_site_fract_y
 _atom_site_fract_z
 _atom_site_occupancy
 _atom_site_hle17_bader_spin_density
 _atom_site_hle17_ddec_charge
 _atom_site_hle17_ddec_spin_density
 _atom_site_hle17_ddec_sum_bond_order
 _atom_site_hle17_magmom
 _atom_site_hse06_10hf_bader_spin_density
 _atom_site_hse06_10hf_ddec_charge
 _atom_site_hse06_10hf_ddec_spin_density
 _atom_site_hse06_10hf_ddec_sum_bond_order
 _atom_site_hse06_10hf_magmom
 _atom_site_hse06_bader_spin_density
 _atom_site_hse06_ddec_charge
 _atom_site_hse06_ddec_spin_density
 _atom_site_hse06_ddec_sum_bond_order
 _atom_site_hse06_magmom
 _atom_site_pbe_bader_spin_density
 _atom_site_pbe_cm5_charge
 _atom_site_pbe_ddec_charge
 _atom_site_pbe_ddec_spin_density
 _atom_site_pbe_ddec_sum_bond_order
 _atom_site_pbe_magmom
Ag  Ag0  1  0.21655906  0.06061023  0.53415579  1  0  0.554262  0  1.408909  0  0  0.418014  0  1.872524  0  0  0.446333  0  1.820557  0  0  0.464955  0.398763  0  1.908706  0
Ag  Ag1  1  0.28344123  0.56061062  0.46584355  1  0  0.554262  0  1.408918  0  0  0.418016  0  1.87253  0  0  0.446334  0  1.820565  0  0  0.464955  0.398766  0  1.908706  0
Ag  Ag2  1  0.78343982  0.93939082  0.46584325  1  0  0.554259  0  1.408901  0  0  0.418029  0  1.872512  0  0  0.446348  0  1.820542  0  0  0.464949  0.398777  0  1.908685  0
Ag  Ag3  1  0.71655923  0.43938925  0.53415759  1  0  0.55424  0  1.408943  0  0  0.417985  0  1.872557  0  0  0.446305  0  1.820589  0  0  0.464944  0.398738  0  1.908733  0
H  H4  1  0.25593224  0.03832094  0.00276923  1  0  0.123634  0  0.941354  0  0  0.139919  0  1.009978  0  0  0.141419  0  1.00781  0  0  0.116614  0.138534  0  1.011175  0
H  H5  1  0.24406800  0.53832216  0.99723012  1  0  0.123635  0  0.941366  0  0  0.139919  0  1.009987  0  0  0.141419  0  1.007821  0  0  0.116615  0.138533  0  1.011184  0
H  H6  1  0.74406976  0.96167774  0.99723028  1  0  0.123627  0  0.941371  0  0  0.139899  0  1.010009  0  0  0.141399  0  1.007845  0  0  0.116616  0.138514  0  1.011202  0
H  H7  1  0.75592935  0.46167889  0.00277149  1  0  0.123636  0  0.941375  0  0  0.139903  0  1.010028  0  0  0.141405  0  1.007852  0  0  0.116621  0.138515  0  1.011236  0
H  H8  1  0.11420037  0.85726939  0.96036863  1  0  0.115053  0  0.966794  0  0  0.127377  0  1.043015  0  0  0.128716  0  1.041144  0  0  0.107495  0.126141  0  1.043799  0
H  H9  1  0.38579897  0.35726951  0.03963049  1  0  0.11506  0  0.966811  0  0  0.127404  0  1.042998  0  0  0.128748  0  1.041122  0  0  0.107505  0.126169  0  1.043776  0
H  H10  1  0.88580162  0.14273048  0.03962995  1  0  0.115028  0  0.966831  0  0  0.127373  0  1.043012  0  0  0.128731  0  1.041126  0  0  0.107503  0.12614  0  1.043798  0
H  H11  1  0.61419681  0.64272917  0.96036996  1  0  0.115071  0  0.966838  0  0  0.127418  0  1.043012  0  0  0.128774  0  1.041126  0  0  0.107516  0.126186  0  1.04379  0
H  H12  1  0.39371002  0.85549399  0.00658208  1  0  0.119353  0  0.94349  0  0  0.134704  0  1.014677  0  0  0.135767  0  1.01254  0  0  0.113278  0.133864  0  1.01526  0
H  H13  1  0.10628930  0.35549439  0.99341610  1  0  0.119374  0  0.943503  0  0  0.134721  0  1.014676  0  0  0.135784  0  1.012542  0  0  0.113287  0.133879  0  1.015263  0
H  H14  1  0.60629199  0.14450469  0.99341743  1  0  0.119325  0  0.943553  0  0  0.134689  0  1.014717  0  0  0.135752  0  1.012582  0  0  0.113272  0.13385  0  1.0153  0
H  H15  1  0.89370645  0.64450429  0.00658248  1  0  0.119345  0  0.943536  0  0  0.134707  0  1.014704  0  0  0.135769  0  1.012566  0  0  0.11328  0.133865  0  1.015289  0
C  C16  1  0.24142142  0.00755756  0.24464240  1  0  0.426388  0  3.810318  0  0  0.367499  0  4.104121  0  0  0.399625  0  4.112122  0  0  0.340688  0.353306  0  4.098126  0
C  C17  1  0.25858031  0.50755775  0.75535624  1  0  0.426432  0  3.810247  0  0  0.367515  0  4.104077  0  0  0.399634  0  4.11208  0  0  0.34071  0.353324  0  4.098081  0
C  C18  1  0.75857900  0.99244231  0.75535594  1  0  0.426387  0  3.810281  0  0  0.367487  0  4.104107  0  0  0.399608  0  4.11211  0  0  0.340686  0.353295  0  4.09811  0
C  C19  1  0.74142015  0.49244330  0.24464397  1  0  0.4264  0  3.810268  0  0  0.367525  0  4.104059  0  0  0.399654  0  4.112056  0  0  0.340708  0.353328  0  4.098061  0
C  C20  1  0.25371354  0.91161469  0.02322653  1  0  -0.178474  0  3.604372  0  0  -0.295836  0  3.851885  0  0  -0.280553  0  3.862867  0  0  -0.127873  -0.29785  0  3.848008  0
C  C21  1  0.24628589  0.41161411  0.97677165  1  0  -0.178501  0  3.604479  0  0  -0.295838  0  3.851921  0  0  -0.280568  0  3.862901  0  0  -0.127875  -0.297851  0  3.848043  0
C  C22  1  0.74628845  0.08838517  0.97677205  1  0  -0.178433  0  3.604517  0  0  -0.295777  0  3.85195  0  0  -0.280519  0  3.862919  0  0  -0.127866  -0.297794  0  3.848073  0
C  C23  1  0.75371142  0.58838457  0.02322716  1  0  -0.178512  0  3.604553  0  0  -0.295871  0  3.851984  0  0  -0.280599  0  3.862954  0  0  -0.127898  -0.297888  0  3.84811  0
N  N24  1  0.25552277  0.93274703  0.35764764  1  0  -0.337826  0  3.117739  0  0  -0.287765  0  3.442144  0  0  -0.305112  0  3.446284  0  0  -0.238558  -0.27616  0  3.436678  0
N  N25  1  0.24447826  0.43274663  0.64235077  1  0  -0.337815  0  3.117776  0  0  -0.287755  0  3.442185  0  0  -0.305102  0  3.446327  0  0  -0.23858  -0.276145  0  3.436712  0
N  N26  1  0.74447767  0.06725283  0.64235163  1  0  -0.337844  0  3.11777  0  0  -0.287791  0  3.442175  0  0  -0.305139  0  3.446315  0  0  -0.238575  -0.276177  0  3.436694  0
N  N27  1  0.75552219  0.56725324  0.35764944  1  0  -0.337826  0  3.117753  0  0  -0.287786  0  3.442173  0  0  -0.305134  0  3.44631  0  0  -0.23859  -0.276176  0  3.436696  0
N  N28  1  0.25207259  0.89319698  0.15714994  1  0  0.006539  0  3.507532  0  0  0.129858  0  3.69513  0  0  0.083021  0  3.758835  0  0  -0.11632  0.138451  0  3.680173  0
N  N29  1  0.24792836  0.39319647  0.84284848  1  0  0.006513  0  3.507621  0  0  0.129795  0  3.695271  0  0  0.082976  0  3.758955  0  0  -0.116343  0.138388  0  3.680317  0
N  N30  1  0.74792784  0.10680289  0.84284934  1  0  0.006572  0  3.507538  0  0  0.129872  0  3.695154  0  0  0.083047  0  3.758849  0  0  -0.116317  0.138465  0  3.680203  0
N  N31  1  0.75207208  0.60680340  0.15715080  1  0  0.006581  0  3.507477  0  0  0.129908  0  3.695041  0  0  0.08306  0  3.758766  0  0  -0.116282  0.138499  0  3.680087  0
N  N32  1  0.19853317  0.15868776  0.20354307  1  0  -0.412662  0  2.884509  0  0  -0.418929  0  3.187355  0  0  -0.434953  0  3.189804  0  0  -0.233026  -0.407986  0  3.182991  0
N  N33  1  0.30147046  0.65868799  0.79645767  1  0  -0.412737  0  2.884481  0  0  -0.418951  0  3.187298  0  0  -0.434975  0  3.189754  0  0  -0.233059  -0.40801  0  3.18293  0
N  N34  1  0.80147041  0.84131211  0.79645760  1  0  -0.41268  0  2.884431  0  0  -0.418902  0  3.187243  0  0  -0.434927  0  3.189691  0  0  -0.233042  -0.407961  0  3.182874  0
N  N35  1  0.69853157  0.34131188  0.20354370  1  0  -0.412724  0  2.884299  0  0  -0.418991  0  3.187167  0  0  -0.435012  0  3.189608  0  0  -0.233059  -0.408047  0  3.182802  0
N  N36  1  0.27076482  0.77547603  0.33343544  1  0  -0.034254  0  3.164394  0  0  0.002887  0  3.494634  0  0  -0.00026  0  3.501067  0  0  -0.095597  0.005609  0  3.487837  0
N  N37  1  0.22923436  0.27547559  0.66656461  1  0  -0.034315  0  3.164458  0  0  0.002823  0  3.494707  0  0  -0.000324  0  3.50114  0  0  -0.095636  0.005542  0  3.487925  0
N  N38  1  0.72923406  0.22452502  0.66656454  1  0  -0.034236  0  3.164382  0  0  0.002914  0  3.494622  0  0  -0.000232  0  3.501056  0  0  -0.095615  0.005631  0  3.48784  0
N  N39  1  0.77076455  0.72452546  0.33343630  1  0  -0.034321  0  3.164371  0  0  0.002821  0  3.494638  0  0  -0.000325  0  3.501065  0  0  -0.095609  0.005542  0  3.487841  0
N  N40  1  0.26424501  0.27418354  0.28722445  1  0  0.609529  0  4.050224  0  0  0.645555  0  4.327724  0  0  0.670546  0  4.341542  0  0  0.106818  0.628492  0  4.318386  0
N  N41  1  0.23575730  0.77418372  0.71277606  1  0  0.60946  0  4.050282  0  0  0.645447  0  4.327834  0  0  0.670435  0  4.341655  0  0  0.106775  0.628387  0  4.31849  0
N  N42  1  0.73575701  0.72581633  0.71277599  1  0  0.609369  0  4.050323  0  0  0.645376  0  4.327842  0  0  0.67037  0  4.341661  0  0  0.106678  0.628321  0  4.318495  0
N  N43  1  0.76424630  0.22581733  0.28722555  1  0  0.609715  0  4.050009  0  0  0.645691  0  4.327552  0  0  0.670682  0  4.34137  0  0  0.106826  0.628626  0  4.318219  0
N  N44  1  0.26990068  0.75043390  0.21391759  1  0  -0.074118  0  2.857397  0  0  -0.096353  0  3.137096  0  0  -0.082212  0  3.154549  0  0  -0.071621  -0.098524  0  3.129594  0
N  N45  1  0.23009686  0.25043340  0.78608129  1  0  -0.074041  0  2.857425  0  0  -0.096272  0  3.137129  0  0  -0.082137  0  3.154582  0  0  -0.071551  -0.098444  0  3.129636  0
N  N46  1  0.73009662  0.24956597  0.78608122  1  0  -0.074124  0  2.857391  0  0  -0.096358  0  3.137088  0  0  -0.082221  0  3.15454  0  0  -0.071565  -0.09853  0  3.129598  0
N  N47  1  0.76990046  0.74956765  0.21391846  1  0  -0.074079  0  2.857339  0  0  -0.096326  0  3.137049  0  0  -0.08218  0  3.154501  0  0  -0.071625  -0.098496  0  3.129548  0
O  O48  1  0.19987652  0.41222242  0.25228284  1  0  -0.430973  0  1.823497  0  0  -0.409638  0  2.069205  0  0  -0.426837  0  2.064893  0  0  -0.175362  -0.397966  0  2.072073  0
O  O49  1  0.30012766  0.91222149  0.74771977  1  0  -0.430935  0  1.823484  0  0  -0.409568  0  2.069214  0  0  -0.426762  0  2.0649  0  0  -0.175347  -0.397898  0  2.07208  0
O  O50  1  0.80012709  0.58777744  0.74771970  1  0  -0.43085  0  1.823557  0  0  -0.409474  0  2.069165  0  0  -0.426672  0  2.064851  0  0  -0.175254  -0.397806  0  2.072036  0
O  O51  1  0.69987750  0.08777837  0.25228207  1  0  -0.431072  0  1.823469  0  0  -0.409684  0  2.069173  0  0  -0.426883  0  2.064859  0  0  -0.175352  -0.39801  0  2.07204  0
O  O52  1  0.38876892  0.25033522  0.39695229  1  0  -0.486461  0  1.899825  0  0  -0.457307  0  2.172871  0  0  -0.475523  0  2.162861  0  0  -0.191493  -0.444691  0  2.179759  0
O  O53  1  0.11123334  0.75033648  0.60304822  1  0  -0.486394  0  1.899832  0  0  -0.457261  0  2.172893  0  0  -0.475475  0  2.162881  0  0  -0.191453  -0.444644  0  2.179775  0
O  O54  1  0.61123310  0.74966346  0.60304815  1  0  -0.486389  0  1.899826  0  0  -0.45729  0  2.17295  0  0  -0.475493  0  2.162904  0  0  -0.19146  -0.444676  0  2.17983  0
O  O55  1  0.88877026  0.24966576  0.39695338  1  0  -0.486451  0  1.899765  0  0  -0.457325  0  2.172847  0  0  -0.475533  0  2.162821  0  0  -0.191486  -0.444711  0  2.179741  0
