# generated using pymatgen
data_Cd3H64Ir2C78(N4O9)2
_symmetry_space_group_name_H-M   'P 1'
_cell_length_a   14.24273777
_cell_length_b   14.40851969
_cell_length_c   21.04293230
_cell_angle_alpha   90.00017023
_cell_angle_beta   101.48133510
_cell_angle_gamma   90.00010152
_symmetry_Int_Tables_number   1
_chemical_formula_structural   Cd3H64Ir2C78(N4O9)2
_chemical_formula_sum   'Cd6 H128 Ir4 C156 N16 O36'
_cell_volume   4231.95038242
_cell_formula_units_Z   2
loop_
 _symmetry_equiv_pos_site_id
 _symmetry_equiv_pos_as_xyz
  1  'x, y, z'
loop_
 _atom_site_type_symbol
 _atom_site_label
 _atom_site_symmetry_multiplicity
 _atom_site_fract_x
 _atom_site_fract_y
 _atom_site_fract_z
 _atom_site_occupancy
 _atom_site_pbe_bader_charge
 _atom_site_pbe_bader_spin_density
 _atom_site_pbe_cm5_charge
 _atom_site_pbe_ddec_charge
 _atom_site_pbe_ddec_spin_density
 _atom_site_pbe_ddec_sum_bond_order
 _atom_site_pbe_magmom
Cd  Cd0  1  0.49999859  0.49999915  0.99999908  1  1.403423  0  0.815392  1.128665  0  2.135711  0
Cd  Cd1  1  0.00000002  0.00000178  0.50000075  1  1.403402  0  0.815389  1.128686  0  2.135656  0
Cd  Cd2  1  0.23356556  0.12147796  0.46658799  1  1.295091  0  0.75487  1.001077  0  2.076246  0
Cd  Cd3  1  0.26643475  0.62147497  0.03341128  1  1.295166  0  0.754858  1.001037  0  2.07637  0
Cd  Cd4  1  0.76643663  0.87852372  0.53341312  1  1.295204  0  0.754877  1.001073  0  2.076342  0
Cd  Cd5  1  0.73356529  0.37852463  0.96658907  1  1.295188  0  0.754868  1.001061  0  2.076342  0
H  H6  1  0.58494824  0.35319705  0.29501425  1  0.023392  0  0.090064  0.095619  0  1.02804  0
H  H7  1  0.91505069  0.85319715  0.20498457  1  0.02342  0  0.090061  0.095622  0  1.028048  0
H  H8  1  0.41505392  0.64680394  0.70498305  1  0.023477  0  0.090093  0.095669  0  1.028012  0
H  H9  1  0.08495006  0.14680314  0.79501635  1  0.02344  0  0.090075  0.095653  0  1.028004  0
H  H10  1  0.47852023  0.22423857  0.31480770  1  0.053391  0  0.095667  0.095328  0  1.017432  0
H  H11  1  0.02148033  0.72424068  0.18519134  1  0.053257  0  0.095682  0.09536  0  1.017437  0
H  H12  1  0.52148193  0.77576103  0.68518913  1  0.053159  0  0.095685  0.095415  0  1.017339  0
H  H13  1  0.97852113  0.27576170  0.81480920  1  0.053306  0  0.095692  0.095375  0  1.01738  0
H  H14  1  0.49939930  0.31340015  0.51100876  1  0.064838  0  0.095298  0.089391  0  1.056604  0
H  H15  1  0.00059865  0.81339799  0.98898972  1  0.064795  0  0.095309  0.089429  0  1.056598  0
H  H16  1  0.50059855  0.68660222  0.48898655  1  0.064781  0  0.095294  0.089395  0  1.056607  0
H  H17  1  0.99940139  0.18660300  0.01101111  1  0.06477  0  0.095308  0.089378  0  1.056682  0
H  H18  1  0.55783357  0.41056787  0.58301230  1  0.08066  0  0.101862  0.106975  0  1.033147  0
H  H19  1  0.94216554  0.91056825  0.91698721  1  0.080628  0  0.10184  0.106952  0  1.033186  0
H  H20  1  0.44216430  0.58942895  0.41698539  1  0.080622  0  0.101822  0.106939  0  1.033251  0
H  H21  1  0.05783378  0.08942996  0.08301400  1  0.080633  0  0.10186  0.107019  0  1.033166  0
H  H22  1  0.64014721  0.52574234  0.66247917  1  0.069311  0  0.104925  0.10059  0  0.989529  0
H  H23  1  0.85985383  0.02574568  0.83752266  1  0.069344  0  0.104926  0.100618  0  0.989513  0
H  H24  1  0.35984996  0.47425240  0.33752033  1  0.069666  0  0.104934  0.100651  0  0.989507  0
H  H25  1  0.14014693  0.97425254  0.16247826  1  0.06972  0  0.10492  0.100625  0  0.989486  0
H  H26  1  0.75794828  0.63812657  0.62685536  1  0.080845  0  0.108821  0.118739  0  0.993292  0
H  H27  1  0.74205161  0.13812916  0.87314703  1  0.080738  0  0.108772  0.118643  0  0.993274  0
H  H28  1  0.24204890  0.36186887  0.37314605  1  0.080811  0  0.108805  0.118729  0  0.993228  0
H  H29  1  0.25794770  0.86187044  0.12685228  1  0.080938  0  0.108768  0.118646  0  0.993289  0
H  H30  1  0.78475163  0.62775401  0.51507119  1  0.145639  0  0.114076  0.09232  0  1.050408  0
H  H31  1  0.71524824  0.12775357  0.98493165  1  0.145612  0  0.114089  0.092285  0  1.050357  0
H  H32  1  0.21524770  0.37224559  0.48493050  1  0.145595  0  0.114072  0.09232  0  1.05039  0
H  H33  1  0.28475108  0.87224742  0.01506861  1  0.145613  0  0.114075  0.092289  0  1.050405  0
H  H34  1  0.73124320  0.27800236  0.42339642  1  0.059137  0  0.090105  0.097309  0  1.026705  0
H  H35  1  0.76875701  0.77799818  0.07660669  1  0.059078  0  0.090104  0.097273  0  1.026721  0
H  H36  1  0.26875685  0.72200071  0.57660584  1  0.059068  0  0.090101  0.097307  0  1.026663  0
H  H37  1  0.23124375  0.22200072  0.92339518  1  0.059089  0  0.090121  0.097303  0  1.026701  0
H  H38  1  0.86813099  0.17023502  0.43672701  1  0.081973  0  0.094434  0.098489  0  1.063798  0
H  H39  1  0.63186895  0.67023124  0.06327585  1  0.081919  0  0.094423  0.098503  0  1.063803  0
H  H40  1  0.13186977  0.82976874  0.56327439  1  0.081907  0  0.094424  0.09849  0  1.063811  0
H  H41  1  0.36813180  0.32976698  0.93672508  1  0.08194  0  0.094438  0.098515  0  1.063822  0
H  H42  1  0.05949278  0.39719931  0.42751564  1  0.083824  0  0.099489  0.09447  0  1.04919  0
H  H43  1  0.44050750  0.89719819  0.07248372  1  0.083811  0  0.099484  0.094455  0  1.0492  0
H  H44  1  0.94050725  0.60280306  0.57248376  1  0.083949  0  0.099494  0.094476  0  1.04918  0
H  H45  1  0.55949324  0.10280210  0.92751578  1  0.083791  0  0.099493  0.094467  0  1.049197  0
H  H46  1  0.07681024  0.53821104  0.42593110  1  0.082751  0  0.104866  0.112535  0  1.014138  0
H  H47  1  0.42319128  0.03820779  0.07406674  1  0.082553  0  0.104888  0.112553  0  1.014118  0
H  H48  1  0.92319049  0.46179134  0.57406697  1  0.082561  0  0.104878  0.11255  0  1.014139  0
H  H49  1  0.57680944  0.96179042  0.92593037  1  0.082773  0  0.104858  0.112533  0  1.014143  0
H  H50  1  0.08260651  0.70842489  0.41322599  1  0.063642  0  0.100174  0.088022  0  1.051742  0
H  H51  1  0.41739474  0.20842099  0.08677501  1  0.063026  0  0.100145  0.088003  0  1.051841  0
H  H52  1  0.91739424  0.29157818  0.58677445  1  0.063022  0  0.10014  0.087978  0  1.051837  0
H  H53  1  0.58260530  0.79157652  0.91322582  1  0.063678  0  0.100151  0.087988  0  1.051832  0
H  H54  1  0.92770569  0.79942174  0.39025198  1  0.095498  0  0.103345  0.111701  0  1.025546  0
H  H55  1  0.57229530  0.29941804  0.10975270  1  0.095581  0  0.103347  0.111723  0  1.025477  0
H  H56  1  0.07229508  0.20058133  0.60975084  1  0.095551  0  0.103361  0.111747  0  1.025519  0
H  H57  1  0.42770406  0.70058018  0.89025231  1  0.09543  0  0.103362  0.111734  0  1.025513  0
H  H58  1  0.77485353  0.71368135  0.38482549  1  0.118379  0  0.115857  0.088479  0  1.02893  0
H  H59  1  0.72514725  0.21367863  0.11517852  1  0.118369  0  0.11585  0.088495  0  1.028863  0
H  H60  1  0.22514723  0.28632172  0.61517639  1  0.118374  0  0.115819  0.088433  0  1.028999  0
H  H61  1  0.27485137  0.78632027  0.88482403  1  0.118338  0  0.115858  0.088527  0  1.028879  0
H  H62  1  0.81087983  0.36250148  0.30318601  1  0.053135  0  0.091022  0.097682  0  1.035311  0
H  H63  1  0.68912057  0.86250185  0.19681445  1  0.053208  0  0.091032  0.09771  0  1.035302  0
H  H64  1  0.18911805  0.63749534  0.69681406  1  0.053408  0  0.091027  0.09772  0  1.035348  0
H  H65  1  0.31088018  0.13749775  0.80318552  1  0.053158  0  0.091034  0.097723  0  1.035303  0
H  H66  1  0.80108530  0.35034521  0.18526500  1  0.081455  0  0.094964  0.09389  0  1.041385  0
H  H67  1  0.69891363  0.85034750  0.31473524  1  0.081374  0  0.094968  0.09391  0  1.041377  0
H  H68  1  0.19891115  0.64964953  0.81473441  1  0.08147  0  0.094971  0.093906  0  1.041353  0
H  H69  1  0.30108711  0.14965210  0.68526425  1  0.081366  0  0.094955  0.093877  0  1.041416  0
H  H70  1  0.60336761  0.57805400  0.15169571  1  0.089863  0  0.098388  0.098732  0  1.044244  0
H  H71  1  0.89662708  0.07806091  0.34830436  1  0.089786  0  0.098417  0.098824  0  1.044112  0
H  H72  1  0.39663242  0.42194352  0.84830416  1  0.089835  0  0.09838  0.098723  0  1.044248  0
H  H73  1  0.10336794  0.92194354  0.65169438  1  0.089817  0  0.098404  0.098768  0  1.044172  0
H  H74  1  0.53160125  0.68252347  0.19559431  1  0.073941  0  0.108164  0.121536  0  1.010757  0
H  H75  1  0.96839728  0.18252616  0.30440648  1  0.073918  0  0.108139  0.121513  0  1.010767  0
H  H76  1  0.46839735  0.31747613  0.80440538  1  0.07396  0  0.108148  0.121537  0  1.010751  0
H  H77  1  0.03160490  0.81747552  0.69559368  1  0.073938  0  0.108152  0.121525  0  1.010746  0
H  H78  1  0.46716766  0.80758289  0.25592172  1  0.093201  0  0.110838  0.10791  0  0.975978  0
H  H79  1  0.03283527  0.30758386  0.24407875  1  0.093173  0  0.110837  0.107916  0  0.975964  0
H  H80  1  0.53283883  0.19241741  0.74407948  1  0.093149  0  0.110838  0.107925  0  0.975978  0
H  H81  1  0.96716404  0.69241644  0.75592056  1  0.093175  0  0.110845  0.107929  0  0.975947  0
H  H82  1  0.51144249  0.80761234  0.37906831  1  0.102507  0  0.110156  0.118634  0  0.990611  0
H  H83  1  0.98855777  0.30761011  0.12093154  1  0.102759  0  0.110142  0.11858  0  0.990706  0
H  H84  1  0.48856112  0.19238795  0.62093109  1  0.102989  0  0.110139  0.118592  0  0.990606  0
H  H85  1  0.01144083  0.69239019  0.87906814  1  0.102742  0  0.110144  0.118585  0  0.990693  0
H  H86  1  0.61010925  0.67794066  0.43391910  1  0.136041  0  0.116372  0.091243  0  1.03192  0
H  H87  1  0.88989071  0.17793870  0.06608234  1  0.136071  0  0.116391  0.091309  0  1.03187  0
H  H88  1  0.38989222  0.32205894  0.56608191  1  0.136065  0  0.116392  0.09127  0  1.031886  0
H  H89  1  0.11011005  0.82206090  0.93391810  1  0.136062  0  0.116375  0.091274  0  1.031927  0
H  H90  1  0.31655529  0.37254936  0.02502552  1  0.131186  0  0.127992  0.065505  0  1.013551  0
H  H91  1  0.18344709  0.87254884  0.47497549  1  0.131159  0  0.128016  0.065506  0  1.013484  0
H  H92  1  0.68344404  0.62744885  0.97497569  1  0.131159  0  0.127975  0.065435  0  1.013562  0
H  H93  1  0.81655510  0.12745145  0.52502515  1  0.131192  0  0.12797  0.065405  0  1.013595  0
H  H94  1  0.38629943  0.25273874  0.20105711  1  0.054738  0  0.111481  0.127165  0  0.980602  0
H  H95  1  0.11370121  0.75274012  0.29894295  1  0.05477  0  0.111494  0.127179  0  0.980542  0
H  H96  1  0.61369847  0.74726086  0.79894438  1  0.054639  0  0.111495  0.127203  0  0.980586  0
H  H97  1  0.88629882  0.24726434  0.70105693  1  0.054687  0  0.111497  0.127198  0  0.980612  0
H  H98  1  0.32228656  0.35335836  0.21734129  1  0.032445  0  0.107548  0.119759  0  0.978679  0
H  H99  1  0.17771146  0.85336047  0.28265816  1  0.032431  0  0.107529  0.119728  0  0.978731  0
H  H100  1  0.67770917  0.64664055  0.78265850  1  0.032497  0  0.107576  0.119809  0  0.978647  0
H  H101  1  0.82228714  0.14664399  0.71734200  1  0.032772  0  0.107541  0.11978  0  0.97865  0
H  H102  1  0.43572696  0.36534090  0.19325167  1  0.075373  0  0.116322  0.138471  0  0.999007  0
H  H103  1  0.06427325  0.86534083  0.30674856  1  0.075367  0  0.116299  0.138441  0  0.999037  0
H  H104  1  0.56427022  0.63466009  0.80674925  1  0.075315  0  0.1163  0.138443  0  0.999009  0
H  H105  1  0.93572679  0.13466293  0.69325227  1  0.075435  0  0.116316  0.138436  0  0.999023  0
H  H106  1  0.20724103  0.28141504  0.04712904  1  0.106123  0  0.113724  0.1312  0  0.997912  0
H  H107  1  0.29275968  0.78141739  0.45287061  1  0.106136  0  0.113765  0.131244  0  0.997888  0
H  H108  1  0.79275900  0.71858456  0.95287083  1  0.106134  0  0.113707  0.131143  0  0.997949  0
H  H109  1  0.70723963  0.21858290  0.54712870  1  0.106114  0  0.113748  0.131193  0  0.997924  0
H  H110  1  0.18088788  0.29389877  0.12608111  1  0.06567  0  0.105608  0.119974  0  0.991404  0
H  H111  1  0.31911286  0.79389875  0.37391810  1  0.065654  0  0.105631  0.120037  0  0.99136  0
H  H112  1  0.81911071  0.70610083  0.87391763  1  0.065693  0  0.105615  0.119981  0  0.991366  0
H  H113  1  0.68088574  0.20610224  0.62608159  1  0.065641  0  0.10561  0.119994  0  0.991337  0
H  H114  1  0.25211103  0.19854410  0.10885014  1  0.064688  0  0.104218  0.118128  0  0.991178  0
H  H115  1  0.24788876  0.69854542  0.39114922  1  0.064708  0  0.104197  0.118136  0  0.99127  0
H  H116  1  0.74788757  0.80145480  0.89114907  1  0.064694  0  0.104211  0.118111  0  0.991229  0
H  H117  1  0.75210912  0.30145627  0.60884895  1  0.064683  0  0.104202  0.118118  0  0.99124  0
H  H118  1  0.21719845  0.03912015  0.34174556  1  0.606847  0  0.320518  0.40425  0  0.875644  0
H  H119  1  0.28280096  0.53912329  0.15825580  1  0.606856  0  0.320494  0.4042  0  0.875672  0
H  H120  1  0.78280016  0.96087876  0.65825556  1  0.606837  0  0.320529  0.404246  0  0.875593  0
H  H121  1  0.71719980  0.46087701  0.84174512  1  0.606857  0  0.320497  0.404226  0  0.875637  0
H  H122  1  0.11931569  0.02807179  0.36448353  1  0.647686  0  0.300944  0.387251  0  0.939089  0
H  H123  1  0.38068369  0.52807223  0.13551780  1  0.647718  0  0.300945  0.387231  0  0.939108  0
H  H124  1  0.88068364  0.97192989  0.63551910  1  0.647704  0  0.300937  0.387218  0  0.939122  0
H  H125  1  0.61931635  0.47192807  0.86448302  1  0.647712  0  0.300952  0.387253  0  0.939084  0
H  H126  1  0.37352111  0.97430620  0.48945982  1  0.581142  0  0.316427  0.39977  0  0.880403  0
H  H127  1  0.12647721  0.47430701  0.01053943  1  0.58112  0  0.316419  0.399751  0  0.880452  0
H  H128  1  0.62647821  0.02569340  0.51054043  1  0.581146  0  0.316392  0.3997  0  0.880359  0
H  H129  1  0.87352211  0.52569398  0.98945987  1  0.58113  0  0.316439  0.399758  0  0.880438  0
H  H130  1  0.36743095  0.03395962  0.42403990  1  0.646757  0  0.26892  0.362404  0  0.999552  0
H  H131  1  0.13256700  0.53395937  0.07595984  1  0.646752  0  0.268936  0.362421  0  0.99953  0
H  H132  1  0.63256836  0.96604067  0.57596036  1  0.646682  0  0.268943  0.362398  0  0.999561  0
H  H133  1  0.86743160  0.46604093  0.92403985  1  0.646759  0  0.268939  0.362406  0  0.999551  0
Ir  Ir134  1  0.71312945  0.49974192  0.39146649  1  0.904713  0  0.734766  0.252581  0  5.032233  0
Ir  Ir135  1  0.78687201  0.99974138  0.10853486  1  0.904509  0  0.734784  0.252676  0  5.032217  0
Ir  Ir136  1  0.28687274  0.50026046  0.60853415  1  0.904411  0  0.734763  0.252529  0  5.032253  0
Ir  Ir137  1  0.21312802  0.00025892  0.89146501  1  0.904393  0  0.734753  0.252523  0  5.032309  0
C  C138  1  0.60886549  0.40642482  0.39299250  1  -0.151898  0  -0.129316  -0.120649  0  3.956931  0
C  C139  1  0.89113644  0.90642515  0.10700634  1  -0.151356  0  -0.129288  -0.120561  0  3.956921  0
C  C140  1  0.39113668  0.59357478  0.60700528  1  -0.151409  0  -0.129325  -0.120627  0  3.957008  0
C  C141  1  0.10886359  0.09357445  0.89299401  1  -0.151379  0  -0.129316  -0.12058  0  3.956898  0
C  C142  1  0.56674764  0.34564605  0.34270516  1  -0.026993  0  -0.11407  -0.115891  0  4.042607  0
C  C143  1  0.93325343  0.84564598  0.15729440  1  -0.027357  0  -0.114082  -0.115978  0  4.042703  0
C  C144  1  0.43325524  0.65435425  0.65729271  1  -0.027274  0  -0.114067  -0.115966  0  4.042635  0
C  C145  1  0.06674661  0.15435501  0.84270690  1  -0.027284  0  -0.114085  -0.116017  0  4.042567  0
C  C146  1  0.50699324  0.27333880  0.35330808  1  -0.066149  0  -0.091623  -0.089729  0  3.992034  0
C  C147  1  0.99300908  0.77334156  0.14669150  1  -0.065981  0  -0.09163  -0.089749  0  3.992146  0
C  C148  1  0.49301036  0.72665872  0.64668989  1  -0.066273  0  -0.091637  -0.089748  0  3.991931  0
C  C149  1  0.00699240  0.22666012  0.85330999  1  -0.066037  0  -0.091638  -0.089741  0  3.992029  0
C  C150  1  0.48231784  0.26135642  0.41424477  1  -0.023719  0  -0.040535  -0.064886  0  4.038132  0
C  C151  1  0.01768425  0.76135739  0.08575502  1  -0.024  0  -0.040504  -0.064755  0  4.038003  0
C  C152  1  0.51768504  0.73864180  0.58575310  1  -0.023645  0  -0.040526  -0.064912  0  4.038137  0
C  C153  1  0.98231651  0.23864360  0.91424590  1  -0.024004  0  -0.040519  -0.06481  0  4.038033  0
C  C154  1  0.51983980  0.32273344  0.46422189  1  -0.032767  0  -0.091415  -0.126115  0  3.972522  0
C  C155  1  0.98016192  0.82273431  0.03577675  1  -0.032813  0  -0.091484  -0.126223  0  3.972465  0
C  C156  1  0.48016092  0.67726547  0.53577475  1  -0.032851  0  -0.09147  -0.126161  0  3.972529  0
C  C157  1  0.01983884  0.17726668  0.96422417  1  -0.032842  0  -0.09145  -0.126111  0  3.972514  0
C  C158  1  0.58300136  0.39320636  0.45460654  1  -0.009533  0  -0.038671  -0.018179  0  4.057668  0
C  C159  1  0.91699839  0.89320508  0.04539199  1  -0.009494  0  -0.038712  -0.018301  0  4.057818  0
C  C160  1  0.41700009  0.60679463  0.54539115  1  -0.009484  0  -0.038718  -0.018253  0  4.057734  0
C  C161  1  0.08299950  0.10679521  0.95460808  1  -0.009491  0  -0.038693  -0.01828  0  4.057741  0
C  C162  1  0.62760943  0.45607834  0.50624902  1  0.417538  0  0.109225  0.190429  0  3.955785  0
C  C163  1  0.87239050  0.95607685  0.99374974  1  0.417268  0  0.109277  0.190542  0  3.955764  0
C  C164  1  0.37238987  0.54392195  0.49374886  1  0.417193  0  0.109298  0.190587  0  3.955621  0
C  C165  1  0.12760810  0.04392206  0.00624995  1  0.41766  0  0.109351  0.190698  0  3.955709  0
C  C166  1  0.60967001  0.45832713  0.56939816  1  -6.3e-05  0  -0.087965  -0.164475  0  3.95695  0
C  C167  1  0.89032707  0.95832540  0.93060166  1  0.000183  0  -0.087958  -0.164523  0  3.957031  0
C  C168  1  0.39032786  0.54167177  0.43060001  1  0.000369  0  -0.088013  -0.164576  0  3.957048  0
C  C169  1  0.10967082  0.04167351  0.06939889  1  -3.4e-05  0  -0.088005  -0.164639  0  3.957084  0
C  C170  1  0.65616936  0.52277317  0.61396546  1  -0.04943  0  -0.076102  -0.039064  0  4.015194  0
C  C171  1  0.84382951  0.02277253  0.88603465  1  -0.049419  0  -0.076155  -0.039156  0  4.015093  0
C  C172  1  0.34382780  0.47722435  0.38603309  1  -0.049912  0  -0.076073  -0.03908  0  4.014958  0
C  C173  1  0.15617123  0.97722430  0.11396532  1  -0.049935  0  -0.076117  -0.039113  0  4.015051  0
C  C174  1  0.72057523  0.58483161  0.59481664  1  -0.032392  0  -0.091724  -0.136023  0  4.003632  0
C  C175  1  0.77942525  0.08483093  0.90518571  1  -0.032156  0  -0.091604  -0.135846  0  4.003543  0
C  C176  1  0.27942338  0.41516661  0.40518447  1  -0.032286  0  -0.091694  -0.136006  0  4.003437  0
C  C177  1  0.22057478  0.91516797  0.09481417  1  -0.032341  0  -0.091618  -0.135877  0  4.003523  0
C  C178  1  0.73580866  0.57971854  0.53169258  1  0.435497  0  0.036265  0.064707  0  3.940857  0
C  C179  1  0.76419107  0.07971603  0.96830824  1  0.435181  0  0.036192  0.064735  0  3.940782  0
C  C180  1  0.26418994  0.42028176  0.46830758  1  0.435466  0  0.03623  0.064681  0  3.940984  0
C  C181  1  0.23580824  0.92028149  0.03169107  1  0.435238  0  0.036261  0.064792  0  3.940816  0
C  C182  1  0.41563903  0.18628205  0.42545234  1  1.542224  0  0.192961  0.565837  0  4.235283  0
C  C183  1  0.08436073  0.68628101  0.07454699  1  1.542505  0  0.193  0.565821  0  4.235259  0
C  C184  1  0.58436314  0.81371894  0.57454639  1  1.541919  0  0.192906  0.565765  0  4.235485  0
C  C185  1  0.91563859  0.31371859  0.92545279  1  1.542235  0  0.192948  0.565764  0  4.235374  0
C  C186  1  0.81439723  0.40235454  0.41737812  1  -0.143995  0  -0.123749  -0.109611  0  3.932679  0
C  C187  1  0.68560326  0.90235302  0.08262196  1  -0.14409  0  -0.123727  -0.109624  0  3.932536  0
C  C188  1  0.18560351  0.59764783  0.58262090  1  -0.144135  0  -0.123735  -0.10953  0  3.932567  0
C  C189  1  0.31439677  0.09764658  0.91737792  1  -0.143968  0  -0.123687  -0.109465  0  3.932487  0
C  C190  1  0.80299180  0.30599351  0.42580201  1  -0.037698  0  -0.111732  -0.109769  0  4.018249  0
C  C191  1  0.69700703  0.80598919  0.07419908  1  -0.037526  0  -0.111676  -0.109585  0  4.018296  0
C  C192  1  0.19700823  0.69401026  0.57419834  1  -0.037578  0  -0.111673  -0.109628  0  4.018155  0
C  C193  1  0.30299229  0.19400833  0.92580166  1  -0.037659  0  -0.111667  -0.109622  0  4.018231  0
C  C194  1  0.87990097  0.24472984  0.43317833  1  -0.117025  0  -0.094312  -0.098828  0  3.986323  0
C  C195  1  0.62009844  0.74472744  0.06682508  1  -0.117046  0  -0.094331  -0.098994  0  3.986686  0
C  C196  1  0.12009978  0.75527254  0.56682259  1  -0.117048  0  -0.094334  -0.098983  0  3.986572  0
C  C197  1  0.37990304  0.25527216  0.93317736  1  -0.117021  0  -0.094363  -0.09906  0  3.986507  0
C  C198  1  0.97309714  0.27757646  0.43378206  1  -0.024747  0  -0.042474  -0.078832  0  4.058837  0
C  C199  1  0.52690305  0.77757320  0.06621772  1  -0.024835  0  -0.042413  -0.078597  0  4.058591  0
C  C200  1  0.02690432  0.72242731  0.56621705  1  -0.024823  0  -0.042402  -0.078566  0  4.058495  0
C  C201  1  0.47309770  0.22242501  0.93378178  1  -0.02473  0  -0.042444  -0.078633  0  4.0586  0
C  C202  1  0.98700180  0.37279373  0.42705284  1  -0.056744  0  -0.083836  -0.112656  0  3.95771  0
C  C203  1  0.51299862  0.87279256  0.07294668  1  -0.056718  0  -0.083889  -0.11277  0  3.957692  0
C  C204  1  0.01299895  0.62720795  0.57294617  1  -0.056811  0  -0.083895  -0.112719  0  3.957713  0
C  C205  1  0.48700283  0.12720774  0.92705243  1  -0.056719  0  -0.083873  -0.11272  0  3.957625  0
C  C206  1  0.91007477  0.43432461  0.41968178  1  0.05933  0  -0.033453  -0.012198  0  4.046396  0
C  C207  1  0.58992507  0.93432360  0.08031542  1  0.059325  0  -0.033468  -0.01228  0  4.046444  0
C  C208  1  0.08992597  0.56567777  0.58031676  1  0.05938  0  -0.033524  -0.012493  0  4.046704  0
C  C209  1  0.41007423  0.06567600  0.91968198  1  0.059342  0  -0.033531  -0.012363  0  4.046459  0
C  C210  1  0.92248266  0.53384142  0.41169424  1  0.38287  0  0.114581  0.197192  0  3.95474  0
C  C211  1  0.57751835  0.03383832  0.08830468  1  0.382799  0  0.114542  0.197273  0  3.954715  0
C  C212  1  0.07751808  0.46616096  0.58830431  1  0.38282  0  0.114589  0.197319  0  3.954593  0
C  C213  1  0.42248238  0.96616128  0.91169339  1  0.382837  0  0.114541  0.197205  0  3.95479  0
C  C214  1  0.01079350  0.57839066  0.41567718  1  -0.031612  0  -0.084778  -0.159583  0  3.956341  0
C  C215  1  0.48920814  0.07838757  0.08432313  1  -0.031412  0  -0.084783  -0.159596  0  3.956203  0
C  C216  1  0.98920652  0.42161033  0.58432174  1  -0.03143  0  -0.084854  -0.159712  0  3.956365  0
C  C217  1  0.51079189  0.92160995  0.91567675  1  -0.031602  0  -0.084739  -0.159575  0  3.956278  0
C  C218  1  0.01380341  0.67382862  0.40819974  1  -0.045345  0  -0.080229  -0.038746  0  4.012919  0
C  C219  1  0.48619848  0.17382556  0.09180223  1  -0.044813  0  -0.080174  -0.038723  0  4.012786  0
C  C220  1  0.98619806  0.32617445  0.59180032  1  -0.044866  0  -0.080105  -0.03855  0  4.012965  0
C  C221  1  0.51380157  0.82617196  0.90820003  1  -0.045328  0  -0.080184  -0.038636  0  4.012937  0
C  C222  1  0.92844865  0.72442377  0.39634069  1  0.007334  0  -0.092019  -0.131059  0  3.981622  0
C  C223  1  0.57155359  0.22442003  0.10366400  1  0.007233  0  -0.092085  -0.131129  0  3.981305  0
C  C224  1  0.07155140  0.27557861  0.60366109  1  0.007255  0  -0.092112  -0.131199  0  3.981459  0
C  C225  1  0.42844719  0.77557748  0.89634025  1  0.00713  0  -0.092096  -0.131189  0  3.981559  0
C  C226  1  0.84289674  0.67678659  0.39311783  1  0.47429  0  0.041455  0.074881  0  3.925869  0
C  C227  1  0.65710465  0.17678233  0.10688475  1  0.474592  0  0.041522  0.074958  0  3.925654  0
C  C228  1  0.15710545  0.32321717  0.60688328  1  0.474602  0  0.041544  0.075  0  3.925759  0
C  C229  1  0.34289539  0.82321588  0.89311655  1  0.474624  0  0.04148  0.074873  0  3.925771  0
C  C230  1  0.05700343  0.21530488  0.44262888  1  1.505008  0  0.198457  0.579808  0  4.210182  0
C  C231  1  0.44299498  0.71530161  0.05737271  1  1.505166  0  0.198466  0.579776  0  4.210431  0
C  C232  1  0.94299589  0.78469750  0.55737138  1  1.505146  0  0.198458  0.579754  0  4.210302  0
C  C233  1  0.55700434  0.28469660  0.94262802  1  1.505014  0  0.198471  0.579819  0  4.21005  0
C  C234  1  0.71361370  0.47925731  0.29738995  1  -0.082721  0  -0.123519  -0.101273  0  3.936397  0
C  C235  1  0.78638770  0.97925787  0.20261040  1  -0.082508  0  -0.123523  -0.101295  0  3.936467  0
C  C236  1  0.28638849  0.52074160  0.70261069  1  -0.082601  0  -0.123541  -0.101285  0  3.936505  0
C  C237  1  0.21361304  0.02074173  0.79738861  1  -0.082518  0  -0.123531  -0.101273  0  3.936447  0
C  C238  1  0.76530087  0.41066454  0.27102670  1  -0.036435  0  -0.111992  -0.110507  0  4.03167  0
C  C239  1  0.73469892  0.91066582  0.22897235  1  -0.03647  0  -0.11203  -0.110589  0  4.031656  0
C  C240  1  0.23469843  0.58933159  0.72897166  1  -0.036653  0  -0.11201  -0.11062  0  4.031801  0
C  C241  1  0.26530111  0.08933308  0.77102752  1  -0.036389  0  -0.11201  -0.110609  0  4.031706  0
C  C242  1  0.75968236  0.40282736  0.20488130  1  -0.08309  0  -0.087883  -0.076893  0  3.981723  0
C  C243  1  0.74031528  0.90283102  0.29511935  1  -0.082958  0  -0.087942  -0.077002  0  3.981828  0
C  C244  1  0.24031410  0.59716877  0.79511858  1  -0.083014  0  -0.087927  -0.076924  0  3.981623  0
C  C245  1  0.25968475  0.09717066  0.70488005  1  -0.082968  0  -0.087918  -0.076935  0  3.981611  0
C  C246  1  0.70150486  0.46343858  0.16148646  1  -0.020966  0  -0.041989  -0.075359  0  4.039116  0
C  C247  1  0.79849150  0.96344392  0.33851415  1  -0.029683  0  -0.041931  -0.075154  0  4.039144  0
C  C248  1  0.29849303  0.53655547  0.83851361  1  -0.029173  0  -0.041896  -0.075204  0  4.039019  0
C  C249  1  0.20150638  0.03655707  0.66148544  1  -0.029498  0  -0.041995  -0.075272  0  4.03897  0
C  C250  1  0.64827441  0.53161214  0.18583631  1  -0.090468  0  -0.083184  -0.107112  0  3.93329  0
C  C251  1  0.85172231  0.03161745  0.31416394  1  -0.082097  0  -0.083239  -0.107303  0  3.933173  0
C  C252  1  0.35172419  0.46838468  0.81416338  1  -0.082089  0  -0.083201  -0.107136  0  3.933249  0
C  C253  1  0.14827629  0.96838493  0.68583527  1  -0.082196  0  -0.083188  -0.107154  0  3.933204  0
C  C254  1  0.65410193  0.53992335  0.25283702  1  -0.028431  0  -0.035766  -0.017925  0  4.034541  0
C  C255  1  0.84589552  0.03992488  0.24716335  1  -0.028432  0  -0.035759  -0.017874  0  4.034423  0
C  C256  1  0.34589738  0.46007487  0.74716229  1  -0.028541  0  -0.03578  -0.017943  0  4.034444  0
C  C257  1  0.15410379  0.96007541  0.75283644  1  -0.028503  0  -0.035763  -0.017883  0  4.034442  0
C  C258  1  0.60479522  0.61241936  0.28213393  1  0.474676  0  0.114565  0.195868  0  3.945903  0
C  C259  1  0.89520528  0.11241808  0.21786650  1  0.474565  0  0.11462  0.195966  0  3.94557  0
C  C260  1  0.39520553  0.38758024  0.71786556  1  0.474733  0  0.114541  0.195968  0  3.945833  0
C  C261  1  0.10479690  0.88758152  0.78213318  1  0.474677  0  0.114576  0.195934  0  3.945713  0
C  C262  1  0.54686440  0.68247154  0.24838389  1  0.043584  0  -0.080885  -0.151747  0  3.929233  0
C  C263  1  0.95313699  0.18247398  0.25161680  1  0.043582  0  -0.080895  -0.15174  0  3.929146  0
C  C264  1  0.45313706  0.31752806  0.75161522  1  0.043512  0  -0.080843  -0.151735  0  3.929269  0
C  C265  1  0.04686377  0.81752701  0.74838459  1  0.04359  0  -0.080903  -0.151793  0  3.929289  0
C  C266  1  0.51087548  0.75243575  0.28226504  1  -0.126123  0  -0.07397  -0.041263  0  4.007547  0
C  C267  1  0.98912680  0.25243324  0.21773544  1  -0.126174  0  -0.073924  -0.041273  0  4.007707  0
C  C268  1  0.48912885  0.24756524  0.71773492  1  -0.126085  0  -0.073905  -0.041275  0  4.00759  0
C  C269  1  0.01087395  0.74756705  0.78226453  1  -0.12613  0  -0.073945  -0.041298  0  4.007654  0
C  C270  1  0.53391393  0.75233250  0.35009165  1  -0.033782  0  -0.090061  -0.140679  0  4.010998  0
C  C271  1  0.96609122  0.25233105  0.14991016  1  -0.034009  0  -0.090075  -0.140595  0  4.010944  0
C  C272  1  0.46609039  0.24766987  0.64990784  1  -0.034356  0  -0.090145  -0.140707  0  4.011129  0
C  C273  1  0.03391026  0.74766855  0.85009133  1  -0.03401  0  -0.090029  -0.140521  0  4.010889  0
C  C274  1  0.58937477  0.68006496  0.38118520  1  0.450079  0  0.036502  0.057297  0  3.954437  0
C  C275  1  0.91062733  0.18006189  0.11881511  1  0.450132  0  0.036496  0.057203  0  3.954302  0
C  C276  1  0.41062813  0.31993395  0.61881506  1  0.450077  0  0.036538  0.05739  0  3.954404  0
C  C277  1  0.08937413  0.81993702  0.88118448  1  0.450121  0  0.036488  0.057184  0  3.954409  0
C  C278  1  0.70023846  0.45448886  0.09142064  1  1.520432  0  0.200432  0.581456  0  4.211452  0
C  C279  1  0.79976074  0.95449451  0.40858033  1  1.521339  0  0.200393  0.581344  0  4.211621  0
C  C280  1  0.29975800  0.54550727  0.90858020  1  1.520369  0  0.200361  0.581391  0  4.21168  0
C  C281  1  0.20024144  0.04550995  0.59141936  1  1.520731  0  0.200387  0.581441  0  4.211483  0
C  C282  1  0.35771428  0.37748964  0.07497153  1  1.36055  0  0.17547  0.297892  0  4.090533  0
C  C283  1  0.14228882  0.87749022  0.42502911  1  1.360265  0  0.175441  0.298019  0  4.090295  0
C  C284  1  0.64228289  0.62250649  0.92502844  1  1.359747  0  0.175484  0.297988  0  4.090586  0
C  C285  1  0.85771480  0.12251077  0.57497267  1  1.359779  0  0.175515  0.298096  0  4.090643  0
C  C286  1  0.36932905  0.32505355  0.18646948  1  0.307333  0  -0.128372  -0.28053  0  3.907205  0
C  C287  1  0.13067105  0.82505502  0.31353065  1  0.307338  0  -0.128356  -0.280474  0  3.90723  0
C  C288  1  0.63066813  0.67494605  0.81353144  1  0.307458  0  -0.128393  -0.280535  0  3.907273  0
C  C289  1  0.86932898  0.17494875  0.68646970  1  0.306996  0  -0.128349  -0.280504  0  3.907177  0
C  C290  1  0.23579590  0.27245728  0.09905429  1  0.234869  0  -0.127778  -0.275797  0  3.913849  0
C  C291  1  0.26420478  0.77245797  0.40094486  1  0.234858  0  -0.127806  -0.275907  0  3.913922  0
C  C292  1  0.76420270  0.72754232  0.90094539  1  0.234871  0  -0.127766  -0.275669  0  3.913895  0
C  C293  1  0.73579525  0.22754302  0.59905454  1  0.234905  0  -0.12777  -0.275786  0  3.913819  0
N  N294  1  0.69131782  0.51716860  0.48847651  1  -1.185172  0  -0.325785  -0.17491  0  3.605968  0
N  N295  1  0.80868173  0.01716558  0.01152455  1  -1.185123  0  -0.325781  -0.174932  0  3.605888  0
N  N296  1  0.30868149  0.48283238  0.51152279  1  -1.185137  0  -0.325762  -0.174897  0  3.606034  0
N  N297  1  0.19131616  0.98283333  0.98847599  1  -1.185091  0  -0.325882  -0.175122  0  3.60612  0
N  N298  1  0.83942997  0.58401580  0.40056471  1  -1.198244  0  -0.319701  -0.167247  0  3.581277  0
N  N299  1  0.66057118  0.08401359  0.09943670  1  -1.198337  0  -0.319682  -0.167331  0  3.581476  0
N  N300  1  0.16057078  0.41598658  0.59943574  1  -1.19831  0  -0.319671  -0.167265  0  3.58134  0
N  N301  1  0.33942885  0.91598601  0.90056317  1  -1.198319  0  -0.31966  -0.167236  0  3.581341  0
N  N302  1  0.62250772  0.61073927  0.34860536  1  -1.240238  0  -0.32432  -0.174669  0  3.597744  0
N  N303  1  0.87749349  0.11073905  0.15139517  1  -1.240199  0  -0.324349  -0.174735  0  3.597786  0
N  N304  1  0.37749518  0.38925894  0.65139489  1  -1.240148  0  -0.324299  -0.174771  0  3.597657  0
N  N305  1  0.12250726  0.88926124  0.84860480  1  -1.240189  0  -0.324335  -0.174683  0  3.59775  0
N  N306  1  0.32188506  0.32824175  0.11856386  1  -1.205442  0  -0.286107  0.022483  0  3.737903  0
N  N307  1  0.17811504  0.82824290  0.38143486  1  -1.205196  0  -0.286051  0.022458  0  3.738016  0
N  N308  1  0.67811354  0.67175785  0.88143631  1  -1.204593  0  -0.286119  0.022279  0  3.738059  0
N  N309  1  0.82188499  0.17175947  0.61856454  1  -1.204622  0  -0.286098  0.022439  0  3.737915  0
O  O310  1  0.40434770  0.11553562  0.38807863  1  -1.199737  0  -0.353033  -0.582814  0  2.126418  0
O  O311  1  0.09564831  0.61553476  0.11192102  1  -1.199732  0  -0.353094  -0.582856  0  2.126343  0
O  O312  1  0.59565090  0.88446398  0.61192106  1  -1.199418  0  -0.353049  -0.582825  0  2.126371  0
O  O313  1  0.90434815  0.38446415  0.88807934  1  -1.199726  0  -0.353045  -0.582813  0  2.126414  0
O  O314  1  0.37273730  0.19808416  0.47315847  1  -1.169797  0  -0.34568  -0.580517  0  2.255943  0
O  O315  1  0.12726464  0.69808299  0.02684212  1  -1.169855  0  -0.345692  -0.580524  0  2.255998  0
O  O316  1  0.62726702  0.80191683  0.52684102  1  -1.169655  0  -0.345637  -0.580463  0  2.25616  0
O  O317  1  0.87273396  0.30191592  0.97315756  1  -1.169689  0  -0.345693  -0.580521  0  2.256009  0
O  O318  1  0.04865949  0.12764079  0.45232616  1  -1.203355  0  -0.350705  -0.62902  0  2.378534  0
O  O319  1  0.45134158  0.62763680  0.04767608  1  -1.203431  0  -0.350714  -0.629035  0  2.378581  0
O  O320  1  0.95134055  0.87236229  0.54767420  1  -1.203413  0  -0.350728  -0.62907  0  2.378612  0
O  O321  1  0.54865988  0.37236141  0.95232351  1  -1.203383  0  -0.350718  -0.629037  0  2.378496  0
O  O322  1  0.13874532  0.24976372  0.44013549  1  -1.149577  0  -0.321953  -0.545111  0  2.248842  0
O  O323  1  0.36125460  0.74976033  0.05986495  1  -1.149584  0  -0.321941  -0.545078  0  2.249088  0
O  O324  1  0.86125542  0.75023865  0.55986401  1  -1.14953  0  -0.321939  -0.54508  0  2.249032  0
O  O325  1  0.63874688  0.25023788  0.94013654  1  -1.149608  0  -0.32195  -0.54513  0  2.248872  0
O  O326  1  0.74938624  0.38878121  0.07350444  1  -1.143938  0  -0.32583  -0.549057  0  2.271387  0
O  O327  1  0.75061638  0.88878477  0.42649779  1  -1.144317  0  -0.32582  -0.54905  0  2.271639  0
O  O328  1  0.25060950  0.61121492  0.92649583  1  -1.143969  0  -0.325783  -0.549062  0  2.271624  0
O  O329  1  0.24939082  0.11121761  0.57350398  1  -1.144047  0  -0.325786  -0.549086  0  2.271505  0
O  O330  1  0.65259874  0.51275842  0.05098063  1  -1.203886  0  -0.351357  -0.628953  0  2.362448  0
O  O331  1  0.84740150  0.01276569  0.44901862  1  -1.204031  0  -0.351338  -0.628917  0  2.362339  0
O  O332  1  0.34739986  0.48723909  0.94901953  1  -1.203893  0  -0.351332  -0.628928  0  2.362419  0
O  O333  1  0.15260066  0.98724154  0.55097869  1  -1.203875  0  -0.351303  -0.628925  0  2.362399  0
O  O334  1  0.43196825  0.42704097  0.08870877  1  -1.175277  0  -0.305868  -0.492702  0  2.31114  0
O  O335  1  0.06803283  0.92704344  0.41129313  1  -1.175221  0  -0.305915  -0.492816  0  2.310945  0
O  O336  1  0.56803251  0.57295794  0.91129263  1  -1.175364  0  -0.305859  -0.492662  0  2.311336  0
O  O337  1  0.93196721  0.07296101  0.58870864  1  -1.17531  0  -0.305946  -0.492847  0  2.311343  0
O  O338  1  0.16629323  0.07406543  0.35563850  1  -1.20819  0  -0.569197  -0.726426  0  2.01654  0
O  O339  1  0.33370555  0.57406582  0.14436238  1  -1.208231  0  -0.569159  -0.72634  0  2.016536  0
O  O340  1  0.83370681  0.92593556  0.64436280  1  -1.208202  0  -0.569182  -0.726364  0  2.016539  0
O  O341  1  0.66629449  0.42593378  0.85563845  1  -1.208225  0  -0.569165  -0.726379  0  2.016487  0
O  O342  1  0.33098109  0.98798964  0.44828417  1  -1.228223  0  -0.586897  -0.782494  0  2.035643  0
O  O343  1  0.16901798  0.48798932  0.05171569  1  -1.228199  0  -0.586885  -0.78247  0  2.035694  0
O  O344  1  0.66901895  0.01201135  0.55171666  1  -1.228153  0  -0.586858  -0.782392  0  2.035575  0
O  O345  1  0.83098134  0.51201097  0.94828457  1  -1.228218  0  -0.586911  -0.782474  0  2.035706  0
