# generated using pymatgen
data_Mg3H22(C15O8)2
_symmetry_space_group_name_H-M   'P 1'
_cell_length_a   14.86781791
_cell_length_b   19.12460340
_cell_length_c   19.11913903
_cell_angle_alpha   113.54220900
_cell_angle_beta   105.02575381
_cell_angle_gamma   105.02201304
_symmetry_Int_Tables_number   1
_chemical_formula_structural   Mg3H22(C15O8)2
_chemical_formula_sum   'Mg9 H66 C90 O48'
_cell_volume   4390.97832692
_cell_formula_units_Z   3
loop_
 _symmetry_equiv_pos_site_id
 _symmetry_equiv_pos_as_xyz
  1  'x, y, z'
loop_
 _atom_site_type_symbol
 _atom_site_label
 _atom_site_symmetry_multiplicity
 _atom_site_fract_x
 _atom_site_fract_y
 _atom_site_fract_z
 _atom_site_occupancy
 _atom_site_pbe_bader_charge
 _atom_site_pbe_bader_spin_density
 _atom_site_pbe_cm5_charge
 _atom_site_pbe_ddec_charge
 _atom_site_pbe_ddec_spin_density
 _atom_site_pbe_ddec_sum_bond_order
 _atom_site_pbe_magmom
Mg  Mg0  1  0.49999952  0.49999990  0.99999929  1  1.711283  0  0.809063  1.41807  0  1.343177  0
Mg  Mg1  1  0.49999926  0.99999821  0.50000191  1  1.712527  0  0.809311  1.415565  0  1.347376  0
Mg  Mg2  1  0.00000139  0.49999956  0.50000054  1  1.710572  0  0.809378  1.41524  0  1.34822  0
Mg  Mg3  1  0.58112688  0.66835100  0.96731239  1  1.674712  0  0.826702  1.34051  0  1.47709  0
Mg  Mg4  1  0.61376371  0.03272106  0.70107246  1  1.672615  0  0.826721  1.340367  0  1.477422  0
Mg  Mg5  1  0.91284787  0.29889038  0.33162232  1  1.673678  0  0.826313  1.33992  0  1.477952  0
Mg  Mg6  1  0.41887511  0.33165256  0.03269067  1  1.67467  0  0.826655  1.340497  0  1.477232  0
Mg  Mg7  1  0.38623956  0.96727812  0.29893226  1  1.672642  0  0.826701  1.34044  0  1.477372  0
Mg  Mg8  1  0.08715225  0.70110943  0.66837573  1  1.673736  0  0.826333  1.339954  0  1.477821  0
H  H9  1  0.51871716  0.81705588  0.18814880  1  0.08778  0  0.099622  0.103083  0  1.024906  0
H  H10  1  0.33049506  0.81181051  0.62909677  1  0.115441  0  0.099831  0.102931  0  1.025915  0
H  H11  1  0.70184183  0.37096526  0.18271589  1  0.075401  0  0.099618  0.102978  0  1.026175  0
H  H12  1  0.48128398  0.18295018  0.81185560  1  0.087802  0  0.099651  0.103068  0  1.024956  0
H  H13  1  0.66949993  0.18818742  0.37090262  1  0.115367  0  0.099804  0.102867  0  1.026001  0
H  H14  1  0.29815184  0.62903705  0.81729334  1  0.075351  0  0.099644  0.102938  0  1.026288  0
H  H15  1  0.62350279  0.81781833  0.41977705  1  0.098584  0  0.109161  0.114902  0  0.999804  0
H  H16  1  0.20392229  0.58019983  0.39825702  1  0.112162  0  0.109334  0.11537  0  1.000242  0
H  H17  1  0.80597516  0.60181817  0.18207753  1  0.096074  0  0.109235  0.115216  0  1.000447  0
H  H18  1  0.37650073  0.18218272  0.58022689  1  0.098649  0  0.109148  0.114849  0  0.999854  0
H  H19  1  0.79607599  0.41980185  0.60173983  1  0.11218  0  0.109345  0.115354  0  1.00019  0
H  H20  1  0.19401968  0.39818226  0.81792597  1  0.095992  0  0.109223  0.115233  0  1.000395  0
H  H21  1  0.65621407  0.64948890  0.20475564  1  0.122036  0  0.111142  0.116059  0  1.020249  0
H  H22  1  0.45151996  0.79520493  0.44494000  1  0.087557  0  0.111689  0.117578  0  1.018263  0
H  H23  1  0.00705821  0.55507978  0.35025461  1  0.095552  0  0.111376  0.116488  0  1.019049  0
H  H24  1  0.34378559  0.35051278  0.79524410  1  0.122049  0  0.111132  0.116044  0  1.020331  0
H  H25  1  0.54848418  0.20479738  0.55506405  1  0.08765  0  0.111708  0.11763  0  1.018214  0
H  H26  1  0.99293680  0.44492378  0.64974964  1  0.095422  0  0.111363  0.116562  0  1.018921  0
H  H27  1  0.75349286  0.69735012  0.97778895  1  0.643117  0  0.322156  0.404326  0  0.900142  0
H  H28  1  0.77571343  0.02232908  0.71969608  1  0.63637  0  0.322473  0.404671  0  0.899817  0
H  H29  1  0.05606294  0.28029040  0.30249445  1  0.629608  0  0.322418  0.404561  0  0.900214  0
H  H30  1  0.24649898  0.30264281  0.02219473  1  0.643084  0  0.322236  0.404383  0  0.900058  0
H  H31  1  0.22427658  0.97765197  0.28030080  1  0.635732  0  0.322404  0.40459  0  0.899975  0
H  H32  1  0.94393434  0.71971066  0.69749776  1  0.629363  0  0.322351  0.404459  0  0.900333  0
H  H33  1  0.76694191  0.79056148  0.01262448  1  0.598976  0  0.335786  0.412741  0  0.864844  0
H  H34  1  0.75426640  0.98764921  0.77817958  1  0.597162  0  0.335827  0.409138  0  0.871488  0
H  H35  1  0.97607666  0.22185702  0.20928585  1  0.602109  0  0.336057  0.410057  0  0.87042  0
H  H36  1  0.23306324  0.20943582  0.98736732  1  0.599018  0  0.335821  0.412812  0  0.864879  0
H  H37  1  0.24573452  0.01234810  0.22183019  1  0.597422  0  0.335846  0.409204  0  0.871487  0
H  H38  1  0.02391430  0.77813841  0.79071173  1  0.602251  0  0.33605  0.410086  0  0.870384  0
H  H39  1  0.51233949  0.74926844  0.90267338  1  0.625036  0  0.349137  0.428421  0  0.842879  0
H  H40  1  0.60924022  0.09728310  0.84644998  1  0.620636  0  0.349142  0.427389  0  0.844071  0
H  H41  1  0.76263533  0.15361605  0.25073481  1  0.612075  0  0.349219  0.428433  0  0.843282  0
H  H42  1  0.48765863  0.25073575  0.09732862  1  0.624226  0  0.349091  0.428372  0  0.843042  0
H  H43  1  0.39075619  0.90270795  0.15355114  1  0.620594  0  0.349174  0.427472  0  0.844067  0
H  H44  1  0.23736662  0.84638876  0.74925880  1  0.612018  0  0.34925  0.428449  0  0.843175  0
H  H45  1  0.54307370  0.69155823  0.83971528  1  0.634788  0  0.349461  0.426947  0  0.845524  0
H  H46  1  0.70301587  0.16032974  0.85196179  1  0.643562  0  0.34936  0.426319  0  0.844953  0
H  H47  1  0.85086834  0.14796395  0.30816881  1  0.622158  0  0.34925  0.426396  0  0.84503  0
H  H48  1  0.45692702  0.30844283  0.16028966  1  0.634716  0  0.349461  0.426977  0  0.845374  0
H  H49  1  0.29698146  0.83966319  0.14804550  1  0.643384  0  0.349246  0.426224  0  0.845169  0
H  H50  1  0.14912489  0.85202897  0.69181672  1  0.621938  0  0.349239  0.426337  0  0.844991  0
H  H51  1  0.79181053  0.82856463  0.47672176  1  0.037339  0  0.101611  0.102785  0  0.999912  0
H  H52  1  0.31545176  0.52334846  0.35220015  1  0.055942  0  0.10154  0.103176  0  0.999872  0
H  H53  1  0.96370775  0.64790757  0.17121934  1  0.048892  0  0.101678  0.102697  0  1.000203  0
H  H54  1  0.20820422  0.17143517  0.52327665  1  0.036909  0  0.101641  0.102785  0  0.999883  0
H  H55  1  0.68454272  0.47665259  0.64779463  1  0.055753  0  0.101527  0.10319  0  0.999822  0
H  H56  1  0.03629225  0.35208786  0.82878322  1  0.048799  0  0.101641  0.102653  0  1.000253  0
H  H57  1  0.90158086  0.78716051  0.56056516  1  0.096756  0  0.094917  0.093372  0  1.020921  0
H  H58  1  0.34128383  0.43941432  0.22692494  1  0.05187  0  0.095106  0.093562  0  1.020162  0
H  H59  1  0.11477867  0.77328766  0.21278047  1  0.050281  0  0.094842  0.093316  0  1.019493  0
H  H60  1  0.09843668  0.21283367  0.43942373  1  0.095963  0  0.094891  0.093286  0  1.020956  0
H  H61  1  0.65871129  0.56058799  0.77306942  1  0.052  0  0.095045  0.094106  0  1.019512  0
H  H62  1  0.88522866  0.22670152  0.78721795  1  0.050302  0  0.094785  0.093241  0  1.019606  0
H  H63  1  0.74980784  0.53284043  0.35943008  1  0.090724  0  0.101869  0.103195  0  1.018598  0
H  H64  1  0.38993989  0.64014997  0.17322403  1  0.065159  0  0.101564  0.103399  0  1.017316  0
H  H65  1  0.21670258  0.82698386  0.46731233  1  0.071651  0  0.101685  0.103269  0  1.017781  0
H  H66  1  0.25019175  0.46715688  0.64056006  1  0.090432  0  0.10184  0.103113  0  1.018641  0
H  H67  1  0.61005633  0.35985733  0.82677568  1  0.065294  0  0.101579  0.103373  0  1.017198  0
H  H68  1  0.78329281  0.17301907  0.53269123  1  0.071714  0  0.101706  0.103344  0  1.017786  0
H  H69  1  0.63559505  0.57246597  0.27622295  1  0.086926  0  0.101668  0.105807  0  1.008923  0
H  H70  1  0.35895641  0.72339191  0.29605600  1  0.04674  0  0.101352  0.105961  0  1.009322  0
H  H71  1  0.06298723  0.70398271  0.42748101  1  0.045025  0  0.101572  0.106105  0  1.008467  0
H  H72  1  0.36440532  0.42753571  0.72377171  1  0.087243  0  0.101727  0.105945  0  1.008891  0
H  H73  1  0.64104366  0.27661478  0.70394687  1  0.046892  0  0.101396  0.106016  0  1.009328  0
H  H74  1  0.93700222  0.29602647  0.57252697  1  0.045313  0  0.101562  0.106051  0  1.008525  0
C  C75  1  0.58629675  0.73028093  0.18834309  1  -0.040624  0  -0.015032  -0.030198  0  4.003032  0
C  C76  1  0.39799013  0.81162370  0.54216828  1  0.035025  0  -0.015556  -0.030526  0  4.001211  0
C  C77  1  0.85627399  0.45787209  0.26944053  1  -0.018632  0  -0.015173  -0.029463  0  4.003608  0
C  C78  1  0.41370384  0.26972263  0.81165968  1  -0.041309  0  -0.015044  -0.030289  0  4.002977  0
C  C79  1  0.60200825  0.18837549  0.45783597  1  0.034869  0  -0.015519  -0.0304  0  4.001122  0
C  C80  1  0.14372426  0.54212959  0.73056207  1  -0.017991  0  -0.015168  -0.029402  0  4.003356  0
C  C81  1  0.55347653  0.79228820  0.22464780  1  -0.012265  0  -0.077542  -0.102363  0  3.941188  0
C  C82  1  0.32886787  0.77530511  0.56786562  1  -0.065961  0  -0.077233  -0.101935  0  3.943178  0
C  C83  1  0.76140374  0.43218902  0.20743635  1  -0.041663  0  -0.077337  -0.102636  0  3.945991  0
C  C84  1  0.44652691  0.20771410  0.77535767  1  -0.011937  0  -0.077652  -0.102442  0  3.94118  0
C  C85  1  0.67113256  0.22469532  0.43213274  1  -0.065668  0  -0.077237  -0.101868  0  3.942924  0
C  C86  1  0.23859336  0.56781454  0.79256990  1  -0.040953  0  -0.077343  -0.102554  0  3.94591  0
C  C87  1  0.56469340  0.82222443  0.30736981  1  -0.027394  0  -0.019723  -0.041282  0  3.988545  0
C  C88  1  0.25742391  0.69260272  0.51506758  1  0.011405  0  -0.019464  -0.040387  0  3.987142  0
C  C89  1  0.74266106  0.48495693  0.17753209  1  -0.029431  0  -0.019817  -0.041038  0  3.987182  0
C  C90  1  0.43530873  0.17777662  0.69263332  1  -0.024138  0  -0.019675  -0.041213  0  3.988388  0
C  C91  1  0.74257528  0.30739521  0.48492900  1  0.011157  0  -0.01942  -0.040364  0  3.98691  0
C  C92  1  0.25733655  0.51504351  0.82247406  1  -0.030702  0  -0.01984  -0.041152  0  3.98721  0
C  C93  1  0.61381999  0.79264568  0.35477778  1  -0.048773  0  -0.07083  -0.123574  0  3.908166  0
C  C94  1  0.25923115  0.64516168  0.43809097  1  -0.070001  0  -0.070691  -0.124191  0  3.905268  0
C  C95  1  0.82144100  0.56195520  0.20715623  1  -0.028444  0  -0.070844  -0.123785  0  3.908497  0
C  C96  1  0.38618347  0.20735662  0.64522351  1  -0.048689  0  -0.07083  -0.123499  0  3.908054  0
C  C97  1  0.74076795  0.35483750  0.56190871  1  -0.070059  0  -0.070755  -0.124242  0  3.905207  0
C  C98  1  0.17855214  0.43804460  0.79284614  1  -0.028004  0  -0.070828  -0.123839  0  3.908471  0
C  C99  1  0.64792523  0.73055422  0.31913801  1  0.003826  0  -0.003117  0.063123  0  3.999783  0
C  C100  1  0.32894693  0.68079369  0.41161652  1  -0.041776  0  -0.003677  0.061413  0  3.996846  0
C  C101  1  0.91767142  0.58839916  0.26922430  1  0.00341  0  -0.003228  0.062471  0  4.000495  0
C  C102  1  0.35207790  0.26944746  0.68086453  1  0.004075  0  -0.003107  0.063169  0  3.999601  0
C  C103  1  0.67105709  0.31921112  0.58838326  1  -0.041968  0  -0.003628  0.061586  0  3.996843  0
C  C104  1  0.08232095  0.41160190  0.73077789  1  0.003236  0  -0.003262  0.062647  0  4.000536  0
C  C105  1  0.63101707  0.69784790  0.23455714  1  -0.004323  0  -0.064707  -0.111211  0  3.880559  0
C  C106  1  0.39658809  0.76538804  0.46350707  1  -0.037027  0  -0.065063  -0.112077  0  3.875051  0
C  C107  1  0.93350203  0.53649637  0.30187913  1  0.017954  0  -0.064665  -0.111366  0  3.878851  0
C  C108  1  0.36898352  0.30215566  0.76544615  1  -0.004052  0  -0.06469  -0.111142  0  3.880474  0
C  C109  1  0.60341574  0.23461364  0.53649457  1  -0.036842  0  -0.065133  -0.112316  0  3.8751  0
C  C110  1  0.06649520  0.46350469  0.69812720  1  0.018055  0  -0.064664  -0.111584  0  3.878798  0
C  C111  1  0.57801040  0.70325839  0.10195469  1  1.513194  0  0.215532  0.611497  0  4.158655  0
C  C112  1  0.47592491  0.89809008  0.60148244  1  1.527806  0  0.21427  0.60969  0  4.161823  0
C  C113  1  0.87477976  0.39854881  0.29660372  1  1.519906  0  0.21399  0.609331  0  4.161074  0
C  C114  1  0.42199507  0.29674516  0.89804699  1  1.513131  0  0.215513  0.611513  0  4.158236  0
C  C115  1  0.52407620  0.10191036  0.39852233  1  1.527882  0  0.214201  0.609598  0  4.162018  0
C  C116  1  0.12522098  0.60145224  0.70339600  1  1.519502  0  0.213951  0.609289  0  4.161102  0
C  C117  1  0.52133766  0.88407348  0.34257704  1  1.589194  0  0.227385  0.639506  0  4.182406  0
C  C118  1  0.17870788  0.65742046  0.54157478  1  1.584806  0  0.226107  0.638242  0  4.183432  0
C  C119  1  0.63741749  0.45840014  0.11574445  1  1.582836  0  0.225927  0.637874  0  4.181956  0
C  C120  1  0.47866716  0.11592883  0.65743290  1  1.58625  0  0.227482  0.639492  0  4.182357  0
C  C121  1  0.82128946  0.34257935  0.45842217  1  1.585226  0  0.226019  0.638147  0  4.183343  0
C  C122  1  0.36258165  0.54160467  0.88425435  1  1.58271  0  0.225954  0.638027  0  4.181583  0
C  C123  1  0.70634589  0.70342487  0.37038806  1  -0.017487  0  -0.001912  0.08071  0  3.991032  0
C  C124  1  0.33595958  0.62948346  0.33315157  1  -0.01215  0  -0.001537  0.082937  0  3.989234  0
C  C125  1  0.00313042  0.66687680  0.29642256  1  -0.005705  0  -0.001955  0.080685  0  3.991115  0
C  C126  1  0.29365687  0.29657744  0.62961256  1  -0.017522  0  -0.001917  0.080681  0  3.991067  0
C  C127  1  0.66404210  0.37051948  0.66684804  1  -0.012512  0  -0.001514  0.082811  0  3.989199  0
C  C128  1  0.99686814  0.33312551  0.70358296  1  -0.005659  0  -0.00191  0.080489  0  3.991078  0
C  C129  1  0.78055307  0.76322679  0.45161513  1  -0.001619  0  -0.093973  -0.137242  0  3.99347  0
C  C130  1  0.32908649  0.54832726  0.31182939  1  -0.061777  0  -0.093816  -0.138201  0  3.992117  0
C  C131  1  0.01765907  0.68824699  0.23662506  1  -0.055413  0  -0.093841  -0.136674  0  3.993371  0
C  C132  1  0.21945573  0.23677364  0.54838127  1  -0.001362  0  -0.094091  -0.137387  0  3.993603  0
C  C133  1  0.67091267  0.45167755  0.68816679  1  -0.061803  0  -0.09386  -0.138202  0  3.992165  0
C  C134  1  0.98234187  0.31175032  0.76337738  1  -0.055187  0  -0.09377  -0.136484  0  3.993205  0
C  C135  1  0.84262139  0.74051380  0.49830789  1  -0.152229  0  -0.092465  -0.092259  0  4.017567  0
C  C136  1  0.34442449  0.50159001  0.24240345  1  -0.01064  0  -0.092382  -0.092432  0  4.015696  0
C  C137  1  0.10238031  0.75772269  0.25942235  1  -0.014419  0  -0.092166  -0.09158  0  4.015704  0
C  C138  1  0.15738802  0.25948225  0.50168428  1  -0.151674  0  -0.092289  -0.092025  0  4.017505  0
C  C139  1  0.65556993  0.49841229  0.75758973  1  -0.010349  0  -0.092336  -0.092945  0  4.015609  0
C  C140  1  0.89762268  0.24226899  0.74057932  1  -0.014731  0  -0.092208  -0.091727  0  4.015627  0
C  C141  1  0.83298422  0.65757484  0.46508706  1  0.039099  0  -0.025105  -0.054755  0  3.975768  0
C  C142  1  0.36783536  0.53469014  0.19252597  1  -0.002194  0  -0.02478  -0.053935  0  3.976284  0
C  C143  1  0.17554070  0.80763575  0.34248280  1  -0.040124  0  -0.025376  -0.056879  0  3.977497  0
C  C144  1  0.16702139  0.34242059  0.53490617  1  0.039469  0  -0.02524  -0.054694  0  3.975818  0
C  C145  1  0.63216208  0.46531404  0.80747013  1  -0.002607  0  -0.024747  -0.053976  0  3.976584  0
C  C146  1  0.82445843  0.19235656  0.65751834  1  -0.040517  0  -0.025402  -0.05667  0  3.977239  0
C  C147  1  0.75738345  0.59721112  0.38499209  1  -0.043853  0  -0.083798  -0.081013  0  3.983252  0
C  C148  1  0.37208684  0.61466366  0.21212598  1  -0.016501  0  -0.083023  -0.080288  0  3.982579  0
C  C149  1  0.16009702  0.78801358  0.40283833  1  -0.038686  0  -0.082933  -0.078805  0  3.981372  0
C  C150  1  0.24261412  0.40278493  0.61499766  1  -0.043421  0  -0.083764  -0.080956  0  3.983356  0
C  C151  1  0.62790876  0.38534240  0.78787049  1  -0.016333  0  -0.083029  -0.08011  0  3.982473  0
C  C152  1  0.83989953  0.21198748  0.59716419  1  -0.038265  0  -0.082992  -0.079144  0  3.981507  0
C  C153  1  0.69446097  0.61982158  0.33844803  1  -0.066002  0  -0.089317  -0.131569  0  3.964827  0
C  C154  1  0.35573005  0.66124514  0.28129336  1  -0.010753  0  -0.089768  -0.133582  0  3.966944  0
C  C155  1  0.07461649  0.71876417  0.38012926  1  0.002188  0  -0.089489  -0.132796  0  3.96583  0
C  C156  1  0.30554271  0.38017697  0.66154868  1  -0.066612  0  -0.089381  -0.131755  0  3.964965  0
C  C157  1  0.64426745  0.33875779  0.71870592  1  -0.010727  0  -0.089734  -0.133576  0  3.966862  0
C  C158  1  0.92537379  0.28123689  0.61987303  1  0.002008  0  -0.089346  -0.132371  0  3.965648  0
C  C159  1  0.90629435  0.63662592  0.51460281  1  1.569614  0  0.227527  0.63615  0  4.166315  0
C  C160  1  0.39175404  0.48524673  0.12210080  1  1.551555  0  0.227858  0.636953  0  4.167454  0
C  C161  1  0.26985440  0.87808291  0.36352024  1  1.561777  0  0.227016  0.635996  0  4.16883  0
C  C162  1  0.09370369  0.36337388  0.48539324  1  1.569507  0  0.227386  0.635869  0  4.166818  0
C  C163  1  0.60824679  0.51476558  0.87789348  1  1.551872  0  0.227934  0.636996  0  4.167108  0
C  C164  1  0.73015339  0.12191003  0.63648709  1  1.563855  0  0.22697  0.635799  0  4.168856  0
O  O165  1  0.58148720  0.63299295  0.05795964  1  -1.277037  0  -0.36973  -0.703776  0  2.2771  0
O  O166  1  0.52347422  0.94192004  0.57512579  1  -1.271735  0  -0.368897  -0.702208  0  2.279339  0
O  O167  1  0.94849618  0.42487441  0.36691089  1  -1.267653  0  -0.369208  -0.70259  0  2.279748  0
O  O168  1  0.41851603  0.36701311  0.94204571  1  -1.277105  0  -0.36968  -0.703775  0  2.276833  0
O  O169  1  0.47652999  0.05808101  0.42487986  1  -1.271941  0  -0.368896  -0.702239  0  2.279513  0
O  O170  1  0.05150595  0.57512665  0.63309173  1  -1.267596  0  -0.369152  -0.702532  0  2.279732  0
O  O171  1  0.57153047  0.75147756  0.07191977  1  -1.219274  0  -0.372839  -0.634524  0  2.088614  0
O  O172  1  0.49928555  0.92833082  0.67976123  1  -1.222064  0  -0.372307  -0.634129  0  2.086757  0
O  O173  1  0.81987860  0.32029304  0.24848613  1  -1.21841  0  -0.371852  -0.633588  0  2.087726  0
O  O174  1  0.42848182  0.24852850  0.92808586  1  -1.219275  0  -0.372808  -0.634463  0  2.088463  0
O  O175  1  0.50071284  0.07166836  0.32024145  1  -1.22201  0  -0.372229  -0.634062  0  2.086704  0
O  O176  1  0.18012260  0.67970614  0.75151241  1  -1.218464  0  -0.371845  -0.633591  0  2.087781  0
O  O177  1  0.54144478  0.91824666  0.41985257  1  -1.220875  0  -0.342398  -0.638354  0  2.247776  0
O  O178  1  0.12170640  0.58014668  0.49855784  1  -1.231235  0  -0.341921  -0.637551  0  2.248518  0
O  O179  1  0.62337951  0.50146863  0.08157863  1  -1.217358  0  -0.341896  -0.637879  0  2.246654  0
O  O180  1  0.45855175  0.08174877  0.58014457  1  -1.220943  0  -0.342537  -0.638508  0  2.247254  0
O  O181  1  0.87829628  0.41985688  0.50144536  1  -1.231265  0  -0.341916  -0.637554  0  2.248308  0
O  O182  1  0.37661614  0.49852367  0.91842180  1  -1.217346  0  -0.342024  -0.638146  0  2.245967  0
O  O183  1  0.46456381  0.89637644  0.28971964  1  -1.271153  0  -0.391221  -0.715937  0  2.28614  0
O  O184  1  0.17451719  0.71033985  0.60657383  1  -1.261985  0  -0.390837  -0.715784  0  2.28642  0
O  O185  1  0.56824238  0.39328615  0.10348208  1  -1.265845  0  -0.390039  -0.714764  0  2.28353  0
O  O186  1  0.53543996  0.10362649  0.71028144  1  -1.271352  0  -0.391162  -0.715769  0  2.28653  0
O  O187  1  0.82547848  0.28966496  0.39342217  1  -1.262391  0  -0.390772  -0.71571  0  2.286443  0
O  O188  1  0.43175281  0.60670803  0.89652056  1  -1.265754  0  -0.389922  -0.714617  0  2.283812  0
O  O189  1  0.91217968  0.56733693  0.48050447  1  -1.224215  0  -0.323567  -0.61821  0  2.231229  0
O  O190  1  0.43176587  0.51934943  0.08693133  1  -1.21731  0  -0.324023  -0.619691  0  2.231918  0
O  O191  1  0.34491379  0.91335987  0.43290483  1  -1.220995  0  -0.323746  -0.618347  0  2.233704  0
O  O192  1  0.08782125  0.43265475  0.51949207  1  -1.224083  0  -0.323437  -0.61803  0  2.231624  0
O  O193  1  0.56822902  0.48065662  0.91306605  1  -1.217278  0  -0.32411  -0.619819  0  2.231392  0
O  O194  1  0.65508001  0.08663431  0.56709753  1  -1.222615  0  -0.323844  -0.618435  0  2.23334  0
O  O195  1  0.96222893  0.69463193  0.59175202  1  -1.268816  0  -0.400022  -0.721714  0  2.266686  0
O  O196  1  0.37061748  0.40814520  0.10297874  1  -1.272566  0  -0.40024  -0.722368  0  2.267871  0
O  O197  1  0.26795124  0.89708663  0.30545968  1  -1.270832  0  -0.399816  -0.721523  0  2.267125  0
O  O198  1  0.03776900  0.30536350  0.40824436  1  -1.268969  0  -0.39994  -0.721603  0  2.266761  0
O  O199  1  0.62938105  0.59185836  0.89701577  1  -1.272721  0  -0.400256  -0.722403  0  2.268377  0
O  O200  1  0.73205964  0.10290130  0.69453845  1  -1.271144  0  -0.399668  -0.721302  0  2.267246  0
O  O201  1  0.74727958  0.74311319  0.02131353  1  -1.233155  0  -0.574278  -0.772554  0  1.944975  0
O  O202  1  0.72589650  0.97895312  0.72201805  1  -1.22484  0  -0.574022  -0.768645  0  1.953405  0
O  O203  1  0.00389665  0.27798175  0.25680344  1  -1.222517  0  -0.574245  -0.769406  0  1.952982  0
O  O204  1  0.25273239  0.25688662  0.97868275  1  -1.233156  0  -0.574379  -0.772702  0  1.945085  0
O  O205  1  0.27409741  0.02103856  0.27799067  1  -1.22443  0  -0.573984  -0.768646  0  1.953507  0
O  O206  1  0.99610342  0.72201931  0.74318882  1  -1.222435  0  -0.574171  -0.769344  0  1.953031  0
O  O207  1  0.57018760  0.73572079  0.89786605  1  -1.236668  0  -0.566977  -0.780833  0  1.935863  0
O  O208  1  0.67207808  0.10220486  0.83799391  1  -1.240893  0  -0.567245  -0.77942  0  1.935781  0
O  O209  1  0.83389780  0.16196481  0.26402334  1  -1.21188  0  -0.567271  -0.780658  0  1.934114  0
O  O210  1  0.42981508  0.26428277  0.10213715  1  -1.235788  0  -0.56695  -0.780817  0  1.935876  0
O  O211  1  0.32792152  0.89779119  0.16201300  1  -1.240678  0  -0.567169  -0.779412  0  1.935961  0
O  O212  1  0.16610250  0.83803812  0.73597338  1  -1.211641  0  -0.567309  -0.78061  0  1.933951  0
