# generated using pymatgen
data_MgH7C10N3O5
_symmetry_space_group_name_H-M   'P 1'
_cell_length_a   7.60720317
_cell_length_b   10.09283869
_cell_length_c   15.94902418
_cell_angle_alpha   89.99994315
_cell_angle_beta   90.00022802
_cell_angle_gamma   90.00050488
_symmetry_Int_Tables_number   1
_chemical_formula_structural   MgH7C10N3O5
_chemical_formula_sum   'Mg4 H28 C40 N12 O20'
_cell_volume   1224.53855547
_cell_formula_units_Z   4
loop_
 _symmetry_equiv_pos_site_id
 _symmetry_equiv_pos_as_xyz
  1  'x, y, z'
loop_
 _atom_site_type_symbol
 _atom_site_label
 _atom_site_symmetry_multiplicity
 _atom_site_fract_x
 _atom_site_fract_y
 _atom_site_fract_z
 _atom_site_occupancy
 _atom_site_hle17_bader_spin_density
 _atom_site_hle17_ddec_charge
 _atom_site_hle17_ddec_spin_density
 _atom_site_hle17_ddec_sum_bond_order
 _atom_site_hle17_magmom
 _atom_site_hse06_10hf_bader_spin_density
 _atom_site_hse06_10hf_ddec_charge
 _atom_site_hse06_10hf_ddec_spin_density
 _atom_site_hse06_10hf_ddec_sum_bond_order
 _atom_site_hse06_10hf_magmom
 _atom_site_hse06_bader_spin_density
 _atom_site_hse06_ddec_charge
 _atom_site_hse06_ddec_spin_density
 _atom_site_hse06_ddec_sum_bond_order
 _atom_site_hse06_magmom
 _atom_site_pbe_bader_spin_density
 _atom_site_pbe_cm5_charge
 _atom_site_pbe_ddec_charge
 _atom_site_pbe_ddec_spin_density
 _atom_site_pbe_ddec_sum_bond_order
 _atom_site_pbe_magmom
Mg  Mg0  1  0.15185872  0.97594777  0.20978007  1  0  1.433104  0  1.218316  0  0  1.323593  0  1.474592  0  0  1.347105  0  1.440764  0  0  0.820252  1.306855  0  1.497754  0
Mg  Mg1  1  0.84814129  0.02405396  0.70977904  1  0  1.433123  0  1.218328  0  0  1.323635  0  1.474584  0  0  1.347125  0  1.440808  0  0  0.820229  1.306899  0  1.49775  0
Mg  Mg2  1  0.65185848  0.52405277  0.20978258  1  0  1.433102  0  1.218294  0  0  1.323653  0  1.474487  0  0  1.347118  0  1.440767  0  0  0.820238  1.306914  0  1.497651  0
Mg  Mg3  1  0.34814415  0.47594896  0.70978217  1  0  1.433137  0  1.218227  0  0  1.323652  0  1.474483  0  0  1.347128  0  1.440739  0  0  0.820264  1.306913  0  1.497646  0
H  H4  1  0.42716408  0.12124954  0.27539904  1  0  0.439391  0  0.851368  0  0  0.404023  0  0.920937  0  0  0.415024  0  0.904636  0  0  0.294399  0.396186  0  0.932544  0
H  H5  1  0.57284303  0.87874812  0.77539881  1  0  0.4393  0  0.851524  0  0  0.403972  0  0.921008  0  0  0.414978  0  0.904699  0  0  0.294369  0.396139  0  0.932607  0
H  H6  1  0.92716276  0.37874862  0.27540070  1  0  0.439267  0  0.851556  0  0  0.403942  0  0.92104  0  0  0.414948  0  0.904731  0  0  0.29437  0.396111  0  0.932636  0
H  H7  1  0.07284435  0.62125499  0.77540217  1  0  0.43932  0  0.851505  0  0  0.403996  0  0.920982  0  0  0.415003  0  0.904671  0  0  0.294365  0.396164  0  0.932578  0
H  H8  1  0.24835249  0.20446637  0.28094715  1  0  0.436067  0  0.864885  0  0  0.399985  0  0.935645  0  0  0.411928  0  0.918115  0  0  0.289413  0.391161  0  0.948607  0
H  H9  1  0.75165730  0.79553426  0.78094982  1  0  0.436031  0  0.864923  0  0  0.399939  0  0.935702  0  0  0.411879  0  0.918175  0  0  0.289387  0.391113  0  0.94867  0
H  H10  1  0.74834756  0.29553358  0.28094886  1  0  0.436057  0  0.864893  0  0  0.399961  0  0.935676  0  0  0.411903  0  0.918147  0  0  0.289377  0.391136  0  0.948642  0
H  H11  1  0.25165828  0.70447101  0.78094811  1  0  0.435999  0  0.864968  0  0  0.39989  0  0.935772  0  0  0.411831  0  0.918244  0  0  0.289335  0.391063  0  0.948741  0
H  H12  1  0.06763933  0.53239622  0.39743550  1  0  0.321806  0  0.837368  0  0  0.31147  0  0.88323  0  0  0.318895  0  0.877689  0  0  0.347171  0.306042  0  0.887496  0
H  H13  1  0.93236615  0.46760126  0.89743246  1  0  0.321868  0  0.837355  0  0  0.3115  0  0.883239  0  0  0.318922  0  0.877698  0  0  0.347171  0.306072  0  0.887501  0
H  H14  1  0.56763905  0.96759951  0.39743459  1  0  0.321835  0  0.837361  0  0  0.311488  0  0.883233  0  0  0.318909  0  0.877694  0  0  0.347195  0.306063  0  0.887493  0
H  H15  1  0.43236380  0.03240093  0.89742836  1  0  0.321814  0  0.837468  0  0  0.311389  0  0.883411  0  0  0.318808  0  0.877876  0  0  0.347157  0.305967  0  0.887667  0
H  H16  1  0.83344987  0.73332618  0.63504883  1  0  0.088547  0  0.933874  0  0  0.095473  0  0.997154  0  0  0.098611  0  0.994506  0  0  0.124029  0.093063  0  0.999312  0
H  H17  1  0.16654296  0.26667567  0.13504784  1  0  0.08851  0  0.933952  0  0  0.095474  0  0.997187  0  0  0.098611  0  0.99454  0  0  0.124016  0.093064  0  0.999346  0
H  H18  1  0.33345553  0.76667392  0.63504646  1  0  0.088502  0  0.933985  0  0  0.095461  0  0.997224  0  0  0.098598  0  0.994578  0  0  0.124032  0.093053  0  0.999383  0
H  H19  1  0.66654255  0.23332694  0.13504771  1  0  0.088522  0  0.933952  0  0  0.095487  0  0.997189  0  0  0.098626  0  0.994541  0  0  0.124025  0.093077  0  0.999349  0
H  H20  1  0.93211274  0.10177681  0.53107349  1  0  0.103077  0  0.92582  0  0  0.110684  0  0.983122  0  0  0.114619  0  0.97921  0  0  0.127085  0.107809  0  0.985949  0
H  H21  1  0.06787792  0.89822123  0.03107566  1  0  0.103106  0  0.925667  0  0  0.110713  0  0.98298  0  0  0.114651  0  0.979063  0  0  0.127107  0.107833  0  0.985806  0
H  H22  1  0.43211075  0.39821901  0.53107667  1  0  0.10307  0  0.925739  0  0  0.110696  0  0.983039  0  0  0.114633  0  0.979123  0  0  0.127097  0.107819  0  0.985865  0
H  H23  1  0.56788254  0.60178299  0.03107750  1  0  0.103105  0  0.925673  0  0  0.110729  0  0.982985  0  0  0.114667  0  0.979069  0  0  0.127104  0.107852  0  0.985812  0
H  H24  1  0.95221243  0.61650027  0.51156682  1  0  0.111283  0  0.929628  0  0  0.126285  0  0.980042  0  0  0.129779  0  0.978766  0  0  0.115256  0.123791  0  0.981045  0
H  H25  1  0.04778596  0.38349483  0.01156239  1  0  0.111355  0  0.929681  0  0  0.126336  0  0.980114  0  0  0.129846  0  0.978816  0  0  0.115283  0.123841  0  0.981118  0
H  H26  1  0.45221289  0.88349288  0.51156186  1  0  0.111356  0  0.929669  0  0  0.126342  0  0.980093  0  0  0.129845  0  0.978804  0  0  0.115298  0.123847  0  0.981101  0
H  H27  1  0.54779207  0.11650619  0.01156108  1  0  0.111337  0  0.929716  0  0  0.126297  0  0.980163  0  0  0.129828  0  0.978839  0  0  0.115275  0.123802  0  0.981165  0
H  H28  1  0.06240697  0.00101448  0.40175442  1  0  0.121408  0  0.950031  0  0  0.129411  0  1.011934  0  0  0.133654  0  1.009458  0  0  0.116923  0.12627  0  1.01403  0
H  H29  1  0.93758671  0.99898002  0.90175545  1  0  0.121386  0  0.950115  0  0  0.12939  0  1.012011  0  0  0.133638  0  1.009531  0  0  0.11692  0.126247  0  1.014109  0
H  H30  1  0.56240443  0.49897613  0.40175600  1  0  0.121452  0  0.950097  0  0  0.129457  0  1.011983  0  0  0.133704  0  1.009501  0  0  0.116925  0.126315  0  1.014081  0
H  H31  1  0.43759188  0.50102233  0.90175700  1  0  0.121428  0  0.950096  0  0  0.129421  0  1.012  0  0  0.133667  0  1.009519  0  0  0.116942  0.126279  0  1.014097  0
C  C32  1  0.10346439  0.73947288  0.37340829  1  0  0.331229  0  3.763111  0  0  0.296073  0  4.042155  0  0  0.308433  0  4.05639  0  0  0.221089  0.288098  0  4.032057  0
C  C33  1  0.89653432  0.26052265  0.87340469  1  0  0.331143  0  3.76314  0  0  0.295895  0  4.042285  0  0  0.308249  0  4.056522  0  0  0.221062  0.287936  0  4.032165  0
C  C34  1  0.60346956  0.76051619  0.37340689  1  0  0.331067  0  3.763091  0  0  0.295878  0  4.042197  0  0  0.30823  0  4.056432  0  0  0.221052  0.287938  0  4.032044  0
C  C35  1  0.39653440  0.23948331  0.87340484  1  0  0.331215  0  3.762993  0  0  0.295902  0  4.042276  0  0  0.308255  0  4.056513  0  0  0.221062  0.287961  0  4.032125  0
C  C36  1  0.23232523  0.58305058  0.29640062  1  0  0.033613  0  3.657668  0  0  0.020254  0  3.920342  0  0  0.019406  0  3.938056  0  0  0.102455  0.020668  0  3.908517  0
C  C37  1  0.76767416  0.41694904  0.79639918  1  0  0.033469  0  3.657637  0  0  0.020126  0  3.920306  0  0  0.019275  0  3.938017  0  0  0.102384  0.020529  0  3.908498  0
C  C38  1  0.73232830  0.91694541  0.29640037  1  0  0.033569  0  3.657509  0  0  0.020211  0  3.920216  0  0  0.019362  0  3.937929  0  0  0.102393  0.020574  0  3.908455  0
C  C39  1  0.26767241  0.08305718  0.79639692  1  0  0.033551  0  3.657517  0  0  0.020167  0  3.920218  0  0  0.019335  0  3.937908  0  0  0.10238  0.020513  0  3.90848  0
C  C40  1  0.27360514  0.70848522  0.26532787  1  0  -0.001259  0  3.749458  0  0  -0.004752  0  4.006738  0  0  -0.007296  0  4.025753  0  0  0.089121  -0.003318  0  3.994396  0
C  C41  1  0.72639269  0.29151345  0.76532392  1  0  -0.001199  0  3.749344  0  0  -0.004756  0  4.006745  0  0  -0.007301  0  4.025763  0  0  0.089151  -0.003319  0  3.99441  0
C  C42  1  0.77360936  0.79151109  0.26532394  1  0  -0.001104  0  3.749184  0  0  -0.004625  0  4.006548  0  0  -0.007177  0  4.025569  0  0  0.089219  -0.003173  0  3.994215  0
C  C43  1  0.22639241  0.20849056  0.76532409  1  0  -0.001101  0  3.74913  0  0  -0.004639  0  4.006563  0  0  -0.007196  0  4.025582  0  0  0.08921  -0.003175  0  3.994218  0
C  C44  1  0.01775811  0.79992135  0.44506147  1  0  0.038796  0  3.809541  0  0  0.050807  0  4.053797  0  0  0.053256  0  4.075633  0  0  0.008515  0.049154  0  4.038932  0
C  C45  1  0.98223987  0.20007209  0.94505808  1  0  0.038872  0  3.80958  0  0  0.050891  0  4.053865  0  0  0.053339  0  4.075704  0  0  0.008534  0.049231  0  4.039002  0
C  C46  1  0.51775994  0.70006804  0.44505886  1  0  0.039011  0  3.809436  0  0  0.051008  0  4.053724  0  0  0.053457  0  4.075566  0  0  0.0086  0.049346  0  4.038859  0
C  C47  1  0.48224198  0.29992936  0.94505882  1  0  0.039008  0  3.809388  0  0  0.050975  0  4.05379  0  0  0.053423  0  4.075633  0  0  0.008564  0.049312  0  4.03892  0
C  C48  1  0.88242856  0.78929775  0.58138602  1  0  0.145069  0  3.710467  0  0  0.114493  0  3.972895  0  0  0.121406  0  3.988395  0  0  0.055813  0.110014  0  3.962393  0
C  C49  1  0.11756514  0.21070121  0.08138371  1  0  0.145195  0  3.710642  0  0  0.114597  0  3.973048  0  0  0.12151  0  3.988556  0  0  0.055851  0.110117  0  3.962545  0
C  C50  1  0.38243356  0.71069879  0.58138305  1  0  0.145132  0  3.71076  0  0  0.114535  0  3.973171  0  0  0.12145  0  3.988672  0  0  0.055806  0.110055  0  3.962669  0
C  C51  1  0.61756671  0.28930215  0.08138480  1  0  0.145093  0  3.710699  0  0  0.114486  0  3.973109  0  0  0.121398  0  3.988618  0  0  0.055778  0.110005  0  3.962606  0
C  C52  1  0.93763247  0.99468123  0.52294356  1  0  0.143838  0  3.692309  0  0  0.11379  0  3.947874  0  0  0.120885  0  3.962616  0  0  0.05336  0.109059  0  3.938009  0
C  C53  1  0.06235813  0.00531683  0.02294378  1  0  0.143793  0  3.692188  0  0  0.113743  0  3.947766  0  0  0.120837  0  3.962512  0  0  0.0533  0.109018  0  3.937889  0
C  C54  1  0.43763506  0.50531477  0.52294511  1  0  0.143864  0  3.692177  0  0  0.113767  0  3.947792  0  0  0.120863  0  3.962531  0  0  0.053333  0.109038  0  3.937918  0
C  C55  1  0.56236211  0.49468526  0.02294537  1  0  0.143797  0  3.692175  0  0  0.113682  0  3.947807  0  0  0.120778  0  3.962546  0  0  0.053268  0.108954  0  3.937934  0
C  C56  1  0.94960632  0.72445502  0.51153167  1  0  -0.148098  0  3.696696  0  0  -0.17343  0  3.954387  0  0  -0.17996  0  3.974571  0  0  -0.08292  -0.169109  0  3.940671  0
C  C57  1  0.05039206  0.27554305  0.01152857  1  0  -0.148239  0  3.69692  0  0  -0.17356  0  3.954636  0  0  -0.180102  0  3.974812  0  0  -0.08294  -0.169245  0  3.940933  0
C  C58  1  0.44960683  0.77554009  0.51152866  1  0  -0.148157  0  3.696865  0  0  -0.173475  0  3.95458  0  0  -0.180012  0  3.97476  0  0  -0.082892  -0.169158  0  3.940877  0
C  C59  1  0.55039419  0.22446096  0.01152719  1  0  -0.148196  0  3.696911  0  0  -0.173464  0  3.954634  0  0  -0.180026  0  3.974815  0  0  -0.082892  -0.169144  0  3.940922  0
C  C60  1  0.28154347  0.44419884  0.27571042  1  0  0.661062  0  3.942516  0  0  0.606284  0  4.247598  0  0  0.640595  0  4.237757  0  0  0.224318  0.583051  0  4.253467  0
C  C61  1  0.71845181  0.55580180  0.77571005  1  0  0.661176  0  3.942704  0  0  0.60639  0  4.247786  0  0  0.640699  0  4.237946  0  0  0.224326  0.583159  0  4.253659  0
C  C62  1  0.78154887  0.05579936  0.27570726  1  0  0.661043  0  3.942734  0  0  0.606259  0  4.247825  0  0  0.640566  0  4.237991  0  0  0.224294  0.583039  0  4.2537  0
C  C63  1  0.21845956  0.94420326  0.77570380  1  0  0.661134  0  3.942663  0  0  0.606352  0  4.247774  0  0  0.640658  0  4.237934  0  0  0.224289  0.583136  0  4.253654  0
C  C64  1  0.00971394  0.93850770  0.45143360  1  0  -0.146667  0  3.693998  0  0  -0.169381  0  3.947076  0  0  -0.176128  0  3.966863  0  0  -0.081404  -0.165061  0  3.934002  0
C  C65  1  0.99028014  0.06148771  0.95143156  1  0  -0.146653  0  3.694081  0  0  -0.169356  0  3.947168  0  0  -0.176107  0  3.966958  0  0  -0.081417  -0.165036  0  3.934092  0
C  C66  1  0.50971678  0.56148559  0.45143232  1  0  -0.146838  0  3.694067  0  0  -0.16952  0  3.947166  0  0  -0.176267  0  3.966949  0  0  -0.081471  -0.165201  0  3.934094  0
C  C67  1  0.49028257  0.43851379  0.95143347  1  0  -0.14675  0  3.694039  0  0  -0.16939  0  3.947169  0  0  -0.176139  0  3.966954  0  0  -0.081429  -0.165071  0  3.934095  0
C  C68  1  0.38196028  0.75029746  0.19176484  1  0  0.694043  0  3.911355  0  0  0.63784  0  4.218782  0  0  0.673078  0  4.206248  0  0  0.218089  0.613971  0  4.226727  0
C  C69  1  0.61803037  0.24971520  0.69176071  1  0  0.694066  0  3.911107  0  0  0.637832  0  4.218652  0  0  0.673069  0  4.206117  0  0  0.218054  0.613962  0  4.226602  0
C  C70  1  0.88196533  0.74970760  0.19176157  1  0  0.694023  0  3.911202  0  0  0.637778  0  4.218738  0  0  0.673017  0  4.206201  0  0  0.217974  0.613911  0  4.226679  0
C  C71  1  0.11803716  0.25030803  0.69176148  1  0  0.694358  0  3.910651  0  0  0.638083  0  4.218287  0  0  0.673324  0  4.205743  0  0  0.218201  0.614215  0  4.226232  0
N  N72  1  0.87763522  0.92215332  0.58807416  1  0  -0.387669  0  3.202114  0  0  -0.328127  0  3.458494  0  0  -0.339675  0  3.471683  0  0  -0.352108  -0.320386  0  3.449577  0
N  N73  1  0.12235590  0.07784563  0.08807507  1  0  -0.387759  0  3.202125  0  0  -0.32822  0  3.45853  0  0  -0.339774  0  3.471722  0  0  -0.352118  -0.320477  0  3.449605  0
N  N74  1  0.37764130  0.57784318  0.58807566  1  0  -0.387774  0  3.202192  0  0  -0.328222  0  3.458606  0  0  -0.339772  0  3.471793  0  0  -0.352147  -0.320478  0  3.449682  0
N  N75  1  0.62235772  0.42215775  0.08807796  1  0  -0.387719  0  3.202187  0  0  -0.328152  0  3.458595  0  0  -0.3397  0  3.47178  0  0  -0.352071  -0.320409  0  3.449671  0
N  N76  1  0.19003116  0.80359393  0.31249867  1  0  -0.477657  0  3.106539  0  0  -0.438128  0  3.374009  0  0  -0.451088  0  3.388627  0  0  -0.338481  -0.429152  0  3.364853  0
N  N77  1  0.80996706  0.19640467  0.81249495  1  0  -0.477562  0  3.106556  0  0  -0.437989  0  3.374057  0  0  -0.450938  0  3.388663  0  0  -0.338441  -0.429018  0  3.364898  0
N  N78  1  0.69003295  0.69640374  0.31249606  1  0  -0.477662  0  3.106699  0  0  -0.438103  0  3.374166  0  0  -0.451048  0  3.388773  0  0  -0.338481  -0.429137  0  3.364995  0
N  N79  1  0.30996527  0.30359685  0.81249568  1  0  -0.477772  0  3.106744  0  0  -0.438161  0  3.374254  0  0  -0.45111  0  3.388866  0  0  -0.338518  -0.429195  0  3.365078  0
N  N80  1  0.12263618  0.60615764  0.36296633  1  0  -0.322913  0  3.416606  0  0  -0.272742  0  3.656237  0  0  -0.287397  0  3.670433  0  0  -0.364285  -0.262804  0  3.646733  0
N  N81  1  0.87736244  0.39383791  0.86296449  1  0  -0.322985  0  3.416632  0  0  -0.272706  0  3.656219  0  0  -0.287348  0  3.670404  0  0  -0.364274  -0.262767  0  3.646713  0
N  N82  1  0.62264292  0.89383554  0.36296359  1  0  -0.322906  0  3.416529  0  0  -0.272691  0  3.656164  0  0  -0.287328  0  3.670348  0  0  -0.364303  -0.262749  0  3.646671  0
N  N83  1  0.37736228  0.10616496  0.86296222  1  0  -0.323002  0  3.416596  0  0  -0.272614  0  3.656227  0  0  -0.287259  0  3.670407  0  0  -0.364266  -0.262676  0  3.646745  0
O  O84  1  0.36224799  0.86907371  0.16728680  1  0  -0.683124  0  1.947387  0  0  -0.638623  0  2.178709  0  0  -0.66006  0  2.164986  0  0  -0.363561  -0.623616  0  2.187494  0
O  O85  1  0.63775036  0.13091521  0.66728027  1  0  -0.683328  0  1.946532  0  0  -0.638831  0  2.17789  0  0  -0.660273  0  2.164169  0  0  -0.36371  -0.623815  0  2.18667  0
O  O86  1  0.86224901  0.63092036  0.16728423  1  0  -0.683212  0  1.946914  0  0  -0.638719  0  2.178279  0  0  -0.660155  0  2.164559  0  0  -0.363587  -0.623708  0  2.187059  0
O  O87  1  0.13774802  0.36908243  0.66728536  1  0  -0.683269  0  1.94729  0  0  -0.638763  0  2.178687  0  0  -0.660199  0  2.164966  0  0  -0.363615  -0.623753  0  2.187469  0
O  O88  1  0.48771996  0.66755600  0.16014297  1  0  -0.706735  0  2.065759  0  0  -0.654456  0  2.303171  0  0  -0.6786  0  2.291532  0  0  -0.349384  -0.637173  0  2.310407  0
O  O89  1  0.51228622  0.33243887  0.66014109  1  0  -0.706563  0  2.066332  0  0  -0.654252  0  2.303757  0  0  -0.678389  0  2.292115  0  0  -0.349242  -0.636975  0  2.310999  0
O  O90  1  0.98771677  0.83244189  0.16014090  1  0  -0.70665  0  2.066026  0  0  -0.654335  0  2.303453  0  0  -0.67848  0  2.291811  0  0  -0.349278  -0.637054  0  2.310685  0
O  O91  1  0.01227231  0.16755992  0.66013690  1  0  -0.70689  0  2.065429  0  0  -0.654566  0  2.302883  0  0  -0.678714  0  2.291242  0  0  -0.349419  -0.637283  0  2.31012  0
O  O92  1  0.43577337  0.42021603  0.25026889  1  0  -0.682191  0  2.021448  0  0  -0.628121  0  2.260361  0  0  -0.652407  0  2.249355  0  0  -0.345683  -0.610807  0  2.267566  0
O  O93  1  0.56423485  0.57978465  0.75026946  1  0  -0.682179  0  2.021728  0  0  -0.628085  0  2.260614  0  0  -0.65237  0  2.24961  0  0  -0.345622  -0.610772  0  2.26782  0
O  O94  1  0.93577116  0.07978422  0.25026698  1  0  -0.6822  0  2.021763  0  0  -0.628108  0  2.260662  0  0  -0.652397  0  2.249657  0  0  -0.34567  -0.610792  0  2.267864  0
O  O95  1  0.06422918  0.92021448  0.75026072  1  0  -0.682242  0  2.021681  0  0  -0.62813  0  2.260528  0  0  -0.652421  0  2.249527  0  0  -0.34566  -0.610809  0  2.267723  0
O  O96  1  0.29763942  0.11280154  0.27342012  1  0  -0.922627  0  1.833393  0  0  -0.869515  0  2.024022  0  0  -0.886127  0  1.987473  0  0  -0.624244  -0.85804  0  2.050789  0
O  O97  1  0.70236768  0.88719910  0.77342139  1  0  -0.922535  0  1.833585  0  0  -0.869425  0  2.024185  0  0  -0.886035  0  1.987644  0  0  -0.624209  -0.85795  0  2.050951  0
O  O98  1  0.79763688  0.38719874  0.27342177  1  0  -0.922511  0  1.833578  0  0  -0.869403  0  2.024164  0  0  -0.886013  0  1.987623  0  0  -0.624174  -0.857927  0  2.050928  0
O  O99  1  0.20236759  0.61280487  0.77342412  1  0  -0.922519  0  1.833583  0  0  -0.869404  0  2.024185  0  0  -0.886013  0  1.987642  0  0  -0.624141  -0.85793  0  2.05095  0
O  O100  1  0.16366001  0.35696728  0.28942590  1  0  -0.623349  0  1.946977  0  0  -0.563216  0  2.158386  0  0  -0.587954  0  2.14562  0  0  -0.305219  -0.54576  0  2.166982  0
O  O101  1  0.83634065  0.64303135  0.78942884  1  0  -0.623391  0  1.946947  0  0  -0.563271  0  2.158373  0  0  -0.588005  0  2.145602  0  0  -0.305232  -0.545813  0  2.16697  0
O  O102  1  0.66366249  0.14302912  0.28942646  1  0  -0.623377  0  1.946991  0  0  -0.563209  0  2.158404  0  0  -0.587937  0  2.145632  0  0  -0.305194  -0.545747  0  2.167  0
O  O103  1  0.33634343  0.85697447  0.78942327  1  0  -0.623363  0  1.947026  0  0  -0.563204  0  2.158419  0  0  -0.587935  0  2.145648  0  0  -0.305155  -0.545744  0  2.167012  0
