# generated using pymatgen
data_Al2H17C34O10F
_symmetry_space_group_name_H-M   'P 1'
_cell_length_a   6.65719381
_cell_length_b   17.15074021
_cell_length_c   19.34005254
_cell_angle_alpha   71.00290916
_cell_angle_beta   89.81436149
_cell_angle_gamma   89.50402110
_symmetry_Int_Tables_number   1
_chemical_formula_structural   Al2H17C34O10F
_chemical_formula_sum   'Al4 H34 C68 O20 F2'
_cell_volume   2087.82003692
_cell_formula_units_Z   2
loop_
 _symmetry_equiv_pos_site_id
 _symmetry_equiv_pos_as_xyz
  1  'x, y, z'
loop_
 _atom_site_type_symbol
 _atom_site_label
 _atom_site_symmetry_multiplicity
 _atom_site_fract_x
 _atom_site_fract_y
 _atom_site_fract_z
 _atom_site_occupancy
 _atom_site_pbe_bader_charge
 _atom_site_pbe_bader_spin_density
 _atom_site_pbe_cm5_charge
 _atom_site_pbe_ddec_charge
 _atom_site_pbe_ddec_spin_density
 _atom_site_pbe_ddec_sum_bond_order
 _atom_site_pbe_magmom
Al  Al0  1  0.09894093  0.49742650  0.50119202  1  2.50144  0  0.396741  1.643631  0  2.586048  0
Al  Al1  1  0.59865489  0.50141763  0.49878440  1  2.500215  0  0.39699  1.642207  0  2.583871  0
Al  Al2  1  0.63525126  0.00178497  0.99840026  1  2.501947  0  0.396719  1.646327  0  2.578853  0
Al  Al3  1  0.13556367  0.99813525  0.00116299  1  2.501582  0  0.396872  1.645548  0  2.579633  0
H  H4  1  0.95139418  0.53705727  0.29931324  1  0.058082  0  0.108489  0.114624  0  1.003814  0
H  H5  1  0.03092054  0.51504005  0.18254295  1  0.05548  0  0.101923  0.097347  0  0.998391  0
H  H6  1  0.03540909  0.63400049  0.06585322  1  0.054913  0  0.103111  0.099885  0  0.992303  0
H  H7  1  0.96743055  0.77469094  0.06648549  1  0.075822  0  0.105248  0.108191  0  1.016164  0
H  H8  1  0.72092879  0.98784809  0.32458405  1  0.117063  0  0.120646  0.163583  0  0.977115  0
H  H9  1  0.74764901  0.72604047  0.43657396  1  0.110632  0  0.113331  0.144551  0  1.006312  0
H  H10  1  0.13800971  0.57969113  0.67891438  1  0.095234  0  0.109218  0.1182  0  1.001333  0
H  H11  1  0.56285785  0.68621459  0.59762188  1  0.094267  0  0.10846  0.117269  0  0.997297  0
H  H12  1  0.41733404  0.79852286  0.63856451  1  0.084655  0  0.106327  0.110876  0  0.984403  0
H  H13  1  0.43125496  0.88466726  0.71915833  1  0.072304  0  0.102686  0.104302  0  1.004897  0
H  H14  1  0.59736991  0.91961396  0.82089372  1  0.081295  0  0.10963  0.118817  0  1.00202  0
H  H15  1  0.17340455  0.81379608  0.90165284  1  0.078161  0  0.108402  0.118067  0  0.996597  0
H  H16  1  0.32023792  0.70218793  0.85991808  1  0.070319  0  0.104341  0.108244  0  0.988616  0
H  H17  1  0.30583370  0.61576658  0.77959009  1  0.062376  0  0.10213  0.10333  0  1.005934  0
H  H18  1  0.66858044  0.18446927  0.09630241  1  0.093145  0  0.109784  0.120603  0  0.992713  0
H  H19  1  0.09164042  0.08401467  0.17751025  1  0.111268  0  0.104624  0.114818  0  1.026687  0
H  H20  1  0.92854880  0.12009245  0.27969633  1  0.071642  0  0.101254  0.103093  0  1.005622  0
H  H21  1  0.91922453  0.20484112  0.36162010  1  0.081519  0  0.104976  0.109484  0  0.987854  0
H  H22  1  0.06777901  0.31564128  0.40272717  1  0.106319  0  0.109134  0.119194  0  0.995215  0
H  H23  1  0.64291327  0.41738877  0.32048679  1  0.107369  0  0.10793  0.115444  0  1.004689  0
H  H24  1  0.80719273  0.38080728  0.21866851  1  0.057281  0  0.101716  0.102629  0  1.007021  0
H  H25  1  0.81738328  0.29529062  0.13744918  1  0.070722  0  0.104638  0.108998  0  0.988046  0
H  H26  1  0.16051648  0.13011643  0.56991112  1  0.059302  0  0.101785  0.098702  0  0.993536  0
H  H27  1  0.47093714  0.46254102  0.69713942  1  0.057664  0  0.106868  0.112902  0  1.009653  0
H  H28  1  0.56781393  0.48583670  0.81147540  1  0.045462  0  0.099849  0.095423  0  1.000439  0
H  H29  1  0.57425574  0.36871646  0.92958766  1  0.0564  0  0.100779  0.096707  0  0.994246  0
H  H30  1  0.48869546  0.22854795  0.93256783  1  0.08566  0  0.10327  0.106189  0  1.019319  0
H  H31  1  0.26278412  0.03644481  0.80240450  1  0.05576  0  0.106718  0.112124  0  1.009282  0
H  H32  1  0.16642359  0.01307760  0.68802412  1  0.030637  0  0.100821  0.097071  0  0.998844  0
H  H33  1  0.24569926  0.27031578  0.56694703  1  0.080766  0  0.102561  0.104443  0  1.020032  0
H  H34  1  0.34029733  0.60694123  0.46111684  1  0.62837  0  0.356786  0.436116  0  0.844868  0
H  H35  1  0.84377687  0.39394104  0.54399158  1  0.635916  0  0.356498  0.435995  0  0.844687  0
H  H36  1  0.39387291  0.89331936  0.04214154  1  0.629869  0  0.355747  0.435201  0  0.844713  0
H  H37  1  0.88972137  0.10695694  0.96036191  1  0.628852  0  0.357934  0.437335  0  0.842282  0
C  C38  1  0.35291336  0.41897734  0.41749430  1  1.569561  0  0.265376  0.639273  0  4.107067  0
C  C39  1  0.35321836  0.38519359  0.61324684  1  1.582707  0  0.276543  0.664886  0  4.093148  0
C  C40  1  0.84795718  0.58072466  0.58206487  1  1.562759  0  0.263651  0.637046  0  4.107179  0
C  C41  1  0.85069443  0.61353646  0.38651382  1  1.591557  0  0.274998  0.66216  0  4.103234  0
C  C42  1  0.95270657  0.58921345  0.24867294  1  0.026249  0  -0.086383  -0.128234  0  3.960951  0
C  C43  1  0.99721826  0.57704348  0.18355316  1  -0.061432  0  -0.089594  -0.078612  0  4.03428  0
C  C44  1  0.00107595  0.64468922  0.11726271  1  0.011751  0  -0.091854  -0.084033  0  4.038624  0
C  C45  1  0.96243093  0.72332640  0.11759843  1  -0.096205  0  -0.089415  -0.127454  0  3.971628  0
C  C46  1  0.91695611  0.73892652  0.18419605  1  0.012396  0  -0.000561  0.057077  0  3.971768  0
C  C47  1  0.90973514  0.67002373  0.25118721  1  -0.004713  0  0.002829  0.069637  0  3.981984  0
C  C48  1  0.87788578  0.81914681  0.18617294  1  0.020218  0  0.000908  -0.091398  0  3.90358  0
C  C49  1  0.82994385  0.83304242  0.25207415  1  0.050486  0  -0.009407  -0.062297  0  3.99732  0
C  C50  1  0.81473046  0.76383965  0.31901501  1  -0.013254  0  0.003375  0.106181  0  4.006061  0
C  C51  1  0.85722541  0.68432360  0.31653423  1  -0.021902  0  -0.00534  -0.129069  0  3.905177  0
C  C52  1  0.79668510  0.91286730  0.25842985  1  0.391509  0  0.10953  0.277187  0  4.03645  0
C  C53  1  0.74623903  0.92592274  0.32243767  1  0.101467  0  -0.11072  -0.343352  0  4.012453  0
C  C54  1  0.72877197  0.85604638  0.38578205  1  0.427268  0  0.095651  0.324766  0  4.113457  0
C  C55  1  0.76217712  0.77735395  0.38589785  1  0.042586  0  -0.112427  -0.295618  0  3.977067  0
C  C56  1  0.01522137  0.62171394  0.68028856  1  -0.00562  0  -0.0799  -0.143766  0  3.925375  0
C  C57  1  0.85005911  0.62878200  0.63392366  1  -0.042025  0  -0.01914  -0.041272  0  4.024506  0
C  C58  1  0.69051927  0.68249858  0.63383237  1  -0.066529  0  -0.081013  -0.147703  0  3.935802  0
C  C59  1  0.69684271  0.73285325  0.67823678  1  0.020488  0  -0.008755  0.071323  0  4.043774  0
C  C60  1  0.86373618  0.72506312  0.72663284  1  0.016891  0  0.003018  0.000521  0  3.913581  0
C  C61  1  0.02280001  0.66766393  0.72833950  1  -0.024194  0  -0.008521  0.072494  0  4.046637  0
C  C62  1  0.54257600  0.79245770  0.67627166  1  -0.090787  0  -0.086596  -0.124243  0  4.006019  0
C  C63  1  0.55036885  0.84000988  0.72068229  1  0.005465  0  -0.088391  -0.12874  0  4.009359  0
C  C64  1  0.71292601  0.83199336  0.77113684  1  0.009741  0  -0.008121  0.070948  0  4.047283  0
C  C65  1  0.87193405  0.77456728  0.77287072  1  -0.058718  0  0.001042  -0.001311  0  3.916661  0
C  C66  1  0.03892986  0.76687436  0.82119076  1  0.004526  0  -0.009996  0.071162  0  4.052494  0
C  C67  1  0.19391403  0.70768379  0.82275553  1  -0.043671  0  -0.089982  -0.13208  0  4.02137  0
C  C68  1  0.18612719  0.66006560  0.77840321  1  -0.028125  0  -0.089241  -0.128625  0  4.014313  0
C  C69  1  0.72019158  0.87763865  0.81945407  1  -0.057009  0  -0.079277  -0.142626  0  3.925032  0
C  C70  1  0.88517899  0.87050976  0.86593686  1  -0.028483  0  -0.019426  -0.040997  0  4.024763  0
C  C71  1  0.04518446  0.81709146  0.86574303  1  -0.055485  0  -0.083015  -0.152495  0  3.939124  0
C  C72  1  0.54081215  0.18248919  0.13232058  1  -0.012153  0  -0.081849  -0.149742  0  3.937222  0
C  C73  1  0.37992261  0.13054277  0.13234241  1  -0.040162  0  -0.018092  -0.037358  0  4.020468  0
C  C74  1  0.21557568  0.12461694  0.17906845  1  -0.039636  0  -0.080031  -0.143333  0  3.920565  0
C  C75  1  0.21085547  0.16988573  0.22778800  1  -0.00808  0  -0.010651  0.069851  0  4.045871  0
C  C76  1  0.37102041  0.22572054  0.22604939  1  0.006593  0  0.001141  -0.001001  0  3.918874  0
C  C77  1  0.53659122  0.23248213  0.17705791  1  -0.019963  0  -0.009616  0.071242  0  4.050524  0
C  C78  1  0.04945564  0.16299247  0.27870509  1  -0.030344  0  -0.089323  -0.126443  0  4.013405  0
C  C79  1  0.04410205  0.20987460  0.32375056  1  -0.0805  0  -0.090048  -0.132872  0  4.019243  0
C  C80  1  0.19967536  0.26789672  0.32179570  1  -0.031058  0  -0.009256  0.072082  0  4.051054  0
C  C81  1  0.36532363  0.27469038  0.27279070  1  -0.060736  0  0.001644  -0.001383  0  3.916345  0
C  C82  1  0.52520730  0.33074231  0.27086898  1  -0.011208  0  -0.009012  0.071232  0  4.046999  0
C  C83  1  0.68668318  0.33759794  0.22000087  1  -0.000589  0  -0.090305  -0.130363  0  4.017218  0
C  C84  1  0.69227436  0.29043516  0.17518328  1  -0.068451  0  -0.089541  -0.130908  0  4.017463  0
C  C85  1  0.19508750  0.31804203  0.36640598  1  -0.009373  0  -0.08317  -0.151704  0  3.93772  0
C  C86  1  0.35528237  0.37049671  0.36599733  1  -0.052864  0  -0.019469  -0.041763  0  4.02842  0
C  C87  1  0.51960052  0.37635286  0.31927437  1  -0.04041  0  -0.079542  -0.142131  0  3.927077  0
C  C88  1  0.47280625  0.41115216  0.74833511  1  0.00762  0  -0.088877  -0.129655  0  3.966624  0
C  C89  1  0.52710193  0.42409002  0.81215352  1  -0.048299  0  -0.093354  -0.08358  0  4.041833  0
C  C90  1  0.53192666  0.35748917  0.87920043  1  -0.060764  0  -0.09488  -0.084489  0  4.047116  0
C  C91  1  0.48379637  0.27921014  0.88091386  1  -0.047188  0  -0.092831  -0.13487  0  3.983544  0
C  C92  1  0.42736802  0.26287054  0.81573486  1  0.037904  0  -0.000621  0.061827  0  3.981371  0
C  C93  1  0.42080517  0.33064149  0.74781117  1  0.004814  0  0.000485  0.064972  0  3.978281  0
C  C94  1  0.37359320  0.18361694  0.81577708  1  0.012055  0  -0.002589  -0.124105  0  3.910177  0
C  C95  1  0.31316590  0.16831473  0.75172016  1  -0.035594  0  0.000584  0.065027  0  3.975046  0
C  C96  1  0.30683659  0.23604376  0.68378902  1  0.00526  0  -0.000426  0.062121  0  3.982681  0
C  C97  1  0.36032254  0.31532573  0.68375567  1  -0.042626  0  -0.004782  -0.128422  0  3.912749  0
C  C98  1  0.26119354  0.08778743  0.75117615  1  0.01726  0  -0.087791  -0.127566  0  3.965032  0
C  C99  1  0.20726072  0.07480269  0.68735924  1  -0.048308  0  -0.093127  -0.084366  0  4.041086  0
C  C100  1  0.20265533  0.14139429  0.62028565  1  0.018159  0  -0.093301  -0.084018  0  4.044429  0
C  C101  1  0.25061749  0.21967702  0.61860507  1  -0.127239  0  -0.092741  -0.133821  0  3.983054  0
C  C102  1  0.38077207  0.11356106  0.88615128  1  1.58854  0  0.274384  0.660839  0  4.103284  0
C  C103  1  0.38178370  0.08225647  0.08062225  1  1.554466  0  0.264053  0.637073  0  4.105946  0
C  C104  1  0.88357569  0.88835613  0.11467727  1  1.606376  0  0.270434  0.652727  0  4.133617  0
C  C105  1  0.88648959  0.91836787  0.91802514  1  1.570766  0  0.263851  0.637121  0  4.108283  0
O  O106  1  0.52062972  0.41350721  0.58443949  1  -1.261349  0  -0.228139  -0.591335  0  2.335844  0
O  O107  1  0.18186315  0.43273382  0.44133735  1  -1.259803  0  -0.240357  -0.601783  0  2.353769  0
O  O108  1  0.01893900  0.58461457  0.41448956  1  -1.256105  0  -0.227017  -0.585994  0  2.333184  0
O  O109  1  0.18083803  0.41050571  0.58702862  1  -1.253787  0  -0.228239  -0.58713  0  2.333455  0
O  O110  1  0.01811041  0.55947102  0.56351817  1  -1.256232  0  -0.237042  -0.591541  0  2.353891  0
O  O111  1  0.52221316  0.44105569  0.43486594  1  -1.250178  0  -0.236438  -0.588959  0  2.348665  0
O  O112  1  0.34616151  0.54951707  0.49146274  1  -1.430197  0  -0.449256  -0.991107  0  2.199729  0
O  O113  1  0.67723187  0.56656216  0.55893049  1  -1.262489  0  -0.241239  -0.603148  0  2.346615  0
O  O114  1  0.67890483  0.58903945  0.41302971  1  -1.253855  0  -0.227109  -0.582329  0  2.331054  0
O  O115  1  0.84802298  0.44928085  0.50899464  1  -1.437603  0  -0.449074  -0.990282  0  2.187344  0
O  O116  1  0.21202419  0.06060237  0.06324697  1  -1.249574  0  -0.236198  -0.588452  0  2.353637  0
O  O117  1  0.55325683  0.08821575  0.91213172  1  -1.2585  0  -0.227135  -0.58456  0  2.335586  0
O  O118  1  0.71598065  0.94001804  0.93584878  1  -1.250393  0  -0.236067  -0.589261  0  2.355276  0
O  O119  1  0.55236631  0.06825648  0.05673133  1  -1.255163  0  -0.239117  -0.601877  0  2.365234  0
O  O120  1  0.71537098  0.91380775  0.08477286  1  -1.248225  0  -0.229725  -0.590627  0  2.346279  0
O  O121  1  0.21334159  0.08518091  0.91481652  1  -1.259152  0  -0.228582  -0.591187  0  2.33864  0
O  O122  1  0.38781430  0.94959902  0.00908882  1  -1.432372  0  -0.448799  -0.989684  0  2.191801  0
O  O123  1  0.05565408  0.91243844  0.08837331  1  -1.251153  0  -0.228207  -0.586245  0  2.346869  0
O  O124  1  0.05665036  0.93188484  0.94196589  1  -1.257123  0  -0.240197  -0.600497  0  2.34351  0
O  O125  1  0.88594929  0.04958668  0.99089238  1  -1.429198  0  -0.447985  -0.989195  0  2.196976  0
F  F126  1  0.67746772  0.86985868  0.44915689  1  -0.628536  0  -0.111046  -0.156988  0  1.290701  0
F  F127  1  0.81918499  0.98007190  0.19773589  1  -0.632462  0  -0.069167  -0.108247  0  1.393057  0
