# generated using pymatgen
data_CuH14C10SN2O7
_symmetry_space_group_name_H-M   'P 1'
_cell_length_a   7.17888483
_cell_length_b   10.14846157
_cell_length_c   11.11695287
_cell_angle_alpha   62.83645591
_cell_angle_beta   83.49386089
_cell_angle_gamma   75.52096361
_symmetry_Int_Tables_number   1
_chemical_formula_structural   CuH14C10SN2O7
_chemical_formula_sum   'Cu2 H28 C20 S2 N4 O14'
_cell_volume   697.70596637
_cell_formula_units_Z   2
loop_
 _symmetry_equiv_pos_site_id
 _symmetry_equiv_pos_as_xyz
  1  'x, y, z'
loop_
 _atom_site_type_symbol
 _atom_site_label
 _atom_site_symmetry_multiplicity
 _atom_site_fract_x
 _atom_site_fract_y
 _atom_site_fract_z
 _atom_site_occupancy
 _atom_site_pbe_cm5_charge
 _atom_site_pbe_ddec_charge
 _atom_site_pbe_ddec_spin_density
 _atom_site_pbe_ddec_sum_bond_order
 _atom_site_pbe_magmom
Cu  Cu0  1  0.47455692  0.83025526  0.54268352  1  0.739858  0.8195  -0.774218  2.15537  -0.593
Cu  Cu1  1  0.97461735  0.37298046  0.45735237  1  0.740045  0.820673  0.774506  2.154634  0.593
H  H2  1  0.55014680  0.04331388  0.25013729  1  0.123685  0.089451  -0.001057  1.031294  -0.002
H  H3  1  0.05067197  0.29323831  0.75018283  1  0.12344  0.088957  0.001055  1.03143  0.002
H  H4  1  0.52306948  0.05565385  0.02977337  1  0.117869  0.146477  -0.000572  1.010844  -0.001
H  H5  1  0.02333188  0.08515404  0.97037071  1  0.118133  0.147076  0.000572  1.0106  0.001
H  H6  1  0.43414112  0.59393296  0.23867710  1  0.111763  0.124119  -0.000374  1.007262  -0.001
H  H7  1  0.93511801  0.83253674  0.76104784  1  0.111801  0.124545  0.000371  1.00652  0.001
H  H8  1  0.44428803  0.60932443  0.45080309  1  0.119421  0.088803  -0.001002  1.039041  -0.002
H  H9  1  0.94517144  0.06026032  0.54904754  1  0.119177  0.088516  0.001001  1.038427  0.002
H  H10  1  0.41924105  0.60498300  0.83014150  1  0.123611  0.10483  -0.001181  1.017241  -0.002
H  H11  1  0.91952951  0.43497061  0.16994970  1  0.123226  0.104587  0.00118  1.018434  0.002
H  H12  1  0.42386161  0.59386040  0.05606934  1  0.117229  0.129549  -0.000642  0.984458  -0.001
H  H13  1  0.92465453  0.64952533  0.94393054  1  0.117535  0.129945  0.000641  0.984131  0.001
H  H14  1  0.50356122  0.05739110  0.85505096  1  0.112377  0.127151  -0.000565  1.043977  -0.001
H  H15  1  0.00285374  0.91263273  0.14482855  1  0.112318  0.127101  0.000566  1.044124  0.001
H  H16  1  0.50262184  0.04482858  0.64060897  1  0.121322  0.103763  -0.001212  1.009605  -0.002
H  H17  1  0.00146554  0.68582584  0.35937421  1  0.121137  0.103958  0.001214  1.008775  0.002
H  H18  1  0.81440992  0.70812742  0.55614517  1  0.28573  0.378869  -0.000374  0.965328  0.0
H  H19  1  0.31449474  0.26411511  0.44387289  1  0.285792  0.378483  0.000378  0.965872  0.0
H  H20  1  0.82039024  0.88179021  0.46611859  1  0.288972  0.382221  -0.000653  0.966838  -0.001
H  H21  1  0.32071030  0.34769901  0.53385910  1  0.289172  0.382788  0.000648  0.966207  0.001
H  H22  1  0.13018268  0.85390402  0.48353091  1  0.292016  0.390859  -0.000601  0.949135  0.0
H  H23  1  0.63031424  0.33749845  0.51646017  1  0.291773  0.390144  0.000603  0.950433  0.0
H  H24  1  0.21503686  0.68380234  0.60698610  1  0.288525  0.387609  -0.0009  0.955971  -0.001
H  H25  1  0.71483173  0.29118466  0.39287187  1  0.288688  0.387487  0.000895  0.956069  0.001
H  H26  1  0.28595810  0.13077596  0.36789547  1  0.293548  0.400749  2.3e-05  0.935718  0.0
H  H27  1  0.78574662  0.49865084  0.63215031  1  0.293115  0.39996  -2.2e-05  0.936646  0.0
H  H28  1  0.51375175  0.13421229  0.37277382  1  0.291701  0.393549  3.4e-05  0.944054  0.0
H  H29  1  0.01352220  0.50692996  0.62718189  1  0.291852  0.393438  -3.5e-05  0.944448  0.0
C  C30  1  0.51765666  0.94753623  0.24420480  1  0.05217  0.107276  -0.000748  3.92421  0.0
C  C31  1  0.01817418  0.19160594  0.75595952  1  0.051542  0.107676  0.000759  3.923182  0.0
C  C32  1  0.50710581  0.95162424  0.11883080  1  -0.067312  -0.141145  -0.004234  3.860359  -0.005
C  C33  1  0.00751250  0.07025551  0.88125634  1  -0.06668  -0.140951  0.004237  3.860424  0.005
C  C34  1  0.47530186  0.82475112  0.11085144  1  0.014842  0.096554  0.00195  3.961053  0.002
C  C35  1  0.97577224  0.93545263  0.88909220  1  0.01506  0.097369  -0.001952  3.961501  -0.002
C  C36  1  0.45527181  0.69882402  0.23352704  1  -0.074393  -0.151506  -0.003672  3.915667  -0.004
C  C37  1  0.95606482  0.93225286  0.76633358  1  -0.074845  -0.153152  0.003667  3.917128  0.004
C  C38  1  0.46206456  0.70505727  0.35495283  1  0.047474  0.106469  0.000134  3.919966  0.001
C  C39  1  0.96284105  0.06000902  0.64497710  1  0.047923  0.107875  -0.000149  3.917907  -0.001
C  C40  1  0.43714690  0.70232542  0.84111960  1  0.052501  0.102867  -0.00061  3.90296  0.0
C  C41  1  0.93725764  0.54335745  0.15891565  1  0.052294  0.101872  0.000603  3.905375  0.0
C  C42  1  0.44112773  0.69775985  0.96762474  1  -0.075888  -0.1665  -0.004238  3.931531  -0.005
C  C43  1  0.94151675  0.66517286  0.03235422  1  -0.075854  -0.166287  0.004229  3.931972  0.005
C  C44  1  0.46747224  0.82439625  0.97870179  1  0.01149  0.092228  0.002031  3.984182  0.002
C  C45  1  0.96761490  0.80298878  0.02122712  1  0.011854  0.092253  -0.002029  3.983189  -0.002
C  C46  1  0.48728490  0.95227551  0.85767525  1  -0.07598  -0.163297  -0.004144  3.924723  -0.005
C  C47  1  0.98679313  0.81004432  0.14225861  1  -0.075914  -0.16435  0.004144  3.925073  0.005
C  C48  1  0.48484705  0.94765408  0.73516197  1  0.047355  0.095478  -0.000262  3.929876  0.0
C  C49  1  0.98410445  0.68302045  0.26482734  1  0.047566  0.095219  0.000264  3.930014  0.0
S  S50  1  0.42676803  0.39846567  0.72435385  1  0.554282  1.407146  -3.4e-05  6.414571  0.0
S  S51  1  0.92659299  0.12322619  0.27568511  1  0.553537  1.406013  3.3e-05  6.416267  0.0
N  N52  1  0.49201344  0.82767606  0.36111689  1  -0.349625  -0.253587  -0.061231  3.617468  -0.079
N  N53  1  0.99261151  0.18878186  0.63895501  1  -0.349965  -0.255693  0.061172  3.61733  0.079
N  N54  1  0.46035441  0.82526743  0.72639269  1  -0.342602  -0.211373  -0.0629  3.583362  -0.08
N  N55  1  0.95995788  0.55178739  0.27362532  1  -0.342561  -0.210031  0.062866  3.584254  0.08
O  O56  1  0.75624819  0.81298430  0.54917651  1  -0.58923  -0.741535  -0.062171  2.184969  -0.083
O  O57  1  0.25632884  0.36201824  0.45079256  1  -0.589351  -0.741649  0.062115  2.185195  0.083
O  O58  1  0.20908430  0.79651618  0.56884255  1  -0.58177  -0.753926  -0.058896  2.223727  -0.078
O  O59  1  0.70899104  0.36559185  0.43116425  1  -0.581748  -0.753409  0.058784  2.224193  0.078
O  O60  1  0.39660047  0.10807619  0.42746845  1  -0.575352  -0.784122  0.00105  2.101352  0.001
O  O61  1  0.89612724  0.53568166  0.57253675  1  -0.575335  -0.783429  -0.001036  2.101282  -0.001
O  O62  1  0.56481148  0.49895410  0.68873500  1  -0.368769  -0.703057  0.000606  2.242197  0.0
O  O63  1  0.06460535  0.18765850  0.31195659  1  -0.36875  -0.703341  -0.000606  2.244148  0.0
O  O64  1  0.42652865  0.29495293  0.86786171  1  -0.363757  -0.629765  0.000838  2.108202  0.001
O  O65  1  0.92688668  0.16349236  0.13211346  1  -0.363356  -0.629239  -0.00084  2.107958  -0.001
O  O66  1  0.47649570  0.30839561  0.64256738  1  -0.367954  -0.680664  0.002835  2.229292  0.004
O  O67  1  0.97598248  0.95127903  0.35740018  1  -0.36766  -0.680656  -0.002841  2.231059  -0.004
O  O68  1  0.22955679  0.50239802  0.67787938  1  -0.374948  -0.694862  -0.000277  2.20756  0.0
O  O69  1  0.72930077  0.18094620  0.32166185  1  -0.375121  -0.693929  0.000271  2.204679  0.0
