# generated using pymatgen
data_CuH11C19N3O5
_symmetry_space_group_name_H-M   'P 1'
_cell_length_a   18.19818791
_cell_length_b   18.19822574
_cell_length_c   19.32461342
_cell_angle_alpha   61.90726346
_cell_angle_beta   61.90736739
_cell_angle_gamma   59.99959786
_symmetry_Int_Tables_number   1
_chemical_formula_structural   CuH11C19N3O5
_chemical_formula_sum   'Cu6 H66 C114 N18 O30'
_cell_volume   4651.44587978
_cell_formula_units_Z   6
loop_
 _symmetry_equiv_pos_site_id
 _symmetry_equiv_pos_as_xyz
  1  'x, y, z'
loop_
 _atom_site_type_symbol
 _atom_site_label
 _atom_site_symmetry_multiplicity
 _atom_site_fract_x
 _atom_site_fract_y
 _atom_site_fract_z
 _atom_site_occupancy
 _atom_site_pbe_bader_charge
 _atom_site_pbe_bader_spin_density
 _atom_site_pbe_cm5_charge
 _atom_site_pbe_ddec_charge
 _atom_site_pbe_ddec_spin_density
 _atom_site_pbe_ddec_sum_bond_order
 _atom_site_pbe_magmom
Cu  Cu0  1  0.46752828  0.03621391  0.43834656  1  1.079512  -0.550156  0.686538  0.778229  -0.70465  2.373313  -0.547
Cu  Cu1  1  0.05792735  0.46751640  0.43833921  1  1.078629  0.550065  0.686452  0.778169  0.704707  2.372029  0.547
Cu  Cu2  1  0.03622536  0.05792913  0.43833546  1  1.080292  -0.55029  0.686977  0.77916  -0.704578  2.371547  -0.548
Cu  Cu3  1  0.53249206  0.94208127  0.56164931  1  1.078493  0.550284  0.686508  0.778433  0.704976  2.371607  0.547
Cu  Cu4  1  0.96378470  0.53247214  0.56164787  1  1.07919  -0.550045  0.686554  0.778198  -0.70453  2.373446  -0.547
Cu  Cu5  1  0.94206629  0.96379049  0.56165351  1  1.078354  0.550153  0.686865  0.779137  0.704296  2.371182  0.547
H  H6  1  0.13739788  0.35825812  0.71940110  1  0.089189  -0.000303  0.108197  0.120261  -0.000257  0.997622  0.0
H  H7  1  0.78495201  0.13739469  0.71941818  1  0.101632  0.000298  0.108403  0.120562  0.000256  0.996839  0.0
H  H8  1  0.35824357  0.78492298  0.71939033  1  0.074705  0.000298  0.108268  0.120216  0.000252  0.997267  0.0
H  H9  1  0.86259007  0.21507694  0.28058553  1  0.101579  -0.000286  0.10833  0.120491  -0.000251  0.996929  0.0
H  H10  1  0.64174200  0.86259733  0.28060245  1  0.089248  -0.000304  0.10817  0.120221  -0.000257  0.99771  0.0
H  H11  1  0.21505847  0.64177630  0.28059117  1  0.074532  0.000311  0.108322  0.120299  0.000257  0.997234  0.0
H  H12  1  0.26821291  0.24944552  0.51910960  1  0.114126  -1.1e-05  0.109887  0.124251  -1.8e-05  1.0185  0.0
H  H13  1  0.96322895  0.26819756  0.51910378  1  0.122525  1.6e-05  0.109637  0.123553  1.9e-05  1.019089  0.0
H  H14  1  0.24941974  0.96323304  0.51915003  1  0.125413  -0.000446  0.109742  0.123958  -0.000439  1.01884  0.0
H  H15  1  0.73181136  0.03676918  0.48088742  1  0.122701  0.000443  0.109594  0.123468  0.00044  1.019041  0.0
H  H16  1  0.75056009  0.73179234  0.48088633  1  0.114126  -1.1e-05  0.109862  0.124231  -1.8e-05  1.018451  0.0
H  H17  1  0.03677364  0.75057813  0.48085195  1  0.125419  6e-06  0.109752  0.123953  1.7e-05  1.018778  0.0
H  H18  1  0.36752719  0.11281993  0.72704096  1  0.171029  0.000318  0.109684  0.134228  0.000304  1.028875  0.0
H  H19  1  0.79261376  0.36752896  0.72703325  1  0.140684  -0.000324  0.109547  0.132634  -0.000304  1.030166  0.0
H  H20  1  0.11277114  0.79258278  0.72708768  1  0.165994  0.000304  0.110021  0.13528  0.000296  1.027743  0.0
H  H21  1  0.63249262  0.20736590  0.27295036  1  0.140338  -0.000313  0.109605  0.132723  -0.000297  1.030152  0.0
H  H22  1  0.88718109  0.63246780  0.27295821  1  0.171088  0.000318  0.109697  0.1343  0.000304  1.028758  0.0
H  H23  1  0.20744556  0.88720731  0.27292886  1  0.165458  -0.000315  0.109978  0.133431  -0.000305  1.029814  0.0
H  H24  1  0.18698519  0.28606850  0.82860403  1  0.439378  -3.3e-05  0.318495  0.266785  -1.2e-05  0.950568  0.0
H  H25  1  0.69838391  0.18694056  0.82858538  1  0.450462  3.4e-05  0.31867  0.266802  1.2e-05  0.950853  0.0
H  H26  1  0.28607392  0.69835587  0.82858859  1  0.443265  -4.2e-05  0.318598  0.266448  -3.2e-05  0.950595  0.0
H  H27  1  0.81305485  0.30162641  0.17140566  1  0.450464  4.2e-05  0.318614  0.266686  3.2e-05  0.95095  0.0
H  H28  1  0.71393487  0.81300529  0.17139981  1  0.439403  -3.4e-05  0.318534  0.26678  -1.2e-05  0.950621  0.0
H  H29  1  0.30164664  0.71393085  0.17140788  1  0.443083  3.3e-05  0.318527  0.266394  1.2e-05  0.950666  0.0
H  H30  1  0.30156002  0.05004682  0.00856730  1  0.069892  -0.0  0.10362  0.101908  0.0  1.066693  0.0
H  H31  1  0.63985021  0.30159640  0.00850979  1  0.082598  -0.0  0.103668  0.102001  -0.0  1.066595  0.0
H  H32  1  0.05005652  0.63982328  0.00853589  1  0.066452  0.0  0.103631  0.102076  0.0  1.066277  0.0
H  H33  1  0.69839559  0.36015164  0.99149354  1  0.082022  -0.0  0.103671  0.101972  -1e-06  1.066594  0.0
H  H34  1  0.94995726  0.69843430  0.99143339  1  0.070061  0.0  0.103615  0.101871  0.0  1.066709  0.0
H  H35  1  0.36018307  0.94994607  0.99146636  1  0.066432  -0.0  0.103671  0.102126  -0.0  1.066306  0.0
H  H36  1  0.24617313  0.06500870  0.14507260  1  0.102242  6e-06  0.111605  0.122319  -0.0  0.998314  0.0
H  H37  1  0.54373191  0.24625178  0.14500105  1  0.10078  2e-06  0.111513  0.122543  -2e-06  0.998167  0.0
H  H38  1  0.06506549  0.54373616  0.14498929  1  0.098398  -4e-06  0.111502  0.121878  1e-06  0.998656  0.0
H  H39  1  0.75374311  0.45626408  0.85499837  1  0.10077  4e-06  0.111513  0.122564  -1e-06  0.998125  0.0
H  H40  1  0.93499210  0.75382553  0.85492909  1  0.102261  -2e-06  0.111598  0.122316  2e-06  0.998285  0.0
H  H41  1  0.45626626  0.93493383  0.85501215  1  0.098897  -6e-06  0.111526  0.121865  0.0  0.998618  0.0
H  H42  1  0.12872809  0.35099635  0.04210984  1  0.075314  1e-06  0.1039  0.105667  1e-06  1.00002  0.0
H  H43  1  0.47817836  0.12873750  0.04212468  1  0.060423  1e-06  0.103749  0.105518  1e-06  1.000687  0.0
H  H44  1  0.35100983  0.47818321  0.04207471  1  0.040498  -1e-06  0.104096  0.105963  -1e-06  0.999537  0.0
H  H45  1  0.87125962  0.52181898  0.95787477  1  0.06013  1e-06  0.103735  0.105563  1e-06  1.000625  0.0
H  H46  1  0.64900536  0.87127231  0.95789381  1  0.075363  -1e-06  0.103919  0.105706  -1e-06  0.999992  0.0
H  H47  1  0.52181209  0.64899164  0.95792936  1  0.040613  -1e-06  0.104126  0.105985  -1e-06  0.999519  0.0
H  H48  1  0.18673129  0.33472891  0.90524035  1  0.047954  -1e-06  0.104245  0.098521  -1e-06  1.002698  0.0
H  H49  1  0.57330851  0.18669145  0.90526781  1  0.040745  2e-06  0.104392  0.098539  2e-06  1.002053  0.0
H  H50  1  0.33476864  0.57331747  0.90520918  1  0.042166  -3e-06  0.104576  0.09947  -1e-06  1.002854  0.0
H  H51  1  0.81329712  0.42669592  0.09473440  1  0.040489  3e-06  0.104421  0.09861  1e-06  1.002013  0.0
H  H52  1  0.66527344  0.81326742  0.09476127  1  0.047993  -2e-06  0.104232  0.098521  -2e-06  1.002731  0.0
H  H53  1  0.42668370  0.66523475  0.09479596  1  0.042112  1e-06  0.104566  0.099485  1e-06  1.002987  0.0
H  H54  1  0.16077129  0.34511613  0.14923642  1  0.083497  -2.3e-05  0.110177  0.072945  -9e-06  1.009913  0.0
H  H55  1  0.34489567  0.16080321  0.14922702  1  0.086481  -2e-05  0.110677  0.073557  -6e-06  1.008823  0.0
H  H56  1  0.34508014  0.34487986  0.14923682  1  0.083737  2.4e-05  0.110524  0.073514  9e-06  1.009243  0.0
H  H57  1  0.83919448  0.65509665  0.85077576  1  0.086574  -2.4e-05  0.110626  0.073463  -9e-06  1.008743  0.0
H  H58  1  0.65488337  0.83922486  0.85077013  1  0.083369  2e-05  0.110151  0.072918  7e-06  1.009916  0.0
H  H59  1  0.65511704  0.65492069  0.85077008  1  0.083546  2.3e-05  0.110541  0.073556  9e-06  1.009173  0.0
H  H60  1  0.07309884  0.22986476  0.40194264  1  0.106565  1.8e-05  0.13393  0.083978  7e-06  0.96994  0.0
H  H61  1  0.29509214  0.07306815  0.40192764  1  0.118561  -5e-06  0.133649  0.083084  1e-06  0.97023  0.0
H  H62  1  0.22989129  0.29513979  0.40192690  1  0.136829  -1.7e-05  0.133684  0.083283  -7e-06  0.970102  0.0
H  H63  1  0.92694257  0.70488946  0.59807571  1  0.118224  1.8e-05  0.133625  0.083037  7e-06  0.970331  0.0
H  H64  1  0.77012781  0.92689978  0.59806231  1  0.106581  5e-06  0.133927  0.083939  -2e-06  0.969846  0.0
H  H65  1  0.70486070  0.77010161  0.59807925  1  0.136927  -1.7e-05  0.133706  0.083294  -8e-06  0.970063  0.0
H  H66  1  0.12543424  0.09164189  0.25501062  1  0.104932  5.9e-05  0.126848  0.102458  4.2e-05  0.982643  0.0
H  H67  1  0.52792962  0.12543649  0.25502179  1  0.101066  6e-05  0.12696  0.102813  4.3e-05  0.981495  0.0
H  H68  1  0.09161067  0.52793978  0.25500975  1  0.113868  -6e-05  0.126845  0.102682  -4.3e-05  0.981809  0.0
H  H69  1  0.87457032  0.47205984  0.74497951  1  0.100855  6e-05  0.126952  0.10281  4.3e-05  0.981451  0.0
H  H70  1  0.90835947  0.87456062  0.74498871  1  0.104976  -6e-05  0.12685  0.102436  -4.2e-05  0.982637  0.0
H  H71  1  0.47205435  0.90838375  0.74499500  1  0.113926  -5.9e-05  0.126832  0.102639  -4.2e-05  0.981887  0.0
C  C72  1  0.39238931  0.10308199  0.57873832  1  1.560185  -0.000988  0.21666  0.580402  -0.00088  4.148882  -0.002
C  C73  1  0.92577069  0.39239900  0.57867441  1  1.569435  0.000985  0.217001  0.58183  0.000876  4.146926  0.002
C  C74  1  0.10305307  0.92575617  0.57875137  1  1.544057  -0.000755  0.216773  0.581297  -0.000695  4.145136  -0.001
C  C75  1  0.60760162  0.07423264  0.42131951  1  1.569462  0.000724  0.217041  0.581889  0.000688  4.146824  0.001
C  C76  1  0.89691782  0.60761314  0.42126071  1  1.560043  -0.000987  0.216689  0.58055  -0.000879  4.148443  -0.002
C  C77  1  0.07424284  0.89695026  0.42124679  1  1.544349  0.001016  0.216818  0.581351  0.000881  4.145044  0.002
C  C78  1  0.25270722  0.23525040  0.73211493  1  0.299599  -4e-06  0.095981  0.242596  -6e-06  4.03588  0.0
C  C79  1  0.77994235  0.25271169  0.73209393  1  0.321279  -2e-06  0.096364  0.243136  6e-06  4.035339  0.0
C  C80  1  0.23522215  0.77994439  0.73212383  1  0.284429  -0.001191  0.096589  0.243104  -0.000826  4.038183  -0.001
C  C81  1  0.74728603  0.22006646  0.26790091  1  0.320407  0.001183  0.096463  0.243233  0.000826  4.035409  0.001
C  C82  1  0.76474671  0.74729155  0.26788349  1  0.299391  -3e-06  0.095968  0.242592  -6e-06  4.036083  0.0
C  C83  1  0.22005956  0.76477776  0.26787451  1  0.285413  -1.6e-05  0.09666  0.243367  5e-06  4.037964  0.0
C  C84  1  0.19102017  0.30648339  0.69157266  1  -0.009419  0.001078  -0.084755  -0.193203  0.000658  3.927178  0.001
C  C85  1  0.81090945  0.19104584  0.69154294  1  -0.045705  -0.001075  -0.084619  -0.193057  -0.000657  3.927575  -0.001
C  C86  1  0.30646066  0.81092180  0.69156452  1  0.065253  -0.00101  -0.084799  -0.193131  -0.000625  3.929137  -0.001
C  C87  1  0.80894530  0.18911205  0.30845449  1  -0.045089  0.001025  -0.084615  -0.19299  0.000623  3.927648  0.001
C  C88  1  0.69351608  0.80897735  0.30842873  1  -0.009132  0.001078  -0.084715  -0.193127  0.000659  3.92728  0.001
C  C89  1  0.18907100  0.69354963  0.30842490  1  0.06469  -0.001055  -0.084875  -0.193298  -0.000656  3.929489  -0.001
C  C90  1  0.19662540  0.31176440  0.61500011  1  -0.054281  0.001262  -0.013785  -0.003387  0.00087  3.996601  0.001
C  C91  1  0.87653252  0.19667241  0.61494859  1  -0.019221  -0.00122  -0.014703  -0.00533  -0.000873  3.998783  -0.001
C  C92  1  0.31176482  0.87656939  0.61498458  1  -0.029676  5.9e-05  -0.013793  -0.003738  5e-05  3.99675  0.0
C  C93  1  0.80332503  0.12348046  0.38504627  1  -0.019912  -0.000108  -0.014623  -0.005265  -6.1e-05  3.998862  0.0
C  C94  1  0.68823363  0.80338030  0.38499933  1  -0.054505  0.001262  -0.013792  -0.003443  0.00087  3.996562  0.001
C  C95  1  0.12342460  0.68824588  0.38500561  1  -0.03003  -0.001254  -0.013906  -0.003959  -0.000878  3.997035  -0.001
C  C96  1  0.26370784  0.24593828  0.57852473  1  -0.032277  0.00028  -0.077885  -0.112514  0.000184  3.925821  0.0
C  C97  1  0.91175157  0.26376172  0.57846738  1  0.018936  -0.000283  -0.077476  -0.111022  -0.000185  3.925492  0.0
C  C98  1  0.24591072  0.91179836  0.57854014  1  -0.034157  0.00132  -0.077907  -0.111917  0.000794  3.923213  0.001
C  C99  1  0.73624400  0.08825058  0.42152184  1  0.020294  -0.001281  -0.077445  -0.110924  -0.000794  3.925456  -0.001
C  C100  1  0.75406018  0.73629696  0.42147405  1  -0.032257  0.000286  -0.077905  -0.112485  0.000188  3.925748  0.0
C  C101  1  0.08820168  0.75409389  0.42145719  1  -0.033589  -0.000273  -0.077926  -0.11185  -0.000181  3.923179  0.0
C  C102  1  0.32441323  0.17434557  0.61906969  1  0.0237  -0.000574  -0.011524  -0.006243  -0.000351  3.976466  0.0
C  C103  1  0.88211289  0.32445390  0.61901028  1  -0.021391  0.000579  -0.01165  -0.007193  0.000354  3.974363  0.0
C  C104  1  0.17431878  0.88212311  0.61908077  1  -0.00201  0.000731  -0.011636  -0.006739  0.000586  3.974021  0.001
C  C105  1  0.67555637  0.11787955  0.38097853  1  -0.021812  -0.000729  -0.011659  -0.00713  -0.00058  3.97451  -0.001
C  C106  1  0.82565092  0.67559064  0.38092794  1  0.023319  -0.000573  -0.011471  -0.006256  -0.000351  3.976484  0.0
C  C107  1  0.11788581  0.82567934  0.38092062  1  -0.001958  0.000547  -0.011608  -0.00669  0.000345  3.973678  0.0
C  C108  1  0.32010237  0.16849780  0.69573704  1  0.017231  -0.000584  -0.07975  -0.17643  -0.000347  3.874693  -0.001
C  C109  1  0.81564217  0.32013321  0.69570437  1  -0.001344  0.000584  -0.079741  -0.174818  0.000345  3.873326  0.001
C  C110  1  0.16846773  0.81562323  0.69575680  1  -0.000401  -0.001196  -0.080158  -0.177696  -0.00076  3.874663  -0.001
C  C111  1  0.67988094  0.18434864  0.30428129  1  -0.001527  0.001215  -0.079814  -0.174995  0.00076  3.873556  0.001
C  C112  1  0.83150027  0.67989637  0.30426062  1  0.017631  -0.000575  -0.079742  -0.176504  -0.000341  3.874583  -0.001
C  C113  1  0.18439254  0.83152330  0.30424789  1  -0.000235  0.000574  -0.080131  -0.176228  0.000352  3.875458  0.001
C  C114  1  0.12869514  0.38508693  0.57302313  1  1.585614  0.00052  0.215223  0.581587  0.000619  4.160913  0.0
C  C115  1  0.91316214  0.12872579  0.57299742  1  1.567991  -0.000559  0.215562  0.583227  -0.00062  4.16214  0.0
C  C116  1  0.38510143  0.91314071  0.57304865  1  1.56234  -0.000305  0.214606  0.581186  -0.000434  4.16097  0.0
C  C117  1  0.87127353  0.08685268  0.42699591  1  1.567924  0.000289  0.215619  0.583194  0.000426  4.161953  0.0
C  C118  1  0.61491628  0.87130663  0.42697818  1  1.585571  0.000519  0.215281  0.581636  0.000619  4.16071  0.0
C  C119  1  0.08685551  0.61490399  0.42694915  1  1.562576  -0.000574  0.214687  0.581345  -0.000624  4.160949  0.0
C  C120  1  0.28404448  0.17086960  0.86687932  1  1.413333  4.2e-05  0.238313  0.471511  3.4e-05  4.131636  0.0
C  C121  1  0.67822970  0.28401730  0.86683469  1  1.411548  -3.8e-05  0.23851  0.472266  -3.1e-05  4.133127  0.0
C  C122  1  0.17088867  0.67822636  0.86684414  1  1.384321  -3.1e-05  0.238488  0.472196  -2.8e-05  4.133399  0.0
C  C123  1  0.71598099  0.32177336  0.13316280  1  1.41131  3e-05  0.238442  0.472132  2.8e-05  4.133201  0.0
C  C124  1  0.82912811  0.71595069  0.13312158  1  1.413341  3.8e-05  0.238397  0.471494  3.1e-05  4.13169  0.0
C  C125  1  0.32177742  0.82911522  0.13315981  1  1.383841  -4.2e-05  0.238523  0.472281  -3.4e-05  4.133525  0.0
C  C126  1  0.24736425  0.18976495  0.94699558  1  -0.09564  -2.5e-05  -0.018168  -0.040661  -1.6e-05  4.002532  0.0
C  C127  1  0.61597430  0.24729113  0.94697228  1  -0.043252  -6.8e-05  -0.018333  -0.041331  -4.5e-05  4.003459  0.0
C  C128  1  0.18978639  0.61591521  0.94694375  1  -0.100463  2.1e-05  -0.018033  -0.039603  1.4e-05  4.001918  0.0
C  C129  1  0.75269904  0.38402819  0.05303058  1  -0.043088  -2.1e-05  -0.018392  -0.041151  -1.4e-05  4.003391  0.0
C  C130  1  0.81023692  0.75263028  0.05300629  1  -0.094906  6.9e-05  -0.018118  -0.040518  4.5e-05  4.002502  0.0
C  C131  1  0.38408916  0.81021574  0.05305927  1  -0.100481  2.5e-05  -0.017975  -0.039386  1.5e-05  4.001676  0.0
C  C132  1  0.26350963  0.11584140  0.01601804  1  0.071633  2e-05  -0.078617  -0.076025  1.3e-05  3.974393  0.0
C  C133  1  0.60465812  0.26353704  0.01596463  1  0.015483  1.5e-05  -0.078863  -0.075867  9e-06  3.972077  0.0
C  C134  1  0.11586938  0.60464446  0.01595536  1  0.030615  -1.9e-05  -0.07902  -0.076948  -1.3e-05  3.973425  0.0
C  C135  1  0.73645658  0.39534152  0.98403793  1  0.015395  1.9e-05  -0.078933  -0.076074  1.3e-05  3.97206  0.0
C  C136  1  0.88415910  0.73648533  0.98398539  1  0.070282  -1.5e-05  -0.078641  -0.076098  -9e-06  3.97444  0.0
C  C137  1  0.39536120  0.88413351  0.98404771  1  0.030003  -1.9e-05  -0.079061  -0.077116  -1.3e-05  3.973507  0.0
C  C138  1  0.23151026  0.12482682  0.09346052  1  -0.092514  -4.6e-05  -0.0828  -0.125598  -3.2e-05  3.954552  0.0
C  C139  1  0.55018535  0.23159947  0.09338921  1  -0.071651  -4.5e-05  -0.082768  -0.126664  -3e-05  3.952186  0.0
C  C140  1  0.12487542  0.55018758  0.09337288  1  -0.065684  4e-05  -0.0825  -0.124974  2.7e-05  3.954634  0.0
C  C141  1  0.76839296  0.44981191  0.90661232  1  -0.071819  -4e-05  -0.082664  -0.126509  -2.7e-05  3.952012  0.0
C  C142  1  0.87517496  0.76848709  0.90654227  1  -0.092178  4.5e-05  -0.082758  -0.125481  3.1e-05  3.954148  0.0
C  C143  1  0.44981438  0.87512572  0.90663164  1  -0.065516  4.6e-05  -0.082501  -0.124911  3.1e-05  3.954798  0.0
C  C144  1  0.18214243  0.20956779  0.10453756  1  -0.017427  4.7e-05  -0.006947  0.070782  2.4e-05  4.033256  0.0
C  C145  1  0.50378632  0.18215809  0.10452113  1  -0.048613  5.5e-05  -0.006209  0.072464  3.1e-05  4.030761  0.0
C  C146  1  0.20958561  0.50373953  0.10449306  1  -0.003309  -5.1e-05  -0.00664  0.071432  -2.8e-05  4.031024  0.0
C  C147  1  0.81783761  0.49620846  0.89548265  1  -0.048313  5.1e-05  -0.006203  0.072471  2.8e-05  4.03071  0.0
C  C148  1  0.79043342  0.81785678  0.89546397  1  -0.01741  -5.5e-05  -0.006962  0.070742  -3.1e-05  4.03302  0.0
C  C149  1  0.49625597  0.79041603  0.89551270  1  -0.00354  -4.7e-05  -0.006688  0.071404  -2.4e-05  4.031048  0.0
C  C150  1  0.16690490  0.28445810  0.03519436  1  -0.086121  -5e-05  -0.091668  -0.133639  -3.1e-05  3.985313  0.0
C  C151  1  0.51352888  0.16683815  0.03521425  1  -0.016396  -5.1e-05  -0.091761  -0.134344  -3.3e-05  3.986637  0.0
C  C152  1  0.28446847  0.51349167  0.03516113  1  0.013139  5e-05  -0.092044  -0.133941  3.2e-05  3.983806  0.0
C  C153  1  0.83315690  0.48646634  0.96478912  1  -0.016072  -5e-05  -0.091692  -0.134354  -3.2e-05  3.986426  0.0
C  C154  1  0.71554403  0.83309420  0.96480773  1  -0.086194  5.2e-05  -0.091702  -0.133667  3.3e-05  3.985382  0.0
C  C155  1  0.48650686  0.71553190  0.96484445  1  0.013222  4.9e-05  -0.092015  -0.133832  3.1e-05  3.983685  0.0
C  C156  1  0.19884496  0.27472747  0.95756809  1  0.008936  1.3e-05  -0.091196  -0.114715  7e-06  4.019049  0.0
C  C157  1  0.56895869  0.19875019  0.95758466  1  -0.045695  2.6e-05  -0.091248  -0.114098  1.7e-05  4.018658  0.0
C  C158  1  0.27474961  0.56891805  0.95752909  1  -0.013057  -2.1e-05  -0.091599  -0.116687  -1.3e-05  4.020423  0.0
C  C159  1  0.80124380  0.43103853  0.04241885  1  -0.045882  2e-05  -0.091294  -0.114254  1.3e-05  4.018337  0.0
C  C160  1  0.72527370  0.80115177  0.04243450  1  0.008888  -2.6e-05  -0.091212  -0.11479  -1.7e-05  4.019086  0.0
C  C161  1  0.43108263  0.72525206  0.04247644  1  -0.012995  -1.3e-05  -0.091703  -0.116937  -7e-06  4.020611  0.0
C  C162  1  0.14901323  0.21748180  0.18724495  1  0.036213  -0.00033  -0.003753  -0.027909  -0.000229  4.011141  0.0
C  C163  1  0.44629109  0.14905008  0.18723484  1  0.005268  -0.000325  -0.003145  -0.027344  -0.000226  4.010107  0.0
C  C164  1  0.21743376  0.44625915  0.18722672  1  0.010796  0.000333  -0.003158  -0.026887  0.00023  4.010441  0.0
C  C165  1  0.85094853  0.55370136  0.81276606  1  0.005662  -0.000331  -0.003324  -0.027548  -0.000229  4.010304  0.0
C  C166  1  0.78251776  0.85098429  0.81275698  1  0.036133  0.000329  -0.003729  -0.027896  0.000228  4.01123  0.0
C  C167  1  0.55373363  0.78256429  0.81277830  1  0.010803  0.000327  -0.00316  -0.026937  0.000227  4.010425  0.0
C  C168  1  0.12456718  0.15030818  0.25839317  1  0.524306  0.000687  0.076061  0.098754  0.000459  3.887779  0.0
C  C169  1  0.46675229  0.12456391  0.25839715  1  0.537081  0.000694  0.075627  0.098383  0.000464  3.887126  0.0
C  C170  1  0.15029126  0.46676670  0.25837058  1  0.529087  -0.00069  0.075912  0.098366  -0.000462  3.886198  0.0
C  C171  1  0.87543942  0.53323918  0.74160266  1  0.536927  0.00069  0.075763  0.098485  0.000462  3.887132  0.0
C  C172  1  0.84969187  0.87542790  0.74160761  1  0.524321  -0.000692  0.076058  0.098802  -0.000464  3.887712  0.0
C  C173  1  0.53322666  0.84970481  0.74163185  1  0.529223  -0.000686  0.075997  0.098624  -0.000458  3.886018  0.0
C  C174  1  0.09481878  0.22695451  0.33987111  1  1.077519  0.000588  0.18621  0.247292  0.000381  3.948685  0.0
C  C175  1  0.33839512  0.09475328  0.33986437  1  1.080237  0.000575  0.186698  0.248871  0.000376  3.94938  0.0
C  C176  1  0.22697297  0.33842222  0.33985881  1  1.074299  -0.000583  0.18649  0.247648  -0.00038  3.950389  0.0
C  C177  1  0.90525237  0.66159430  0.66013986  1  1.080382  0.000583  0.18671  0.248986  0.000381  3.949526  0.0
C  C178  1  0.77304025  0.90518067  0.66013305  1  1.077704  -0.000578  0.186226  0.247391  -0.000376  3.94829  0.0
C  C179  1  0.66157454  0.77302347  0.66014581  1  1.074179  -0.000584  0.186495  0.247716  -0.00038  3.950368  0.0
C  C180  1  0.14215745  0.28998830  0.20105369  1  0.505034  0.000764  0.060786  0.076173  0.000511  3.95326  0.0
C  C181  1  0.36683034  0.14220550  0.20103125  1  0.518121  0.000762  0.059822  0.074861  0.00051  3.952285  0.0
C  C182  1  0.28994043  0.36680999  0.20104218  1  0.514392  -0.000753  0.060443  0.075122  -0.000504  3.952764  0.0
C  C183  1  0.85779452  0.63316050  0.79897172  1  0.517742  0.000755  0.059993  0.075171  0.000503  3.952382  0.0
C  C184  1  0.71001066  0.85783808  0.79895136  1  0.505184  -0.000762  0.060767  0.076046  -0.000511  3.953241  0.0
C  C185  1  0.63318525  0.71005922  0.79896381  1  0.514749  -0.000761  0.060435  0.075049  -0.000509  3.952699  0.0
N  N186  1  0.24084417  0.23496913  0.80966080  1  -1.237764  -5e-06  -0.396296  -0.371151  -3e-06  3.581343  0.0
N  N187  1  0.71455747  0.24080840  0.80963728  1  -1.256422  -6e-06  -0.396664  -0.371678  -4e-06  3.583375  0.0
N  N188  1  0.23497111  0.71454902  0.80965061  1  -1.240781  -0.0003  -0.396773  -0.371089  -0.000194  3.582644  0.0
N  N189  1  0.75918947  0.28544657  0.19035799  1  -1.25609  0.0003  -0.396642  -0.371549  0.000194  3.583602  0.0
N  N190  1  0.76503279  0.75914684  0.19034047  1  -1.237582  6e-06  -0.39633  -0.371102  4e-06  3.58165  0.0
N  N191  1  0.28545435  0.76503072  0.19034982  1  -1.2407  5e-06  -0.396763  -0.371178  3e-06  3.582958  0.0
N  N192  1  0.09755897  0.15483938  0.33410542  1  -1.218431  -0.000398  -0.321691  -0.267318  -0.000576  3.481715  -0.002
N  N193  1  0.41352152  0.09751446  0.33410874  1  -1.209939  -0.000343  -0.32134  -0.267422  -0.000534  3.482031  -0.002
N  N194  1  0.15484945  0.41355264  0.33408636  1  -1.232088  0.000365  -0.321737  -0.267288  0.000549  3.48113  0.002
N  N195  1  0.90249332  0.58646903  0.66589156  1  -1.209714  -0.000345  -0.321373  -0.26744  -0.000535  3.482392  -0.002
N  N196  1  0.84515953  0.90243806  0.66589548  1  -1.218816  0.000372  -0.321698  -0.267369  0.000557  3.481326  0.002
N  N197  1  0.58644257  0.84514569  0.66591573  1  -1.232109  0.00039  -0.321831  -0.26762  0.000566  3.481113  0.002
N  N198  1  0.11538214  0.29525517  0.27647714  1  -1.187395  -0.000446  -0.314505  -0.285279  -0.000333  3.314917  0.0
N  N199  1  0.31292618  0.11537738  0.27645303  1  -1.187467  -0.000413  -0.314804  -0.28583  -0.00032  3.316003  0.0
N  N200  1  0.29524635  0.31293245  0.27646501  1  -1.201696  0.000434  -0.314966  -0.285453  0.000326  3.315889  0.0
N  N201  1  0.88462686  0.68706411  0.72355139  1  -1.187148  -0.000434  -0.314896  -0.286076  -0.000325  3.316103  0.0
N  N202  1  0.70474259  0.88461449  0.72352842  1  -1.187121  0.000417  -0.314511  -0.285198  0.000323  3.3146  0.0
N  N203  1  0.68706522  0.70475220  0.72354046  1  -1.201827  0.00044  -0.314923  -0.285385  0.000331  3.3157  0.0
O  O204  1  0.38649481  0.11396679  0.51110039  1  -1.110265  -0.079053  -0.314212  -0.525658  -0.05141  2.362324  -0.072
O  O205  1  0.98842998  0.38649172  0.51104157  1  -1.122447  0.079062  -0.314183  -0.52633  0.051397  2.362498  0.072
O  O206  1  0.11392956  0.98844116  0.51112950  1  -1.103886  -0.079071  -0.31408  -0.526196  -0.051397  2.362175  -0.072
O  O207  1  0.61351048  0.01157673  0.48895904  1  -1.122215  0.079189  -0.3142  -0.526395  0.051442  2.362412  0.072
O  O208  1  0.88602905  0.61349739  0.48890491  1  -1.110223  -0.079002  -0.314256  -0.525724  -0.051377  2.362298  -0.072
O  O209  1  0.01154212  0.88608347  0.48885471  1  -1.103954  0.079017  -0.314043  -0.526173  0.051391  2.362148  0.072
O  O210  1  0.44901115  0.03798000  0.61480789  1  -1.104744  0.092038  -0.310081  -0.505352  0.05957  2.324288  0.083
O  O211  1  0.89821302  0.44899632  0.61475865  1  -1.093776  -0.091976  -0.31008  -0.505492  -0.059552  2.325198  -0.083
O  O212  1  0.03794895  0.89817418  0.61479397  1  -1.102759  0.09222  -0.310555  -0.506034  0.059676  2.32182  0.083
O  O213  1  0.55099557  0.10179893  0.38524143  1  -1.094269  -0.092179  -0.310162  -0.505658  -0.059679  2.325199  -0.083
O  O214  1  0.96202480  0.55099107  0.38519487  1  -1.104688  0.09197  -0.310143  -0.505456  0.059527  2.324269  0.083
O  O215  1  0.10183254  0.96205153  0.38519734  1  -1.102789  -0.09208  -0.310576  -0.505942  -0.059602  2.321422  -0.083
O  O216  1  0.14620359  0.39101649  0.49879261  1  -1.102224  0.087876  -0.312655  -0.521502  0.057025  2.39115  0.079
O  O217  1  0.96393195  0.14623690  0.49875041  1  -1.112283  -0.087943  -0.312879  -0.522057  -0.057077  2.391163  -0.079
O  O218  1  0.39104579  0.96394729  0.49881013  1  -1.110978  -0.088009  -0.312393  -0.52121  -0.057104  2.391458  -0.079
O  O219  1  0.85375547  0.03608800  0.50124532  1  -1.111705  0.087985  -0.312994  -0.522173  0.05706  2.39094  0.079
O  O220  1  0.60900079  0.85379981  0.50120590  1  -1.102405  0.08794  -0.312758  -0.521596  0.057066  2.390948  0.079
O  O221  1  0.03605109  0.60895552  0.50118640  1  -1.111048  -0.087905  -0.312416  -0.521239  -0.057068  2.391624  -0.079
O  O222  1  0.05932448  0.43360632  0.61461064  1  -1.123958  -0.078783  -0.314029  -0.522282  -0.051234  2.331502  -0.071
O  O223  1  0.89250765  0.05931533  0.61462949  1  -1.11224  0.078812  -0.314314  -0.523516  0.051211  2.333086  0.071
O  O224  1  0.43358132  0.89242586  0.61465396  1  -1.111684  0.078959  -0.313697  -0.522019  0.051313  2.331213  0.072
O  O225  1  0.94069797  0.10748417  0.38536738  1  -1.112773  -0.079004  -0.314324  -0.523492  -0.051334  2.333067  -0.072
O  O226  1  0.56639865  0.94067317  0.38538690  1  -1.123848  -0.078806  -0.313968  -0.522247  -0.051249  2.331537  -0.071
O  O227  1  0.10757798  0.56641765  0.38534600  1  -1.111764  0.078736  -0.313655  -0.521983  0.051177  2.331235  0.071
O  O228  1  0.34682275  0.10129732  0.85566291  1  -1.135618  2.7e-05  -0.2921  -0.471807  -1.4e-05  2.09912  0.0
O  O229  1  0.69616045  0.34686986  0.85556803  1  -1.123142  -3.4e-05  -0.292159  -0.471838  9e-06  2.100152  0.0
O  O230  1  0.10131786  0.69623252  0.85562553  1  -1.128013  1.7e-05  -0.292175  -0.472372  -1.5e-05  2.099726  0.0
O  O231  1  0.65312415  0.30384116  0.14443091  1  -1.12276  -1.7e-05  -0.292066  -0.471777  1.5e-05  2.099844  0.0
O  O232  1  0.89870199  0.65316840  0.14434285  1  -1.135695  3.4e-05  -0.29217  -0.471834  -9e-06  2.098971  0.0
O  O233  1  0.30377278  0.89868207  0.14437991  1  -1.127812  -2.7e-05  -0.292101  -0.472079  1.3e-05  2.099535  0.0
