# generated using pymatgen
data_MoH13C11(NO)3
_symmetry_space_group_name_H-M   'P 1'
_cell_length_a   9.61163682
_cell_length_b   12.25214178
_cell_length_c   12.35851814
_cell_angle_alpha   90.00003208
_cell_angle_beta   112.86512593
_cell_angle_gamma   89.99995447
_symmetry_Int_Tables_number   1
_chemical_formula_structural   MoH13C11(NO)3
_chemical_formula_sum   'Mo4 H52 C44 N12 O12'
_cell_volume   1341.01730388
_cell_formula_units_Z   4
loop_
 _symmetry_equiv_pos_site_id
 _symmetry_equiv_pos_as_xyz
  1  'x, y, z'
loop_
 _atom_site_type_symbol
 _atom_site_label
 _atom_site_symmetry_multiplicity
 _atom_site_fract_x
 _atom_site_fract_y
 _atom_site_fract_z
 _atom_site_occupancy
 _atom_site_hle17_bader_spin_density
 _atom_site_hle17_ddec_charge
 _atom_site_hle17_ddec_spin_density
 _atom_site_hle17_ddec_sum_bond_order
 _atom_site_hle17_magmom
 _atom_site_hse06_10hf_bader_spin_density
 _atom_site_hse06_10hf_ddec_charge
 _atom_site_hse06_10hf_ddec_spin_density
 _atom_site_hse06_10hf_ddec_sum_bond_order
 _atom_site_hse06_10hf_magmom
 _atom_site_hse06_bader_spin_density
 _atom_site_hse06_ddec_charge
 _atom_site_hse06_ddec_spin_density
 _atom_site_hse06_ddec_sum_bond_order
 _atom_site_hse06_magmom
 _atom_site_pbe_bader_spin_density
 _atom_site_pbe_cm5_charge
 _atom_site_pbe_ddec_charge
 _atom_site_pbe_ddec_spin_density
 _atom_site_pbe_ddec_sum_bond_order
 _atom_site_pbe_magmom
Mo  Mo0  1  0.84815249  0.85110970  0.00070199  1  0  2.102087  0  4.237596  0  0  2.089257  0  4.801008  0  0  2.190008  0  4.770027  0  0  1.55086  2.014186  0  4.831137  0
Mo  Mo1  1  0.15184751  0.35110864  0.99929884  1  0  2.102176  0  4.237498  0  0  2.089375  0  4.800864  0  0  2.190101  0  4.769915  0  0  1.550888  2.014312  0  4.830982  0
Mo  Mo2  1  0.15256804  0.64889711  0.00067322  1  0  2.102619  0  4.237186  0  0  2.090207  0  4.800065  0  0  2.190889  0  4.769182  0  0  1.551675  2.015264  0  4.830073  0
Mo  Mo3  1  0.84743214  0.14889643  0.99932755  1  0  2.102627  0  4.23723  0  0  2.090237  0  4.800079  0  0  2.190911  0  4.769209  0  0  1.551661  2.015299  0  4.83009  0
H  H4  1  0.25150934  0.82673298  0.20013662  1  0  0.129371  0  0.951516  0  0  0.138485  0  1.013874  0  0  0.142373  0  1.008559  0  0  0.145905  0.135614  0  1.017677  0
H  H5  1  0.74849069  0.32673307  0.79986339  1  0  0.129377  0  0.951522  0  0  0.138487  0  1.013875  0  0  0.142374  0  1.008563  0  0  0.145903  0.135617  0  1.01768  0
H  H6  1  0.94844763  0.67326899  0.20016363  1  0  0.129333  0  0.951725  0  0  0.138989  0  1.013375  0  0  0.142895  0  1.008033  0  0  0.145765  0.136075  0  1.017244  0
H  H7  1  0.05155140  0.17326869  0.79983681  1  0  0.129318  0  0.951664  0  0  0.138967  0  1.013325  0  0  0.142873  0  1.007984  0  0  0.145762  0.136054  0  1.017193  0
H  H8  1  0.24865334  0.17279915  0.19323673  1  0  0.123051  0  0.982897  0  0  0.129642  0  1.049275  0  0  0.13379  0  1.043953  0  0  0.143324  0.126587  0  1.053113  0
H  H9  1  0.75134682  0.67279910  0.80676324  1  0  0.123059  0  0.982888  0  0  0.12965  0  1.049267  0  0  0.133802  0  1.043941  0  0  0.143322  0.126593  0  1.053101  0
H  H10  1  0.94445076  0.32720378  0.19318223  1  0  0.1232  0  0.983688  0  0  0.129879  0  1.049829  0  0  0.134025  0  1.04454  0  0  0.143319  0.126842  0  1.05362  0
H  H11  1  0.05555039  0.82720334  0.80681812  1  0  0.123221  0  0.983663  0  0  0.129869  0  1.049835  0  0  0.134014  0  1.044548  0  0  0.143323  0.126834  0  1.053618  0
H  H12  1  0.50699062  0.92243374  0.27054160  1  0  0.0683  0  0.892668  0  0  0.084617  0  0.944968  0  0  0.085481  0  0.944235  0  0  0.123768  0.08386  0  0.945626  0
H  H13  1  0.49300931  0.42243395  0.72945763  1  0  0.068286  0  0.89269  0  0  0.084605  0  0.944987  0  0  0.085471  0  0.944253  0  0  0.123752  0.083849  0  0.945643  0
H  H14  1  0.76345864  0.57749724  0.27069399  1  0  0.068126  0  0.892672  0  0  0.084659  0  0.945103  0  0  0.085509  0  0.944388  0  0  0.123751  0.083984  0  0.945731  0
H  H15  1  0.23654161  0.07749760  0.72930676  1  0  0.068184  0  0.892642  0  0  0.084719  0  0.945061  0  0  0.08557  0  0.944347  0  0  0.123771  0.084043  0  0.945689  0
H  H16  1  0.66202985  0.09187035  0.30827319  1  0  0.082109  0  0.940039  0  0  0.102194  0  0.995701  0  0  0.102651  0  0.997479  0  0  0.096576  0.101724  0  0.994721  0
H  H17  1  0.33797038  0.59187049  0.69172676  1  0  0.082109  0  0.940049  0  0  0.102198  0  0.995706  0  0  0.102656  0  0.997484  0  0  0.096574  0.101727  0  0.994727  0
H  H18  1  0.64629264  0.40802079  0.30849066  1  0  0.081863  0  0.939787  0  0  0.102147  0  0.99522  0  0  0.102589  0  0.997063  0  0  0.09645  0.101642  0  0.994299  0
H  H19  1  0.35370731  0.90802010  0.69150938  1  0  0.081876  0  0.939811  0  0  0.102165  0  0.995231  0  0  0.102606  0  0.997077  0  0  0.09646  0.101662  0  0.99431  0
H  H20  1  0.49889696  0.17288153  0.27015722  1  0  0.076149  0  0.939363  0  0  0.096098  0  0.997997  0  0  0.09704  0  0.997903  0  0  0.094047  0.095338  0  0.998153  0
H  H21  1  0.50110320  0.67288077  0.72984356  1  0  0.076229  0  0.939316  0  0  0.096149  0  0.997977  0  0  0.097089  0  0.997886  0  0  0.094077  0.095381  0  0.998143  0
H  H22  1  0.77129528  0.32705531  0.27026935  1  0  0.075859  0  0.93915  0  0  0.096175  0  0.997525  0  0  0.097154  0  0.997422  0  0  0.09399  0.095381  0  0.9977  0
H  H23  1  0.22870475  0.82705553  0.72973066  1  0  0.075862  0  0.939145  0  0  0.09618  0  0.997521  0  0  0.09716  0  0.997415  0  0  0.093994  0.095388  0  0.997696  0
H  H24  1  0.57304122  0.15335263  0.09893680  1  0  0.116407  0  0.962998  0  0  0.1409  0  1.018501  0  0  0.142448  0  1.01853  0  0  0.093177  0.139671  0  1.018649  0
H  H25  1  0.42695782  0.65335283  0.90106282  1  0  0.116422  0  0.962968  0  0  0.140914  0  1.018473  0  0  0.142463  0  1.018501  0  0  0.093185  0.139686  0  1.018626  0
H  H26  1  0.52589387  0.34666497  0.09911069  1  0  0.11614  0  0.963457  0  0  0.140734  0  1.018661  0  0  0.142325  0  1.018659  0  0  0.093313  0.139506  0  1.018803  0
H  H27  1  0.47410727  0.84666677  0.90088966  1  0  0.116146  0  0.963464  0  0  0.140753  0  1.018661  0  0  0.142342  0  1.01866  0  0  0.093322  0.139525  0  1.018804  0
H  H28  1  0.39716138  0.08785882  0.06524409  1  0  0.087072  0  0.963883  0  0  0.105165  0  1.032552  0  0  0.106159  0  1.03298  0  0  0.081226  0.104429  0  1.032158  0
H  H29  1  0.60283772  0.58785811  0.93475551  1  0  0.087067  0  0.963907  0  0  0.105159  0  1.032575  0  0  0.106154  0  1.033002  0  0  0.08123  0.104422  0  1.03218  0
H  H30  1  0.66811921  0.41213755  0.06540147  1  0  0.087817  0  0.963444  0  0  0.105724  0  1.032256  0  0  0.106708  0  1.032706  0  0  0.081384  0.104974  0  1.031899  0
H  H31  1  0.33188186  0.91213946  0.93459809  1  0  0.087813  0  0.963474  0  0  0.105721  0  1.032289  0  0  0.106704  0  1.032739  0  0  0.081412  0.10497  0  1.031931  0
H  H32  1  0.56584289  0.00939821  0.10651118  1  0  0.102411  0  0.948188  0  0  0.128178  0  1.004065  0  0  0.129314  0  1.004405  0  0  0.089509  0.127171  0  1.004066  0
H  H33  1  0.43415628  0.50939759  0.89348759  1  0  0.102402  0  0.94819  0  0  0.128169  0  1.004067  0  0  0.129305  0  1.004409  0  0  0.089505  0.127162  0  1.004069  0
H  H34  1  0.54079692  0.49061204  0.10678195  1  0  0.103007  0  0.947144  0  0  0.128307  0  1.003584  0  0  0.129504  0  1.003864  0  0  0.089676  0.127338  0  1.003513  0
H  H35  1  0.45920183  0.99061385  0.89321696  1  0  0.103008  0  0.947128  0  0  0.1283  0  1.003579  0  0  0.129497  0  1.003859  0  0  0.08969  0.127335  0  1.003506  0
H  H36  1  0.41594868  0.16267033  0.42776538  1  0  0.080191  0  0.968137  0  0  0.09176  0  1.033572  0  0  0.09379  0  1.033105  0  0  0.096047  0.090299  0  1.033977  0
H  H37  1  0.58405148  0.66266943  0.57223458  1  0  0.080204  0  0.968145  0  0  0.091774  0  1.033587  0  0  0.093802  0  1.033119  0  0  0.096062  0.090314  0  1.033992  0
H  H38  1  0.01177586  0.33729951  0.42776823  1  0  0.07942  0  0.969209  0  0  0.091561  0  1.033961  0  0  0.09364  0  1.033441  0  0  0.095935  0.090088  0  1.034383  0
H  H39  1  0.98822754  0.83729918  0.57223442  1  0  0.079449  0  0.969193  0  0  0.091572  0  1.033963  0  0  0.093645  0  1.033449  0  0  0.095931  0.090098  0  1.034387  0
H  H40  1  0.49409401  0.16448066  0.64501353  1  0  0.083947  0  0.956682  0  0  0.095336  0  1.016672  0  0  0.098559  0  1.014476  0  0  0.095228  0.093084  0  1.018249  0
H  H41  1  0.50590616  0.66448050  0.35498643  1  0  0.08392  0  0.956717  0  0  0.095336  0  1.016681  0  0  0.098559  0  1.014484  0  0  0.095221  0.09308  0  1.018259  0
H  H42  1  0.15102321  0.33555126  0.64499882  1  0  0.083601  0  0.956901  0  0  0.095279  0  1.016561  0  0  0.098422  0  1.014458  0  0  0.095132  0.093021  0  1.018207  0
H  H43  1  0.84897794  0.83555089  0.35500315  1  0  0.083613  0  0.956912  0  0  0.095256  0  1.016606  0  0  0.0984  0  1.014503  0  0  0.095113  0.092991  0  1.018259  0
H  H44  1  0.62588289  0.00510607  0.76393205  1  0  0.105549  0  0.95686  0  0  0.113411  0  1.022475  0  0  0.116579  0  1.020796  0  0  0.104827  0.111154  0  1.023676  0
H  H45  1  0.37411741  0.50510511  0.23606706  1  0  0.105524  0  0.956831  0  0  0.11337  0  1.022468  0  0  0.116536  0  1.020792  0  0  0.104822  0.111111  0  1.023665  0
H  H46  1  0.13817389  0.49493486  0.76393939  1  0  0.105424  0  0.956066  0  0  0.113263  0  1.021669  0  0  0.116308  0  1.020169  0  0  0.104606  0.111013  0  1.022857  0
H  H47  1  0.86182600  0.99493442  0.23606229  1  0  0.105403  0  0.956131  0  0  0.113242  0  1.021725  0  0  0.116286  0  1.020226  0  0  0.104595  0.110989  0  1.022918  0
H  H48  1  0.68225186  0.84369410  0.66791890  1  0  0.083493  0  0.96965  0  0  0.093107  0  1.035315  0  0  0.096017  0  1.03347  0  0  0.093572  0.090948  0  1.03676  0
H  H49  1  0.31774589  0.34369337  0.33207963  1  0  0.083525  0  0.969577  0  0  0.093109  0  1.035275  0  0  0.096016  0  1.033434  0  0  0.093573  0.090952  0  1.036724  0
H  H50  1  0.98576459  0.65633737  0.66795160  1  0  0.08364  0  0.969252  0  0  0.093213  0  1.035001  0  0  0.096121  0  1.033155  0  0  0.093392  0.091163  0  1.036283  0
H  H51  1  0.01423446  0.15633765  0.33204883  1  0  0.083614  0  0.969264  0  0  0.093179  0  1.035024  0  0  0.096087  0  1.033176  0  0  0.093361  0.091127  0  1.036308  0
H  H52  1  0.60799370  0.84179888  0.44988997  1  0  0.079385  0  0.965269  0  0  0.091794  0  1.027311  0  0  0.094133  0  1.026518  0  0  0.09534  0.089973  0  1.02831  0
H  H53  1  0.39200518  0.34179823  0.55010971  1  0  0.079396  0  0.965253  0  0  0.091795  0  1.027308  0  0  0.094132  0  1.026517  0  0  0.095343  0.089975  0  1.028308  0
H  H54  1  0.84203411  0.65823009  0.44994140  1  0  0.079511  0  0.96459  0  0  0.091508  0  1.026942  0  0  0.093909  0  1.02609  0  0  0.095384  0.089693  0  1.027935  0
H  H55  1  0.15796606  0.15823122  0.55005937  1  0  0.079531  0  0.964531  0  0  0.091521  0  1.026897  0  0  0.09392  0  1.026047  0  0  0.095389  0.089702  0  1.027893  0
C  C56  1  0.21175139  0.91075667  0.18811898  1  0  0.190959  0  3.571788  0  0  0.130586  0  3.835397  0  0  0.146908  0  3.842414  0  0  0.17225  0.119838  0  3.830412  0
C  C57  1  0.78824969  0.41075592  0.81188140  1  0  0.190916  0  3.571894  0  0  0.130567  0  3.835476  0  0  0.146886  0  3.842496  0  0  0.172244  0.119815  0  3.830497  0
C  C58  1  0.97619574  0.58925754  0.18809690  1  0  0.190161  0  3.571637  0  0  0.129345  0  3.835169  0  0  0.145671  0  3.842198  0  0  0.172167  0.118641  0  3.830156  0
C  C59  1  0.02380223  0.08925727  0.81190236  1  0  0.190129  0  3.571548  0  0  0.12932  0  3.835079  0  0  0.145646  0  3.842107  0  0  0.172172  0.118616  0  3.830064  0
C  C60  1  0.21084427  0.08838209  0.18541535  1  0  0.178242  0  3.593205  0  0  0.118884  0  3.861801  0  0  0.134035  0  3.869882  0  0  0.166556  0.108822  0  3.856399  0
C  C61  1  0.78915483  0.58838119  0.81458506  1  0  0.178229  0  3.59321  0  0  0.118857  0  3.861818  0  0  0.134008  0  3.869897  0  0  0.166553  0.108804  0  3.856404  0
C  C62  1  0.97442981  0.41162574  0.18536833  1  0  0.175875  0  3.594678  0  0  0.116753  0  3.862858  0  0  0.131884  0  3.871012  0  0  0.165633  0.106718  0  3.857397  0
C  C63  1  0.02557240  0.91162614  0.81463320  1  0  0.175845  0  3.594644  0  0  0.116743  0  3.86284  0  0  0.131878  0  3.870994  0  0  0.165653  0.106706  0  3.857371  0
C  C64  1  0.46814977  0.00021704  0.29359731  1  0  0.098873  0  3.59575  0  0  0.066533  0  3.839634  0  0  0.071431  0  3.853221  0  0  0.030953  0.063446  0  3.830138  0
C  C65  1  0.53185053  0.50021707  0.70640260  1  0  0.098818  0  3.59586  0  0  0.066464  0  3.839737  0  0  0.071362  0  3.853322  0  0  0.030904  0.063376  0  3.83024  0
C  C66  1  0.82540378  0.49974510  0.29368992  1  0  0.099521  0  3.593929  0  0  0.066103  0  3.840615  0  0  0.071047  0  3.854229  0  0  0.030764  0.062952  0  3.831082  0
C  C67  1  0.17459722  0.99974535  0.70631129  1  0  0.0994  0  3.593924  0  0  0.065928  0  3.840613  0  0  0.070868  0  3.854228  0  0  0.030717  0.062779  0  3.831081  0
C  C68  1  0.54093676  0.09415242  0.25232145  1  0  -0.116543  0  3.68783  0  0  -0.156833  0  3.947833  0  0  -0.158225  0  3.961356  0  0  -0.161708  -0.155781  0  3.938295  0
C  C69  1  0.45906347  0.59415251  0.74767849  1  0  -0.116612  0  3.687836  0  0  -0.156894  0  3.947851  0  0  -0.158286  0  3.961376  0  0  -0.161736  -0.155835  0  3.938317  0
C  C70  1  0.71141490  0.40577380  0.25248446  1  0  -0.116101  0  3.686717  0  0  -0.156446  0  3.947149  0  0  -0.157967  0  3.960934  0  0  -0.16127  -0.155281  0  3.937521  0
C  C71  1  0.28858505  0.90577400  0.74751476  1  0  -0.116082  0  3.686709  0  0  -0.156438  0  3.947177  0  0  -0.157956  0  3.960959  0  0  -0.161267  -0.155275  0  3.937552  0
C  C72  1  0.51725319  0.08547064  0.12351976  1  0  -0.285831  0  3.703005  0  0  -0.364762  0  3.951831  0  0  -0.36663  0  3.962149  0  0  -0.251125  -0.363035  0  3.944689  0
C  C73  1  0.48274704  0.58546998  0.87648018  1  0  -0.285831  0  3.703001  0  0  -0.364752  0  3.951821  0  0  -0.366622  0  3.962138  0  0  -0.251131  -0.363024  0  3.944678  0
C  C74  1  0.60630938  0.41450697  0.12371585  1  0  -0.286616  0  3.70168  0  0  -0.365241  0  3.951066  0  0  -0.367094  0  3.961252  0  0  -0.251463  -0.363522  0  3.943957  0
C  C75  1  0.39369057  0.91450799  0.87628338  1  0  -0.28662  0  3.701732  0  0  -0.365255  0  3.951122  0  0  -0.367107  0  3.961307  0  0  -0.251512  -0.363539  0  3.944015  0
C  C76  1  0.50657041  0.00150092  0.42455444  1  0  0.026538  0  3.764826  0  0  0.044477  0  4.003694  0  0  0.042826  0  4.029221  0  0  -0.017769  0.04539  0  3.986808  0
C  C77  1  0.49342763  0.50150090  0.57544479  1  0  0.026485  0  3.76478  0  0  0.044478  0  4.003576  0  0  0.042825  0  4.029104  0  0  -0.017756  0.045392  0  3.98669  0
C  C78  1  0.91796173  0.49847676  0.42463242  1  0  0.026895  0  3.762547  0  0  0.043661  0  4.003705  0  0  0.042004  0  4.029248  0  0  -0.017868  0.044645  0  3.986699  0
C  C79  1  0.08203928  0.99847781  0.57536879  1  0  0.026715  0  3.762703  0  0  0.04365  0  4.003631  0  0  0.041996  0  4.029168  0  0  -0.017883  0.04463  0  3.986627  0
C  C80  1  0.47392184  0.09215367  0.47979675  1  0  -0.11334  0  3.762637  0  0  -0.134879  0  4.008584  0  0  -0.137291  0  4.031822  0  0  -0.095774  -0.133372  0  3.993316  0
C  C81  1  0.52607951  0.59215359  0.52020272  1  0  -0.113313  0  3.762612  0  0  -0.134876  0  4.00856  0  0  -0.137286  0  4.031795  0  0  -0.09579  -0.133371  0  3.993293  0
C  C82  1  0.00583238  0.40781373  0.47981022  1  0  -0.112732  0  3.763668  0  0  -0.134213  0  4.009715  0  0  -0.136653  0  4.03293  0  0  -0.09552  -0.132789  0  3.994471  0
C  C83  1  0.99416870  0.90781418  0.52019015  1  0  -0.112706  0  3.763665  0  0  -0.13422  0  4.009643  0  0  -0.136656  0  4.032858  0  0  -0.095527  -0.13279  0  3.994393  0
C  C84  1  0.51700275  0.09339674  0.60137675  1  0  -0.074162  0  3.784584  0  0  -0.083887  0  4.030319  0  0  -0.086756  0  4.052768  0  0  -0.093357  -0.081594  0  4.014983  0
C  C85  1  0.48299748  0.59339499  0.39862319  1  0  -0.074239  0  3.784487  0  0  -0.083984  0  4.030239  0  0  -0.086852  0  4.052685  0  0  -0.093424  -0.081691  0  4.014902  0
C  C86  1  0.08443628  0.40660416  0.60138353  1  0  -0.074536  0  3.785639  0  0  -0.08456  0  4.031422  0  0  -0.087359  0  4.053851  0  0  -0.093853  -0.082266  0  4.016182  0
C  C87  1  0.91556480  0.90660458  0.39861766  1  0  -0.074545  0  3.785761  0  0  -0.084551  0  4.031542  0  0  -0.08735  0  4.05397  0  0  -0.093827  -0.082251  0  4.016306  0
C  C88  1  0.59207524  0.00389320  0.66902279  1  0  -0.054335  0  3.734277  0  0  -0.069907  0  3.981639  0  0  -0.070809  0  4.002418  0  0  -0.089762  -0.069119  0  3.967278  0
C  C89  1  0.40792280  0.50389227  0.33097725  1  0  -0.054196  0  3.734129  0  0  -0.069757  0  3.981499  0  0  -0.070657  0  4.00228  0  0  -0.089675  -0.068961  0  3.96713  0
C  C90  1  0.07705109  0.49612240  0.66903132  1  0  -0.053014  0  3.733933  0  0  -0.068543  0  3.981465  0  0  -0.069363  0  4.002227  0  0  -0.089023  -0.067719  0  3.96705  0
C  C91  1  0.92294992  0.99612116  0.33096989  1  0  -0.053022  0  3.734055  0  0  -0.06854  0  3.981549  0  0  -0.069358  0  4.002308  0  0  -0.089021  -0.067721  0  3.967147  0
C  C92  1  0.62407205  0.91317175  0.61436649  1  0  -0.069969  0  3.780759  0  0  -0.083224  0  4.031347  0  0  -0.085445  0  4.053164  0  0  -0.098102  -0.081416  0  4.016617  0
C  C93  1  0.37592790  0.41317183  0.38563436  1  0  -0.07001  0  3.780803  0  0  -0.083242  0  4.031388  0  0  -0.085461  0  4.053205  0  0  -0.09811  -0.081437  0  4.016661  0
C  C94  1  0.99038248  0.58682869  0.61442362  1  0  -0.071071  0  3.781437  0  0  -0.084257  0  4.031611  0  0  -0.086489  0  4.053438  0  0  -0.098245  -0.082426  0  4.016609  0
C  C95  1  0.00961775  0.08682901  0.38557713  1  0  -0.070985  0  3.781407  0  0  -0.084162  0  4.031577  0  0  -0.086394  0  4.053404  0  0  -0.098189  -0.082324  0  4.016565  0
C  C96  1  0.58168725  0.91217109  0.49281368  1  0  -0.12185  0  3.784177  0  0  -0.142474  0  4.029275  0  0  -0.145627  0  4.053157  0  0  -0.096596  -0.140624  0  4.013856  0
C  C97  1  0.41831156  0.41217121  0.50718440  1  0  -0.121849  0  3.784238  0  0  -0.142478  0  4.029314  0  0  -0.145629  0  4.053196  0  0  -0.096601  -0.140628  0  4.013897  0
C  C98  1  0.91120449  0.58783014  0.49288327  1  0  -0.121428  0  3.782532  0  0  -0.141077  0  4.027628  0  0  -0.144286  0  4.051496  0  0  -0.095935  -0.139086  0  4.012101  0
C  C99  1  0.08879575  0.08782966  0.50711829  1  0  -0.121401  0  3.78258  0  0  -0.141102  0  4.027638  0  0  -0.14431  0  4.051504  0  0  -0.095938  -0.13911  0  4.012107  0
N  N100  1  0.07188691  0.94318694  0.12700842  1  0  -0.274781  0  3.219585  0  0  -0.241034  0  3.512274  0  0  -0.256374  0  3.533327  0  0  -0.246805  -0.230059  0  3.49767  0
N  N101  1  0.92811188  0.44318778  0.87299129  1  0  -0.274749  0  3.219535  0  0  -0.241016  0  3.512217  0  0  -0.25635  0  3.533268  0  0  -0.246799  -0.230043  0  3.49762  0
N  N102  1  0.05507773  0.55685858  0.12703050  1  0  -0.274379  0  3.218907  0  0  -0.240784  0  3.511966  0  0  -0.256113  0  3.533012  0  0  -0.246941  -0.229966  0  3.497428  0
N  N103  1  0.94492139  0.05685777  0.87296910  1  0  -0.274422  0  3.219028  0  0  -0.240814  0  3.512074  0  0  -0.256143  0  3.533121  0  0  -0.246975  -0.229999  0  3.497532  0
N  N104  1  0.07159978  0.05486389  0.12523719  1  0  -0.27622  0  3.224041  0  0  -0.244141  0  3.517241  0  0  -0.25902  0  3.53866  0  0  -0.248306  -0.233671  0  3.502498  0
N  N105  1  0.92840048  0.55486458  0.87476356  1  0  -0.276231  0  3.224015  0  0  -0.244138  0  3.517215  0  0  -0.259018  0  3.538633  0  0  -0.248302  -0.233673  0  3.502473  0
N  N106  1  0.05353566  0.44518667  0.12520024  1  0  -0.273889  0  3.224236  0  0  -0.242059  0  3.517594  0  0  -0.256945  0  3.539065  0  0  -0.247612  -0.231477  0  3.502836  0
N  N107  1  0.94646539  0.94518653  0.87480095  1  0  -0.273911  0  3.224331  0  0  -0.242092  0  3.517696  0  0  -0.256979  0  3.539166  0  0  -0.247612  -0.231505  0  3.502925  0
N  N108  1  0.30236216  0.99998513  0.22607976  1  0  -0.103995  0  3.482125  0  0  -0.011696  0  3.701388  0  0  -0.028497  0  3.722994  0  0  -0.218363  -0.000649  0  3.686602  0
N  N109  1  0.69763771  0.49998442  0.77392111  1  0  -0.10393  0  3.482282  0  0  -0.011631  0  3.701526  0  0  -0.028431  0  3.723134  0  0  -0.218318  -0.000583  0  3.686736  0
N  N110  1  0.92350508  0.50001766  0.22600969  1  0  -0.103791  0  3.480203  0  0  -0.010828  0  3.699295  0  0  -0.027648  0  3.720939  0  0  -0.218108  0.000222  0  3.684447  0
N  N111  1  0.07649522  0.00001733  0.77399104  1  0  -0.103588  0  3.480027  0  0  -0.010632  0  3.699138  0  0  -0.027452  0  3.720784  0  0  -0.218093  0.000413  0  3.684293  0
O  O112  1  0.78636955  0.00002261  0.00001375  1  0  -0.887069  0  1.829144  0  0  -0.895534  0  2.151594  0  0  -0.939565  0  2.148413  0  0  -0.588423  -0.86215  0  2.153679  0
O  O113  1  0.21362962  0.50002218  0.99998582  1  0  -0.887078  0  1.829085  0  0  -0.895554  0  2.151544  0  0  -0.939579  0  2.148361  0  0  -0.588412  -0.862171  0  2.153629  0
O  O114  1  0.00216206  0.75002887  0.00431400  1  0  -0.962371  0  1.903809  0  0  -0.963805  0  2.231726  0  0  -1.010984  0  2.231868  0  0  -0.609845  -0.927793  0  2.231291  0
O  O115  1  0.99783804  0.25002891  0.99568679  1  0  -0.962393  0  1.903835  0  0  -0.963847  0  2.231771  0  0  -1.011017  0  2.231906  0  0  -0.609833  -0.927847  0  2.231352  0
O  O116  1  0.81001543  0.80296796  0.11788471  1  0  -0.698744  0  1.417184  0  0  -0.701993  0  1.65622  0  0  -0.728779  0  1.645952  0  0  -0.53567  -0.682513  0  1.664668  0
O  O117  1  0.18998461  0.30296681  0.88211610  1  0  -0.698784  0  1.417134  0  0  -0.702048  0  1.656176  0  0  -0.728827  0  1.645912  0  0  -0.535692  -0.682561  0  1.664611  0
O  O118  1  0.30778596  0.69706990  0.11783417  1  0  -0.698725  0  1.41723  0  0  -0.701986  0  1.656188  0  0  -0.728762  0  1.645962  0  0  -0.535951  -0.68254  0  1.664466  0
O  O119  1  0.69221305  0.19707007  0.88216546  1  0  -0.698734  0  1.417215  0  0  -0.701998  0  1.656165  0  0  -0.728774  0  1.645944  0  0  -0.535942  -0.682551  0  1.664442  0
O  O120  1  0.70259671  0.80401701  0.87563450  1  0  -0.700342  0  1.511276  0  0  -0.69671  0  1.769144  0  0  -0.725608  0  1.761758  0  0  -0.520947  -0.675686  0  1.775353  0
O  O121  1  0.29740220  0.30401699  0.12436435  1  0  -0.700355  0  1.511333  0  0  -0.696728  0  1.769201  0  0  -0.725615  0  1.761807  0  0  -0.520946  -0.675709  0  1.775411  0
O  O122  1  0.17312891  0.69605482  0.87562199  1  0  -0.700313  0  1.511621  0  0  -0.697032  0  1.769576  0  0  -0.725836  0  1.762004  0  0  -0.521168  -0.676132  0  1.775816  0
O  O123  1  0.82687123  0.19605530  0.12437879  1  0  -0.700309  0  1.511572  0  0  -0.697052  0  1.769532  0  0  -0.725854  0  1.76196  0  0  -0.521167  -0.676157  0  1.77579  0
