# generated using pymatgen
data_Zn2H2C12S2N2O11
_symmetry_space_group_name_H-M   'P 1'
_cell_length_a   19.61216795
_cell_length_b   19.58524868
_cell_length_c   33.30462368
_cell_angle_alpha   79.09655212
_cell_angle_beta   79.01259150
_cell_angle_gamma   63.84007601
_symmetry_Int_Tables_number   1
_chemical_formula_structural   Zn2H2C12S2N2O11
_chemical_formula_sum   'Zn16 H16 C96 S16 N16 O88'
_cell_volume   11191.23202958
_cell_formula_units_Z   8
loop_
 _symmetry_equiv_pos_site_id
 _symmetry_equiv_pos_as_xyz
  1  'x, y, z'
loop_
 _atom_site_type_symbol
 _atom_site_label
 _atom_site_symmetry_multiplicity
 _atom_site_fract_x
 _atom_site_fract_y
 _atom_site_fract_z
 _atom_site_occupancy
 _atom_site_pbe_bader_charge
 _atom_site_pbe_bader_spin_density
 _atom_site_pbe_cm5_charge
 _atom_site_pbe_ddec_charge
 _atom_site_pbe_ddec_spin_density
 _atom_site_pbe_ddec_sum_bond_order
 _atom_site_pbe_magmom
Zn  Zn0  1  0.05452589  0.39965146  0.47765856  1  1.320146  0  0.678567  0.974554  0  2.330201  0
Zn  Zn1  1  0.98878848  0.48190404  0.55971702  1  1.332474  0  0.694424  0.993835  0  2.3352  0
Zn  Zn2  1  0.05789204  0.56357669  0.48119607  1  1.317846  0  0.682375  0.978479  0  2.331562  0
Zn  Zn3  1  0.90231430  0.55491931  0.47780231  1  1.320037  0  0.680647  0.972365  0  2.348186  0
Zn  Zn4  1  0.69452891  0.34865752  0.27183238  1  1.317036  0  0.675327  0.970115  0  2.343005  0
Zn  Zn5  1  0.69010871  0.18999472  0.26379536  1  1.328668  0  0.684342  0.98133  0  2.341334  0
Zn  Zn6  1  0.77219500  0.26474595  0.18901860  1  1.312622  0  0.68131  0.975934  0  2.338223  0
Zn  Zn7  1  0.85042520  0.19691465  0.27097117  1  1.330889  0  0.69172  0.99009  0  2.331687  0
Zn  Zn8  1  0.26873404  0.76333172  0.68857829  1  1.316171  0  0.691707  0.989585  0  2.332178  0
Zn  Zn9  1  0.35076541  0.69676605  0.77003515  1  1.327144  0  0.685538  0.982929  0  2.336521  0
Zn  Zn10  1  0.19375821  0.84755120  0.77134568  1  1.31187  0  0.673197  0.966886  0  2.342201  0
Zn  Zn11  1  0.19042642  0.68803250  0.76447820  1  1.313119  0  0.683437  0.979759  0  2.329925  0
Zn  Zn12  1  0.55868451  0.06288991  0.98238680  1  1.319388  0  0.682901  0.978533  0  2.338631  0
Zn  Zn13  1  0.40313780  0.05369193  0.97621846  1  1.330817  0  0.690875  0.989173  0  2.335177  0
Zn  Zn14  1  0.55516119  0.89958247  0.97791059  1  1.316186  0  0.674243  0.970049  0  2.33537  0
Zn  Zn15  1  0.48616693  0.98506248  0.05978095  1  1.329983  0  0.680776  0.975567  0  2.344285  0
H  H16  1  0.95257219  0.24599477  0.35217539  1  0.118882  0  0.112985  0.126351  0  0.988363  0
H  H17  1  0.74417991  0.45392300  0.35122614  1  0.116972  0  0.118219  0.143628  0  0.975832  0
H  H18  1  0.99925831  0.29689773  0.39963423  1  0.117203  0  0.112173  0.118038  0  0.984608  0
H  H19  1  0.09356126  0.60110948  0.69799908  1  0.113799  0  0.110209  0.121488  0  0.992083  0
H  H20  1  0.20471247  0.70189612  0.59599038  1  0.146306  0  0.121347  0.148986  0  0.969956  0
H  H21  1  0.04611757  0.55607233  0.64811340  1  0.109689  0  0.114469  0.122468  0  0.98037  0
H  H22  1  0.55350486  0.05077881  0.15056938  1  0.092259  0  0.109713  0.121845  0  0.994583  0
H  H23  1  0.65269619  0.15695553  0.04528164  1  0.106931  0  0.120901  0.148165  0  0.971388  0
H  H24  1  0.60423630  0.09917621  0.19719591  1  0.076475  0  0.111593  0.118501  0  0.985543  0
H  H25  1  0.50105362  0.79113487  0.89988987  1  0.132699  0  0.10881  0.119708  0  0.994804  0
H  H26  1  0.29504887  0.00137866  0.90133187  1  0.094943  0  0.121505  0.149815  0  0.969702  0
H  H27  1  0.44975060  0.74609818  0.85184357  1  0.107757  0  0.113254  0.121468  0  0.9821  0
H  H28  1  0.80228558  0.52553469  0.42158377  1  0.656201  0  0.311901  0.360392  0  0.954193  0
H  H29  1  0.15024441  0.63026746  0.52389111  1  0.650812  0  0.311641  0.361189  0  0.94792  0
H  H30  1  0.71665215  0.23640953  0.10886145  1  0.646225  0  0.311969  0.361937  0  0.947888  0
H  H31  1  0.22294323  0.94492992  0.83031837  1  0.636848  0  0.309193  0.356565  0  0.958518  0
C  C32  1  0.06516810  0.31577365  0.56033650  1  1.610312  0  0.225189  0.622148  0  4.206203  0
C  C33  1  0.07204425  0.57251693  0.56643783  1  1.492894  0  0.229161  0.619479  0  4.145562  0
C  C34  1  0.17958482  0.44004485  0.43703553  1  1.618401  0  0.224832  0.622662  0  4.201289  0
C  C35  1  0.93629994  0.68525622  0.43821122  1  1.601007  0  0.224469  0.620994  0  4.20554  0
C  C36  1  0.92753813  0.42973101  0.43089974  1  1.500155  0  0.228131  0.619207  0  4.147401  0
C  C37  1  0.82232222  0.55784375  0.56093904  1  1.6241  0  0.225177  0.619588  0  4.204609  0
C  C38  1  0.56719493  0.30961651  0.31004870  1  1.630154  0  0.224434  0.619979  0  4.207397  0
C  C39  1  0.68329218  0.18356233  0.17661466  1  1.496588  0  0.228076  0.618437  0  4.148139  0
C  C40  1  0.69150615  0.43119650  0.18933113  1  1.653377  0  0.224264  0.621658  0  4.205471  0
C  C41  1  0.93675880  0.18882414  0.18885416  1  1.620707  0  0.225033  0.622856  0  4.205559  0
C  C42  1  0.81771297  0.31883130  0.31989493  1  1.553756  0  0.23467  0.609328  0  4.14483  0
C  C43  1  0.81078377  0.06883353  0.30752054  1  1.620608  0  0.224989  0.618762  0  4.205984  0
C  C44  1  0.43492832  0.68692173  0.68798774  1  1.620247  0  0.225469  0.62098  0  4.204732  0
C  C45  1  0.31795328  0.82039207  0.81985901  1  1.495391  0  0.228515  0.61859  0  4.148326  0
C  C46  1  0.19384801  0.92995964  0.68890829  1  1.619963  0  0.225099  0.621279  0  4.200459  0
C  C47  1  0.06636366  0.80972807  0.80960683  1  1.623814  0  0.222983  0.618102  0  4.210124  0
C  C48  1  0.18001970  0.68202302  0.67899915  1  1.530507  0  0.23476  0.610815  0  4.141256  0
C  C49  1  0.31153202  0.56948321  0.80980117  1  1.609896  0  0.225169  0.620448  0  4.208617  0
C  C50  1  0.43816142  0.18319768  0.93772977  1  1.635399  0  0.224357  0.617756  0  4.21065  0
C  C51  1  0.43039275  0.92676964  0.93196881  1  1.554639  0  0.233723  0.609265  0  4.144182  0
C  C52  1  0.68056223  0.94019079  0.93813846  1  1.621698  0  0.223902  0.620576  0  4.210013  0
C  C53  1  0.56232255  0.81749096  0.06127923  1  1.643713  0  0.223486  0.617899  0  4.210345  0
C  C54  1  0.57144349  0.07155705  0.06720958  1  1.551538  0  0.233469  0.607793  0  4.145358  0
C  C55  1  0.32147337  0.06173202  0.05945728  1  1.635394  0  0.225523  0.618181  0  4.207888  0
C  C56  1  0.89782339  0.40226707  0.40294207  1  -0.047546  0  -0.035319  -0.193439  0  3.981501  0
C  C57  1  0.84577064  0.34744986  0.34886527  1  0.036442  0  -0.00998  -0.003786  0  3.995088  0
C  C58  1  0.82437176  0.44697535  0.38956661  1  0.557929  0  0.099518  0.321707  0  4.050265  0
C  C59  1  0.91792325  0.30206350  0.36257993  1  -0.02096  0  -0.092918  -0.129485  0  3.990017  0
C  C60  1  0.79983355  0.41905423  0.36196790  1  -0.019008  0  -0.089214  -0.209887  0  3.90378  0
C  C61  1  0.94333875  0.33016887  0.38892004  1  -0.050409  0  -0.078425  -0.05957  0  3.99915  0
C  C62  1  0.10080410  0.60082615  0.59443222  1  0.061055  0  -0.03571  -0.19442  0  3.981099  0
C  C63  1  0.15171788  0.65426496  0.64972355  1  -0.026325  0  -0.009724  -0.005662  0  3.99622  0
C  C64  1  0.14703580  0.64158574  0.57939865  1  0.537508  0  0.100936  0.321897  0  4.049427  0
C  C65  1  0.10733010  0.61251705  0.66491544  1  -0.03  0  -0.094733  -0.131376  0  3.998925  0
C  C66  1  0.17068637  0.66931462  0.60755983  1  -0.023722  0  -0.086277  -0.205514  0  3.892577  0
C  C67  1  0.08161708  0.58733854  0.63730371  1  -0.063454  0  -0.077109  -0.057506  0  3.992127  0
C  C68  1  0.30568018  0.45258446  0.40197880  1  0.286481  0  0.080509  0.033366  0  3.929448  0
C  C69  1  0.44711286  0.29208264  0.35137770  1  0.267401  0  0.079795  0.033878  0  3.930484  0
C  C70  1  0.25802972  0.41478037  0.41469350  1  -0.124408  0  -0.00333  -0.149542  0  3.884672  0
C  C71  1  0.49367807  0.33075669  0.33752342  1  -0.118055  0  -0.002089  -0.14654  0  3.879704  0
C  C72  1  0.37694830  0.33775523  0.37322889  1  -0.079907  0  -0.012846  -0.063226  0  4.081744  0
C  C73  1  0.37308973  0.40942838  0.37725646  1  -0.068415  0  -0.013763  -0.064083  0  4.084932  0
C  C74  1  0.72945873  0.57700957  0.63000388  1  0.251981  0  0.080993  0.035769  0  3.923286  0
C  C75  1  0.52840629  0.67566731  0.61953141  1  0.315573  0  0.080628  0.0341  0  3.928749  0
C  C76  1  0.74788827  0.58544981  0.58737289  1  -0.062883  0  -0.003595  -0.150458  0  3.883762  0
C  C77  1  0.50997366  0.66600500  0.66207544  1  -0.111972  0  -0.002771  -0.147561  0  3.883849  0
C  C78  1  0.60829809  0.63999905  0.60758900  1  -0.125022  0  -0.012915  -0.063674  0  4.081697  0
C  C79  1  0.64939914  0.60653346  0.64166692  1  -0.098991  0  -0.013208  -0.064646  0  4.082688  0
C  C80  1  0.07536900  0.22337325  0.62896588  1  0.320251  0  0.080594  0.034865  0  3.927322  0
C  C81  1  0.17438216  0.02168437  0.61949390  1  0.342742  0  0.081652  0.035407  0  3.921327  0
C  C82  1  0.08531039  0.24099993  0.58636355  1  -0.088358  0  -0.004616  -0.150335  0  3.88626  0
C  C83  1  0.16597775  0.00411969  0.66216763  1  -0.114716  0  -0.002087  -0.147118  0  3.879718  0
C  C84  1  0.14457150  0.10169289  0.60741187  1  -0.102128  0  -0.012577  -0.061843  0  4.081786  0
C  C85  1  0.11101349  0.14360614  0.64124900  1  -0.173791  0  -0.013796  -0.064425  0  4.083694  0
C  C86  1  0.83877995  0.80658074  0.39816572  1  0.330491  0  0.08036  0.035821  0  3.926805  0
C  C87  1  0.90346685  0.95312757  0.35316519  1  0.370285  0  0.080838  0.03446  0  3.922194  0
C  C88  1  0.90732752  0.76271090  0.41486463  1  -0.129089  0  -0.004551  -0.151669  0  3.887114  0
C  C89  1  0.83582024  0.99595051  0.33545448  1  -0.14845  0  -0.001766  -0.147454  0  3.878871  0
C  C90  1  0.90612648  0.88237028  0.37440465  1  -0.147714  0  -0.012826  -0.063293  0  4.083608  0
C  C91  1  0.83861745  0.87433826  0.37399260  1  -0.108331  0  -0.0133  -0.065481  0  4.08344  0
C  C92  1  0.65454283  0.15681859  0.14783198  1  0.013833  0  -0.035869  -0.192568  0  3.98247  0
C  C93  1  0.60056121  0.10100405  0.09524484  1  -0.074298  0  -0.009807  -0.003431  0  3.996442  0
C  C94  1  0.66749369  0.17456774  0.10442001  1  0.531264  0  0.101349  0.322335  0  4.047711  0
C  C95  1  0.58591018  0.08468801  0.13823088  1  0.050634  0  -0.096464  -0.134492  0  4.004622  0
C  C96  1  0.64132011  0.14475170  0.07852419  1  0.038931  0  -0.086925  -0.207067  0  3.892917  0
C  C97  1  0.61364779  0.11178662  0.16386031  1  -0.038813  0  -0.079426  -0.061039  0  4.004942  0
C  C98  1  0.67119253  0.52328358  0.12020748  1  0.329951  0  0.080285  0.033143  0  3.931113  0
C  C99  1  0.57198354  0.72477613  0.12999721  1  0.270036  0  0.080173  0.034541  0  3.92841  0
C  C100  1  0.66263898  0.50548393  0.16284465  1  -0.170551  0  -0.003295  -0.148529  0  3.886794  0
C  C101  1  0.58212912  0.74270865  0.08744655  1  -0.079219  0  -0.002206  -0.146326  0  3.883117  0
C  C102  1  0.60757287  0.64493253  0.14212472  1  -0.118849  0  -0.013773  -0.064793  0  4.083688  0
C  C103  1  0.64130584  0.60331870  0.10819902  1  -0.083349  0  -0.013646  -0.063937  0  4.085802  0
C  C104  1  0.08611384  0.11879712  0.17684616  1  0.331096  0  0.080255  0.034891  0  3.931347  0
C  C105  1  0.17159645  0.12192454  0.07121662  1  0.284846  0  0.080663  0.033727  0  3.925808  0
C  C106  1  0.01321489  0.15867690  0.16458180  1  -0.117718  0  -0.005276  -0.153347  0  3.891999  0
C  C107  1  0.24461716  0.08351927  0.08346511  1  -0.108313  0  -0.001945  -0.146113  0  3.881836  0
C  C108  1  0.11388594  0.13793777  0.10532774  1  -0.058836  0  -0.013292  -0.063852  0  4.086501  0
C  C109  1  0.14419851  0.10841540  0.14300378  1  -0.178876  0  -0.013272  -0.065346  0  4.083315  0
C  C110  1  0.34532979  0.84868690  0.84862902  1  -0.002716  0  -0.035505  -0.19344  0  3.979393  0
C  C111  1  0.40083912  0.89888854  0.90334257  1  -0.041128  0  -0.010304  -0.004626  0  3.995589  0
C  C112  1  0.30124295  0.92195831  0.86249013  1  0.539544  0  0.099388  0.320513  0  4.051154  0
C  C113  1  0.44531537  0.82661996  0.88941195  1  0.016555  0  -0.095905  -0.133549  0  4.002022  0
C  C114  1  0.32942517  0.94570472  0.89034585  1  0.020033  0  -0.086343  -0.20632  0  3.894952  0
C  C115  1  0.41701771  0.80207528  0.86273862  1  -0.047552  0  -0.077916  -0.059276  0  3.995556  0
C  C116  1  0.40455121  0.45277825  0.85473333  1  0.297299  0  0.079749  0.034352  0  3.929206  0
C  C117  1  0.34023829  0.30557469  0.89849668  1  0.339363  0  0.079728  0.032553  0  3.932295  0
C  C118  1  0.33643565  0.49644804  0.83755499  1  -0.063505  0  -0.003672  -0.151232  0  3.886519  0
C  C119  1  0.40899351  0.26113833  0.91479821  1  -0.129681  0  -0.002474  -0.145853  0  3.884999  0
C  C120  1  0.33977947  0.37394499  0.87495411  1  -0.159575  0  -0.012764  -0.064048  0  4.081918  0
C  C121  1  0.40751641  0.38156338  0.87533068  1  -0.108796  0  -0.013698  -0.065366  0  4.085175  0
C  C122  1  0.94641127  0.79228876  0.85121521  1  0.278144  0  0.081185  0.036045  0  3.928673  0
C  C123  1  0.80608629  0.95300119  0.90201510  1  0.29387  0  0.080209  0.031986  0  3.929956  0
C  C124  1  0.99294927  0.83093935  0.83702775  1  -0.112421  0  -0.003984  -0.149354  0  3.886078  0
C  C125  1  0.75866648  0.91509733  0.91534632  1  -0.128338  0  -0.002167  -0.14626  0  3.882436  0
C  C126  1  0.87293049  0.90978023  0.87698680  1  -0.082792  0  -0.013761  -0.061963  0  4.083886  0
C  C127  1  0.87657401  0.83806392  0.87325523  1  -0.096615  0  -0.014099  -0.066234  0  4.084348  0
S  S128  1  0.29704969  0.32541029  0.39744809  1  0.398837  0  0.150019  0.229391  0  2.799467  0
S  S129  1  0.45249862  0.42217284  0.35247441  1  0.393899  0  0.150868  0.22961  0  2.801228  0
S  S130  1  0.66708480  0.63152485  0.56177825  1  0.399115  0  0.153119  0.234539  0  2.799603  0
S  S131  1  0.59062239  0.61502503  0.68751402  1  0.396635  0  0.15048  0.229746  0  2.799911  0
S  S132  1  0.13631781  0.15959327  0.56133533  1  0.388876  0  0.147968  0.225802  0  2.803635  0
S  S133  1  0.11963248  0.08564331  0.68731437  1  0.408686  0  0.149104  0.227734  0  2.801183  0
S  S134  1  0.97059112  0.80576097  0.40196988  1  0.402868  0  0.151793  0.232351  0  2.80308  0
S  S135  1  0.77461412  0.95062847  0.34598501  1  0.399162  0  0.154538  0.23595  0  2.794535  0
S  S136  1  0.61605720  0.58675753  0.18811555  1  0.383936  0  0.149965  0.229413  0  2.799765  0
S  S137  1  0.63325842  0.66159152  0.06224896  1  0.397765  0  0.149272  0.227627  0  2.807101  0
S  S138  1  0.01578976  0.18153993  0.11149161  1  0.388175  0  0.150174  0.230884  0  2.805401  0
S  S139  1  0.24237889  0.06513896  0.13665150  1  0.418974  0  0.153258  0.234414  0  2.793957  0
S  S140  1  0.27523581  0.45118734  0.84774128  1  0.407312  0  0.155393  0.237961  0  2.797763  0
S  S141  1  0.47231882  0.30406150  0.90227653  1  0.39404  0  0.149836  0.229177  0  2.800576  0
S  S142  1  0.95203585  0.92251279  0.85176686  1  0.399208  0  0.149133  0.228237  0  2.806927  0
S  S143  1  0.79707689  0.82570791  0.89820018  1  0.398454  0  0.148843  0.22808  0  2.801936  0
N  N144  1  0.29575807  0.52499757  0.41330837  1  0.37283  0  0.060689  0.527017  0  4.220212  0
N  N145  1  0.46476666  0.21275095  0.34801588  1  0.364508  0  0.060731  0.527108  0  4.22078  0
N  N146  1  0.78082069  0.54843039  0.66169720  1  0.370283  0  0.062453  0.528504  0  4.214675  0
N  N147  1  0.47701119  0.72108751  0.58859853  1  0.376445  0  0.061233  0.526383  0  4.221999  0
N  N148  1  0.02977170  0.27534890  0.65970864  1  0.374128  0  0.060883  0.527672  0  4.219859  0
N  N149  1  0.20327954  0.96948022  0.58810623  1  0.363817  0  0.062016  0.527186  0  4.215843  0
N  N150  1  0.77003893  0.79265623  0.40508530  1  0.399494  0  0.05968  0.525989  0  4.220313  0
N  N151  1  0.96494129  0.97509828  0.35459414  1  0.369229  0  0.062668  0.528973  0  4.213276  0
N  N152  1  0.70117613  0.47087414  0.08897000  1  0.37298  0  0.060882  0.527035  0  4.219477  0
N  N153  1  0.52702330  0.77651177  0.16091450  1  0.385642  0  0.060174  0.527684  0  4.216483  0
N  N154  1  0.10642533  0.08471293  0.21817843  1  0.388193  0  0.060294  0.527319  0  4.221355  0
N  N155  1  0.15001209  0.14064377  0.02962044  1  0.370633  0  0.062587  0.528207  0  4.215439  0
N  N156  1  0.46647516  0.47413989  0.85582989  1  0.391522  0  0.059661  0.526808  0  4.220378  0
N  N157  1  0.27158123  0.29153520  0.90539377  1  0.367559  0  0.061498  0.527724  0  4.219681  0
N  N158  1  0.96373227  0.71292011  0.84807750  1  0.367366  0  0.060156  0.526864  0  4.221796  0
N  N159  1  0.79659112  0.02553229  0.91295670  1  0.372855  0  0.05955  0.525136  0  4.226865  0
O  O160  1  0.00150442  0.49946746  0.49897077  1  -1.228206  0  -0.573371  -1.04233  0  2.531491  0
O  O161  1  0.06609745  0.31376598  0.52202845  1  -1.149524  0  -0.310823  -0.535238  0  2.301762  0
O  O162  1  0.02495391  0.54317522  0.58187112  1  -1.16619  0  -0.308365  -0.534288  0  2.345779  0
O  O163  1  0.14012014  0.51130934  0.43847830  1  -1.152356  0  -0.308748  -0.531374  0  2.351737  0
O  O164  1  0.05136189  0.37371185  0.57762490  1  -1.156642  0  -0.305873  -0.527175  0  2.347617  0
O  O165  1  0.15860763  0.38600429  0.45173666  1  -1.152025  0  -0.310973  -0.535171  0  2.299402  0
O  O166  1  0.09638784  0.57949142  0.52740261  1  -1.165729  0  -0.310802  -0.561976  0  2.351601  0
O  O167  1  0.99556525  0.66734858  0.45582513  1  -1.153833  0  -0.310855  -0.534693  0  2.304389  0
O  O168  1  0.88096622  0.49312915  0.44595153  1  -1.173463  0  -0.311893  -0.561412  0  2.362551  0
O  O169  1  0.90249234  0.64311952  0.43788106  1  -1.152416  0  -0.306743  -0.527078  0  2.352945  0
O  O170  1  0.99634677  0.39068314  0.43871238  1  -1.172263  0  -0.310276  -0.537027  0  2.334641  0
O  O171  1  0.87999058  0.50543389  0.57669773  1  -1.157015  0  -0.302208  -0.521969  0  2.355016  0
O  O172  1  0.81983892  0.58921004  0.52345767  1  -1.154761  0  -0.310314  -0.533564  0  2.312213  0
O  O173  1  0.75066583  0.25041521  0.24912271  1  -1.228198  0  -0.573638  -1.043562  0  2.531098  0
O  O174  1  0.60258392  0.35113569  0.30985297  1  -1.163107  0  -0.31003  -0.532771  0  2.301383  0
O  O175  1  0.67615768  0.15906178  0.21474519  1  -1.180288  0  -0.311563  -0.539184  0  2.346393  0
O  O176  1  0.74675554  0.37488999  0.17374815  1  -1.157021  0  -0.308794  -0.531129  0  2.350562  0
O  O177  1  0.58678941  0.25527576  0.28871419  1  -1.148202  0  -0.304618  -0.524744  0  2.347389  0
O  O178  1  0.65852972  0.43243823  0.22644322  1  -1.159432  0  -0.310846  -0.534088  0  2.297814  0
O  O179  1  0.71473551  0.23046327  0.16122855  1  -1.157606  0  -0.30979  -0.559349  0  2.34968  0
O  O180  1  0.88061198  0.20792756  0.16842333  1  -1.161154  0  -0.31228  -0.535853  0  2.306365  0
O  O181  1  0.85603073  0.24867151  0.31372577  1  -1.163187  0  -0.30747  -0.53517  0  2.334493  0
O  O182  1  0.93291955  0.19540496  0.22646468  1  -1.156445  0  -0.304391  -0.525751  0  2.346011  0
O  O183  1  0.75778136  0.36671348  0.30357965  1  -1.173506  0  -0.314429  -0.547322  0  2.337119  0
O  O184  1  0.73910534  0.10087942  0.30396361  1  -1.142456  0  -0.306814  -0.528388  0  2.304683  0
O  O185  1  0.86138028  0.09127617  0.28903237  1  -1.153026  0  -0.304008  -0.524573  0  2.353259  0
O  O186  1  0.25048904  0.74945981  0.74937240  1  -1.209488  0  -0.573539  -1.04388  0  2.529048  0
O  O187  1  0.37715065  0.70023735  0.67083652  1  -1.151477  0  -0.305163  -0.52583  0  2.344313  0
O  O188  1  0.35779304  0.75237865  0.81079709  1  -1.171  0  -0.307024  -0.531453  0  2.342555  0
O  O189  1  0.16160608  0.93257028  0.72623584  1  -1.157406  0  -0.313065  -0.53848  0  2.30163  0
O  O190  1  0.43677270  0.68711188  0.72616618  1  -1.152321  0  -0.308872  -0.531745  0  2.301308  0
O  O191  1  0.24731455  0.87251870  0.67341260  1  -1.155401  0  -0.303164  -0.522819  0  2.348158  0
O  O192  1  0.25414238  0.86715475  0.80536827  1  -1.181938  0  -0.312758  -0.563947  0  2.358068  0
O  O193  1  0.10104366  0.85223978  0.80886690  1  -1.156859  0  -0.312474  -0.535642  0  2.308402  0
O  O194  1  0.17495963  0.65424750  0.71685434  1  -1.163516  0  -0.311782  -0.543799  0  2.32765  0
O  O195  1  0.08691630  0.75446011  0.78884678  1  -1.154656  0  -0.303631  -0.522979  0  2.347703  0
O  O196  1  0.20734263  0.73113569  0.66391078  1  -1.160744  0  -0.309492  -0.540163  0  2.33811  0
O  O197  1  0.36235439  0.59191270  0.79160175  1  -1.15636  0  -0.307933  -0.530025  0  2.354702  0
O  O198  1  0.24001612  0.60156463  0.80594819  1  -1.154956  0  -0.307411  -0.52861  0  2.305081  0
O  O199  1  0.50146234  0.99906066  0.99929622  1  -1.238673  0  -0.573311  -1.044052  0  2.528951  0
O  O200  1  0.49580798  0.16617670  0.95648127  1  -1.149734  0  -0.308438  -0.5304  0  2.305941  0
O  O201  1  0.38326842  0.98740701  0.94797121  1  -1.165348  0  -0.308837  -0.539229  0  2.341082  0
O  O202  1  0.66017454  0.88593074  0.95333986  1  -1.154733  0  -0.310902  -0.535016  0  2.301479  0
O  O203  1  0.40602024  0.14035619  0.93582269  1  -1.153943  0  -0.304099  -0.523266  0  2.342624  0
O  O204  1  0.64092354  0.01143825  0.93934169  1  -1.15088  0  -0.306317  -0.52708  0  2.349001  0
O  O205  1  0.50050780  0.88799274  0.93806874  1  -1.168941  0  -0.313091  -0.544842  0  2.326039  0
O  O206  1  0.56597109  0.81433782  0.02286728  1  -1.159913  0  -0.309732  -0.531989  0  2.303418  0
O  O207  1  0.52377795  0.04318886  0.08390571  1  -1.155915  0  -0.312382  -0.542945  0  2.333389  0
O  O208  1  0.54629328  0.87586881  0.07865444  1  -1.156871  0  -0.304287  -0.522429  0  2.347027  0
O  O209  1  0.59615454  0.07715015  0.02889988  1  -1.160249  0  -0.309476  -0.538953  0  2.334291  0
O  O210  1  0.32597827  0.09474785  0.02307952  1  -1.157227  0  -0.304195  -0.523935  0  2.351601  0
O  O211  1  0.37670212  0.01245400  0.07905471  1  -1.151316  0  -0.307662  -0.528738  0  2.303664  0
O  O212  1  0.77633199  0.51584933  0.40178692  1  -1.155231  0  -0.349485  -0.433263  0  2.244023  0
O  O213  1  0.16966393  0.65566358  0.53914708  1  -1.139882  0  -0.344401  -0.427492  0  2.247936  0
O  O214  1  0.70420060  0.21862588  0.08633399  1  -1.146919  0  -0.344548  -0.427953  0  2.249821  0
O  O215  1  0.23266834  0.97066168  0.85026113  1  -1.136042  0  -0.349115  -0.431843  0  2.241971  0
O  O216  1  0.33182817  0.55781539  0.38897692  1  -0.427625  0  -0.134016  -0.327994  0  1.860508  0
O  O217  1  0.25659356  0.54719013  0.44588766  1  -0.432475  0  -0.120828  -0.305203  0  1.900164  0
O  O218  1  0.40789371  0.19933118  0.34894901  1  -0.450104  0  -0.138505  -0.332691  0  1.857946  0
O  O219  1  0.53190498  0.16479788  0.34642723  1  -0.400588  0  -0.120383  -0.302901  0  1.890245  0
O  O220  1  0.75442139  0.52525560  0.69586214  1  -0.439513  0  -0.13525  -0.330145  0  1.863759  0
O  O221  1  0.84317911  0.55219356  0.65383438  1  -0.409348  0  -0.11851  -0.300874  0  1.890319  0
O  O222  1  0.50058539  0.70106913  0.55332050  1  -0.443352  0  -0.135687  -0.329228  0  1.858116  0
O  O223  1  0.41738532  0.77651774  0.59834804  1  -0.40801  0  -0.118563  -0.29962  0  1.89411  0
O  O224  1  0.05007404  0.25278815  0.69491018  1  -0.450224  0  -0.136397  -0.330477  0  1.857321  0
O  O225  1  0.97388091  0.33437075  0.64991823  1  -0.399962  0  -0.117731  -0.29941  0  1.89401  0
O  O226  1  0.22554928  0.99578749  0.55363944  1  -0.445387  0  -0.136363  -0.331485  0  1.864484  0
O  O227  1  0.20069750  0.90656818  0.59649997  1  -0.405658  0  -0.113851  -0.294979  0  1.894901  0
O  O228  1  0.72820087  0.82216589  0.37696537  1  -0.458385  0  -0.134562  -0.328527  0  1.858638  0
O  O229  1  0.75608482  0.75688974  0.43784178  1  -0.416814  0  -0.123033  -0.305926  0  1.889469  0
O  O230  1  0.02769359  0.92037018  0.36079929  1  -0.443641  0  -0.134415  -0.329027  0  1.863313  0
O  O231  1  0.95105101  0.04353333  0.35176599  1  -0.404605  0  -0.117264  -0.300503  0  1.894677  0
O  O232  1  0.72396356  0.49694265  0.05459665  1  -0.442802  0  -0.135863  -0.329513  0  1.861611  0
O  O233  1  0.69942620  0.40748265  0.09738085  1  -0.428806  0  -0.121875  -0.306632  0  1.899288  0
O  O234  1  0.54784646  0.75354098  0.19601697  1  -0.453064  0  -0.139654  -0.334512  0  1.856706  0
O  O235  1  0.47118729  0.83584300  0.15144306  1  -0.417286  0  -0.119232  -0.302316  0  1.890608  0
O  O236  1  0.17048854  0.07669429  0.22426553  1  -0.456688  0  -0.137577  -0.332215  0  1.856979  0
O  O237  1  0.06232380  0.06356886  0.24310450  1  -0.412531  0  -0.119205  -0.300715  0  1.892823  0
O  O238  1  0.08515585  0.19353499  0.02581104  1  -0.444958  0  -0.135926  -0.330526  0  1.863366  0
O  O239  1  0.19356041  0.10237824  0.00225998  1  -0.399981  0  -0.115449  -0.297559  0  1.896104  0
O  O240  1  0.52980227  0.41917406  0.86048324  1  -0.446223  0  -0.1379  -0.332685  0  1.862823  0
O  O241  1  0.45270048  0.54242106  0.85405322  1  -0.436882  0  -0.12331  -0.307063  0  1.889899  0
O  O242  1  0.22891400  0.32243790  0.87767179  1  -0.445714  0  -0.136773  -0.331063  0  1.855659  0
O  O243  1  0.25864283  0.25428300  0.93775462  1  -0.409739  0  -0.117044  -0.297958  0  1.893767  0
O  O244  1  0.90666157  0.69965172  0.84934605  1  -0.456482  0  -0.13862  -0.333114  0  1.859131  0
O  O245  1  0.03081377  0.66481231  0.84635308  1  -0.395216  0  -0.120441  -0.302939  0  1.891101  0
O  O246  1  0.83215288  0.05830471  0.88808965  1  -0.445432  0  -0.137563  -0.332061  0  1.864607  0
O  O247  1  0.75829348  0.04786074  0.94566110  1  -0.410541  0  -0.118348  -0.300199  0  1.895031  0
