# generated using pymatgen
data_ZnH10C16(NO2)2
_symmetry_space_group_name_H-M   'P 1'
_cell_length_a   8.31379734
_cell_length_b   11.17879881
_cell_length_c   14.78190000
_cell_angle_alpha   90.00000000
_cell_angle_beta   90.00029634
_cell_angle_gamma   90.00000000
_symmetry_Int_Tables_number   1
_chemical_formula_structural   ZnH10C16(NO2)2
_chemical_formula_sum   'Zn4 H40 C64 N8 O16'
_cell_volume   1373.80418129
_cell_formula_units_Z   4
loop_
 _symmetry_equiv_pos_site_id
 _symmetry_equiv_pos_as_xyz
  1  'x, y, z'
loop_
 _atom_site_type_symbol
 _atom_site_label
 _atom_site_symmetry_multiplicity
 _atom_site_fract_x
 _atom_site_fract_y
 _atom_site_fract_z
 _atom_site_occupancy
 _atom_site_hle17_bader_spin_density
 _atom_site_hle17_ddec_charge
 _atom_site_hle17_ddec_spin_density
 _atom_site_hle17_ddec_sum_bond_order
 _atom_site_hle17_magmom
 _atom_site_hse06_10hf_bader_spin_density
 _atom_site_hse06_10hf_ddec_charge
 _atom_site_hse06_10hf_ddec_spin_density
 _atom_site_hse06_10hf_ddec_sum_bond_order
 _atom_site_hse06_10hf_magmom
 _atom_site_hse06_bader_spin_density
 _atom_site_hse06_ddec_charge
 _atom_site_hse06_ddec_spin_density
 _atom_site_hse06_ddec_sum_bond_order
 _atom_site_hse06_magmom
 _atom_site_pbe_bader_charge
 _atom_site_pbe_bader_spin_density
 _atom_site_pbe_cm5_charge
 _atom_site_pbe_ddec_charge
 _atom_site_pbe_ddec_spin_density
 _atom_site_pbe_ddec_sum_bond_order
 _atom_site_pbe_magmom
Zn  Zn0  1  0.10597324  0.15073623  0.98540679  1  0  1.076259  0  1.799108  0  0  0.902377  0  2.269809  0  0  0.951141  0  2.210685  0  1.3032  0  0.695826  0.868171  0  2.310501  0
Zn  Zn1  1  0.39402813  0.65073628  0.51459332  1  0  1.07624  0  1.799148  0  0  0.902356  0  2.269851  0  0  0.95112  0  2.210727  0  1.303204  0  0.695814  0.868151  0  2.310546  0
Zn  Zn2  1  0.89402588  0.84926388  0.01459342  1  0  1.076274  0  1.799094  0  0  0.902394  0  2.269783  0  0  0.951159  0  2.210661  0  1.303201  0  0.695839  0.868193  0  2.310479  0
Zn  Zn3  1  0.60597339  0.34926472  0.48540621  1  0  1.076251  0  1.799102  0  0  0.902371  0  2.269794  0  0  0.951135  0  2.210675  0  1.3032  0  0.695825  0.868169  0  2.310488  0
H  H4  1  0.67192160  0.90661887  0.32924583  1  0  0.103656  0  0.945565  0  0  0.112814  0  1.011433  0  0  0.116479  0  1.008469  0  0.078205  0  0.105719  0.110166  0  1.01358  0
H  H5  1  0.82807648  0.40661793  0.17075380  1  0  0.10363  0  0.945611  0  0  0.112807  0  1.011464  0  0  0.116476  0  1.008491  0  0.078175  0  0.10571  0.110161  0  1.013607  0
H  H6  1  0.32807752  0.09338213  0.67075438  1  0  0.10363  0  0.945634  0  0  0.112812  0  1.011477  0  0  0.116479  0  1.008508  0  0.078186  0  0.10572  0.110166  0  1.013621  0
H  H7  1  0.17192384  0.59338128  0.82924640  1  0  0.103625  0  0.945595  0  0  0.112781  0  1.01148  0  0  0.11645  0  1.008509  0  0.078173  0  0.105702  0.110135  0  1.013624  0
H  H8  1  0.21316372  0.79427765  0.22851116  1  0  0.104469  0  0.955248  0  0  0.110449  0  1.024782  0  0  0.114639  0  1.020588  0  0.124168  0  0.106026  0.107379  0  1.027844  0
H  H9  1  0.28683523  0.29427759  0.27148759  1  0  0.104398  0  0.955308  0  0  0.110394  0  1.024824  0  0  0.114611  0  1.020604  0  0.124181  0  0.105986  0.107324  0  1.027887  0
H  H10  1  0.78683539  0.20572246  0.77148769  1  0  0.104394  0  0.955307  0  0  0.110387  0  1.024831  0  0  0.114605  0  1.020607  0  0.124178  0  0.105982  0.107316  0  1.027895  0
H  H11  1  0.71316509  0.70572251  0.72851262  1  0  0.104442  0  0.95523  0  0  0.110424  0  1.024771  0  0  0.114588  0  1.020614  0  0.124203  0  0.105999  0.107353  0  1.027837  0
H  H12  1  0.48698204  0.05553459  0.08046536  1  0  0.109658  0  0.951104  0  0  0.117539  0  1.018361  0  0  0.120856  0  1.015482  0  0.109494  0  0.109016  0.115108  0  1.020519  0
H  H13  1  0.01301812  0.55553464  0.41953406  1  0  0.109707  0  0.951057  0  0  0.11758  0  1.018327  0  0  0.120899  0  1.015447  0  0.109506  0  0.109025  0.115149  0  1.020487  0
H  H14  1  0.51301708  0.94446641  0.91953416  1  0  0.10969  0  0.951116  0  0  0.117578  0  1.018364  0  0  0.120896  0  1.015484  0  0.109504  0  0.109033  0.115147  0  1.020523  0
H  H15  1  0.98698340  0.44446546  0.58046614  1  0  0.109696  0  0.951048  0  0  0.117554  0  1.018333  0  0  0.120872  0  1.015454  0  0.109508  0  0.109019  0.115123  0  1.020492  0
H  H16  1  0.85193922  0.01505439  0.17869872  1  0  0.099502  0  0.928849  0  0  0.114521  0  0.992006  0  0  0.115607  0  0.99112  0  0.101154  0  0.118073  0.113595  0  0.992881  0
H  H17  1  0.64805886  0.51505444  0.32130226  1  0  0.099498  0  0.928886  0  0  0.114538  0  0.992003  0  0  0.115624  0  0.991118  0  0.101142  0  0.118073  0.113612  0  0.992878  0
H  H18  1  0.14805990  0.98494572  0.82130216  1  0  0.09953  0  0.928867  0  0  0.114547  0  0.992011  0  0  0.115632  0  0.991127  0  0.101137  0  0.118079  0.11362  0  0.992886  0
H  H19  1  0.35194146  0.48494477  0.67869862  1  0  0.099504  0  0.928893  0  0  0.114531  0  0.992026  0  0  0.115617  0  0.991141  0  0.101142  0  0.118072  0.113606  0  0.992901  0
H  H20  1  0.73165844  0.13394910  0.14140276  1  0  0.103401  0  0.91818  0  0  0.116913  0  0.9783  0  0  0.11806  0  0.97762  0  0.092911  0  0.116741  0.115994  0  0.978916  0
H  H21  1  0.76834324  0.63394915  0.35859754  1  0  0.103458  0  0.918114  0  0  0.11691  0  0.978306  0  0  0.118058  0  0.977627  0  0.092914  0  0.116751  0.115995  0  0.978916  0
H  H22  1  0.26834308  0.86605101  0.85859744  1  0  0.103395  0  0.91821  0  0  0.116874  0  0.978369  0  0  0.118021  0  0.97769  0  0.092912  0  0.11673  0.115959  0  0.978979  0
H  H23  1  0.23165708  0.36605096  0.64140266  1  0  0.103406  0  0.918192  0  0  0.116913  0  0.978316  0  0  0.118059  0  0.977637  0  0.09291  0  0.116736  0.115995  0  0.978929  0
H  H24  1  0.55959387  0.23082176  0.29608400  1  0  0.107511  0  0.921548  0  0  0.120849  0  0.977589  0  0  0.123501  0  0.973761  0  0.162755  0  0.145266  0.118838  0  0.980407  0
H  H25  1  0.94040541  0.73082181  0.20391698  1  0  0.107486  0  0.921596  0  0  0.120835  0  0.977631  0  0  0.12348  0  0.973801  0  0.162758  0  0.145262  0.118824  0  0.980448  0
H  H26  1  0.44040766  0.76917835  0.70391688  1  0  0.107492  0  0.921534  0  0  0.120835  0  0.977568  0  0  0.123485  0  0.97374  0  0.162731  0  0.145278  0.118825  0  0.980385  0
H  H27  1  0.05959371  0.26917740  0.79608322  1  0  0.107493  0  0.921554  0  0  0.120831  0  0.977596  0  0  0.123484  0  0.973768  0  0.162746  0  0.145265  0.11882  0  0.980414  0
H  H28  1  0.07631771  0.99570447  0.26563049  1  0  0.106879  0  0.979091  0  0  0.114405  0  1.046133  0  0  0.11692  0  1.045574  0  0.094169  0  0.101028  0.112593  0  1.046608  0
H  H29  1  0.42368124  0.49570442  0.23436962  1  0  0.10686  0  0.979092  0  0  0.114386  0  1.046138  0  0  0.116901  0  1.045579  0  0.094163  0  0.101026  0.112574  0  1.046613  0
H  H30  1  0.92368381  0.00429563  0.73436904  1  0  0.106868  0  0.979144  0  0  0.114384  0  1.046195  0  0  0.116899  0  1.045635  0  0.094171  0  0.101025  0.112572  0  1.046669  0
H  H31  1  0.57631787  0.50429568  0.76563059  1  0  0.106871  0  0.97913  0  0  0.114387  0  1.046181  0  0  0.116902  0  1.04562  0  0.094172  0  0.101022  0.112575  0  1.046655  0
H  H32  1  0.28163183  0.01383780  0.38723588  1  0  0.086816  0  0.958398  0  0  0.099188  0  1.014535  0  0  0.101042  0  1.014954  0  0.054054  0  0.097246  0.097809  0  1.014368  0
H  H33  1  0.21836833  0.51383875  0.11276422  1  0  0.086819  0  0.958449  0  0  0.099199  0  1.014576  0  0  0.101053  0  1.014996  0  0.054058  0  0.097261  0.09782  0  1.014408  0
H  H34  1  0.71836969  0.98616141  0.61276432  1  0  0.0868  0  0.958412  0  0  0.099179  0  1.014544  0  0  0.101033  0  1.014962  0  0.05408  0  0.09725  0.097801  0  1.014376  0
H  H35  1  0.78163199  0.48616136  0.88723531  1  0  0.086802  0  0.958402  0  0  0.099185  0  1.014533  0  0  0.101039  0  1.014951  0  0.05406  0  0.097256  0.097806  0  1.014365  0
H  H36  1  0.23490108  0.14069132  0.52155136  1  0  0.095864  0  0.966695  0  0  0.105734  0  1.028724  0  0  0.10925  0  1.026322  0  0.070219  0  0.095652  0.103148  0  1.030574  0
H  H37  1  0.26509787  0.64069138  0.97844941  1  0  0.095886  0  0.96662  0  0  0.105783  0  1.028618  0  0  0.109281  0  1.026234  0  0.070226  0  0.095681  0.103198  0  1.030465  0
H  H38  1  0.76509924  0.85930789  0.47844952  1  0  0.095885  0  0.966645  0  0  0.105754  0  1.028675  0  0  0.10927  0  1.026272  0  0.070242  0  0.095659  0.103167  0  1.030524  0
H  H39  1  0.73490124  0.35930873  0.02155079  1  0  0.095879  0  0.966662  0  0  0.10575  0  1.028691  0  0  0.109265  0  1.026287  0  0.070232  0  0.095658  0.103164  0  1.030539  0
H  H40  1  0.97344928  0.24960285  0.54231065  1  0  0.114666  0  0.958546  0  0  0.126609  0  1.016798  0  0  0.12973  0  1.014707  0  0.091269  0  0.105905  0.124307  0  1.018441  0
H  H41  1  0.52655120  0.74960200  0.95768965  1  0  0.114667  0  0.95853  0  0  0.126606  0  1.016786  0  0  0.129726  0  1.014696  0  0.09128  0  0.105906  0.124304  0  1.01843  0
H  H42  1  0.02655225  0.75039726  0.45768955  1  0  0.114683  0  0.958574  0  0  0.126627  0  1.016817  0  0  0.129749  0  1.014727  0  0.091293  0  0.105912  0.124326  0  1.01846  0
H  H43  1  0.47344912  0.25039721  0.04231055  1  0  0.114673  0  0.958534  0  0  0.126615  0  1.016783  0  0  0.129736  0  1.014693  0  0.091271  0  0.105912  0.124313  0  1.018426  0
C  C44  1  0.59730828  0.98887458  0.20293370  1  0  0.05551  0  3.746735  0  0  0.077748  0  3.99687  0  0  0.073602  0  4.021834  0  0.005356  0  -0.012867  0.080252  0  3.980001  0
C  C45  1  0.90269220  0.48887453  0.29706660  1  0  0.055444  0  3.746947  0  0  0.077726  0  3.997014  0  0  0.073582  0  4.021976  0  0.005343  0  -0.012878  0.080229  0  3.980147  0
C  C46  1  0.40269204  0.01112552  0.79706650  1  0  0.055454  0  3.74691  0  0  0.077761  0  3.996954  0  0  0.073616  0  4.021917  0  0.005341  0  -0.012865  0.080264  0  3.980088  0
C  C47  1  0.09731053  0.51112558  0.70293428  1  0  0.055529  0  3.746703  0  0  0.077767  0  3.996835  0  0  0.073623  0  4.021798  0  0.005338  0  -0.01287  0.08027  0  3.979966  0
C  C48  1  0.57960759  0.91148702  0.27686190  1  0  -0.098762  0  3.682283  0  0  -0.141546  0  3.942129  0  0  -0.138501  0  3.959165  0  -0.076582  0  -0.079959  -0.143229  0  3.930549  0
C  C49  1  0.92039049  0.41148786  0.22313705  1  0  -0.09873  0  3.682379  0  0  -0.141546  0  3.942227  0  0  -0.138501  0  3.959263  0  -0.076543  0  -0.079944  -0.143229  0  3.930647  0
C  C50  1  0.42039033  0.08851219  0.72313763  1  0  -0.098756  0  3.682408  0  0  -0.141585  0  3.942253  0  0  -0.13854  0  3.959289  0  -0.076597  0  -0.079991  -0.143269  0  3.930672  0
C  C51  1  0.07960983  0.58851225  0.77686248  1  0  -0.098742  0  3.682338  0  0  -0.14154  0  3.942195  0  0  -0.138496  0  3.959234  0  -0.076554  0  -0.079962  -0.143223  0  3.930614  0
C  C52  1  0.44128090  0.84136321  0.28572166  1  0  -0.064752  0  3.787285  0  0  -0.037225  0  4.023649  0  0  -0.046621  0  4.046023  0  -0.039294  0  -0.019168  -0.031354  0  4.008712  0
C  C53  1  0.05871565  0.34136315  0.21427641  1  0  -0.064819  0  3.787291  0  0  -0.037314  0  4.023727  0  0  -0.046713  0  4.046109  0  -0.039187  0  -0.019168  -0.031442  0  4.00879  0
C  C54  1  0.55871581  0.15863690  0.71427584  1  0  -0.064804  0  3.787299  0  0  -0.037285  0  4.023716  0  0  -0.046684  0  4.046098  0  -0.039152  0  -0.019154  -0.031412  0  4.008777  0
C  C55  1  0.94128467  0.65863695  0.78572311  1  0  -0.064841  0  3.787161  0  0  -0.037298  0  4.023527  0  0  -0.046693  0  4.045896  0  -0.039358  0  -0.019211  -0.031425  0  4.008589  0
C  C56  1  0.32056230  0.84852587  0.22031429  1  0  -0.054136  0  3.709344  0  0  -0.094465  0  3.959265  0  0  -0.090687  0  3.977797  0  -0.011891  0  -0.070358  -0.096563  0  3.946643  0
C  C57  1  0.17943545  0.34852582  0.27968378  1  0  -0.053953  0  3.709348  0  0  -0.094281  0  3.959247  0  0  -0.090526  0  3.97777  0  -0.012039  0  -0.070294  -0.096381  0  3.946628  0
C  C58  1  0.67943561  0.15147424  0.77968321  1  0  -0.053966  0  3.709345  0  0  -0.094297  0  3.95925  0  0  -0.090544  0  3.977773  0  -0.01203  0  -0.0703  -0.096399  0  3.946634  0
C  C59  1  0.82056607  0.65147608  0.72031439  1  0  -0.054059  0  3.709224  0  0  -0.094384  0  3.959141  0  0  -0.090595  0  3.977686  0  -0.011884  0  -0.070303  -0.096485  0  3.946524  0
C  C60  1  0.33669572  0.92539728  0.14674328  1  0  -0.075892  0  3.775471  0  0  -0.048074  0  4.007966  0  0  -0.059416  0  4.03282  0  -0.043965  0  -0.017043  -0.040817  0  3.99133  0
C  C61  1  0.16330203  0.42539275  0.35325682  1  0  -0.075954  0  3.775456  0  0  -0.048128  0  4.007939  0  0  -0.059475  0  4.032805  0  -0.043975  0  -0.01704  -0.040869  0  3.991301  0
C  C62  1  0.66330580  0.07460462  0.85325557  1  0  -0.075935  0  3.775396  0  0  -0.048106  0  4.007894  0  0  -0.05945  0  4.032754  0  -0.043965  0  -0.017017  -0.040848  0  3.991256  0
C  C63  1  0.83669949  0.57460646  0.64674270  1  0  -0.075834  0  3.77539  0  0  -0.048021  0  4.007863  0  0  -0.059362  0  4.032709  0  -0.044009  0  -0.01702  -0.040762  0  3.991224  0
C  C64  1  0.47595700  0.99513912  0.13788961  1  0  -0.06527  0  3.649418  0  0  -0.102949  0  3.898164  0  0  -0.099541  0  3.915709  0  0.011809  0  -0.068122  -0.104919  0  3.886306  0
C  C65  1  0.02404316  0.49513817  0.36211117  1  0  -0.065252  0  3.64944  0  0  -0.102951  0  3.898173  0  0  -0.09954  0  3.915714  0  0.011812  0  -0.068118  -0.104921  0  3.886313  0
C  C66  1  0.52404332  0.00486099  0.86211059  1  0  -0.065257  0  3.649422  0  0  -0.102973  0  3.898141  0  0  -0.099563  0  3.915683  0  0.011836  0  -0.068127  -0.104943  0  3.886283  0
C  C67  1  0.97595715  0.50486104  0.63788971  1  0  -0.0653  0  3.649331  0  0  -0.102964  0  3.89808  0  0  -0.099554  0  3.915622  0  0.011876  0  -0.068117  -0.104933  0  3.88622  0
C  C68  1  0.74442998  0.06758150  0.19553589  1  0  -0.036893  0  3.629651  0  0  -0.103893  0  3.878847  0  0  -0.098884  0  3.889112  0  0.301143  0  -0.046509  -0.10708  0  3.87185  0
C  C69  1  0.75557170  0.56758066  0.30446374  1  0  -0.03697  0  3.629807  0  0  -0.103938  0  3.878969  0  0  -0.098939  0  3.889257  0  0.30115  0  -0.046529  -0.107129  0  3.871983  0
C  C70  1  0.25557034  0.93241950  0.80446431  1  0  -0.03695  0  3.629823  0  0  -0.103962  0  3.878985  0  0  -0.098958  0  3.889266  0  0.301141  0  -0.046526  -0.107154  0  3.872003  0
C  C71  1  0.24443102  0.43241855  0.69553579  1  0  -0.036938  0  3.629731  0  0  -0.103931  0  3.878904  0  0  -0.098927  0  3.889187  0  0.301141  0  -0.046498  -0.107121  0  3.871917  0
C  C72  1  0.67528949  0.20475903  0.32374857  1  0  0.205887  0  3.648941  0  0  0.142498  0  3.916903  0  0  0.160106  0  3.926928  0  1.023221  0  0.162176  0.131102  0  3.909645  0
C  C73  1  0.82470978  0.70475908  0.17625105  1  0  0.205868  0  3.649023  0  0  0.142466  0  3.917008  0  0  0.160084  0  3.927024  0  1.023275  0  0.162167  0.13107  0  3.909751  0
C  C74  1  0.32471203  0.79524108  0.67625163  1  0  0.205982  0  3.649011  0  0  0.142566  0  3.916969  0  0  0.160178  0  3.92699  0  1.023209  0  0.162205  0.131171  0  3.90971  0
C  C75  1  0.17528933  0.29524013  0.82374847  1  0  0.2059  0  3.648967  0  0  0.14251  0  3.916931  0  0  0.160119  0  3.926953  0  1.023262  0  0.162167  0.131115  0  3.909673  0
C  C76  1  0.88316201  0.18790659  0.41316123  1  0  0.154235  0  3.806377  0  0  0.15218  0  4.049513  0  0  0.154936  0  4.074461  0  0.380662  0  0.089588  0.150227  0  4.032673  0
C  C77  1  0.61683726  0.68790575  0.08683908  1  0  0.154084  0  3.806369  0  0  0.152018  0  4.049508  0  0  0.15477  0  4.074461  0  0.380667  0  0.089571  0.150066  0  4.032667  0
C  C78  1  0.11683951  0.81209351  0.58683897  1  0  0.154202  0  3.806349  0  0  0.15214  0  4.049515  0  0  0.154894  0  4.074465  0  0.380669  0  0.089564  0.150187  0  4.032675  0
C  C79  1  0.38316185  0.31209346  0.91316180  1  0  0.154242  0  3.806332  0  0  0.152175  0  4.049483  0  0  0.154931  0  4.074433  0  0.380659  0  0.089605  0.150222  0  4.032644  0
C  C80  1  0.91215238  0.11557950  0.33613265  1  0  0.09286  0  3.786683  0  0  0.084169  0  4.028963  0  0  0.087162  0  4.053215  0  0.303091  0  0.092628  0.082137  0  4.012648  0
C  C81  1  0.58784810  0.61557866  0.16386765  1  0  0.092873  0  3.786755  0  0  0.08422  0  4.028985  0  0  0.087213  0  4.053239  0  0.303086  0  0.092605  0.082188  0  4.01267  0
C  C82  1  0.08784915  0.88442150  0.66386755  1  0  0.092812  0  3.786739  0  0  0.084089  0  4.029025  0  0  0.087082  0  4.053278  0  0.303088  0  0.092586  0.08206  0  4.012708  0
C  C83  1  0.41215222  0.38441966  0.83613323  1  0  0.09281  0  3.78668  0  0  0.084118  0  4.028964  0  0  0.08711  0  4.053216  0  0.30309  0  0.092601  0.082088  0  4.012647  0
C  C84  1  0.05432054  0.05083015  0.32507677  1  0  -0.146864  0  3.754866  0  0  -0.166381  0  4.009143  0  0  -0.170332  0  4.030931  0  0.001436  0  -0.096439  -0.163669  0  3.994416  0
C  C85  1  0.44567841  0.55083020  0.17492333  1  0  -0.146777  0  3.754905  0  0  -0.166305  0  4.00917  0  0  -0.170255  0  4.030958  0  0.00144  0  -0.096396  -0.163593  0  3.994441  0
C  C86  1  0.94568098  0.94916996  0.67492343  1  0  -0.146811  0  3.754994  0  0  -0.166317  0  4.009274  0  0  -0.170266  0  4.031059  0  0.001424  0  -0.096409  -0.163604  0  3.994544  0
C  C87  1  0.55431950  0.44916991  0.82507687  1  0  -0.146824  0  3.754911  0  0  -0.166334  0  4.00919  0  0  -0.170282  0  4.030975  0  0.001439  0  -0.096424  -0.163621  0  3.99446  0
C  C88  1  0.16815180  0.06186443  0.39362715  1  0  -0.054041  0  3.761848  0  0  -0.067623  0  4.012819  0  0  -0.069209  0  4.036163  0  -0.015697  0  -0.091432  -0.066474  0  3.996917  0
C  C89  1  0.33184716  0.56186448  0.10637295  1  0  -0.054061  0  3.761878  0  0  -0.067652  0  4.012862  0  0  -0.069236  0  4.0362  0  -0.015723  0  -0.091445  -0.066503  0  3.996961  0
C  C90  1  0.83184972  0.93813568  0.60637305  1  0  -0.054026  0  3.761876  0  0  -0.067614  0  4.012847  0  0  -0.069197  0  4.036186  0  -0.015701  0  -0.091423  -0.066465  0  3.996943  0
C  C91  1  0.66815196  0.43813473  0.89362658  1  0  -0.05404  0  3.76185  0  0  -0.067632  0  4.012824  0  0  -0.069217  0  4.036165  0  -0.015701  0  -0.09144  -0.066483  0  3.996921  0
C  C92  1  0.14048695  0.13322541  0.47072203  1  0  -0.07019  0  3.763545  0  0  -0.0875  0  4.019683  0  0  -0.090755  0  4.042761  0  0.018872  0  -0.095884  -0.085222  0  4.003971  0
C  C93  1  0.35951321  0.63322546  0.02927874  1  0  -0.070258  0  3.763469  0  0  -0.08759  0  4.019622  0  0  -0.090832  0  4.042708  0  0.018875  0  -0.09592  -0.085313  0  4.003912  0
C  C94  1  0.85951458  0.86677470  0.52927885  1  0  -0.070183  0  3.763474  0  0  -0.087489  0  4.019609  0  0  -0.090744  0  4.042686  0  0.018885  0  -0.095868  -0.085213  0  4.003904  0
C  C95  1  0.64048590  0.36677465  0.97072146  1  0  -0.070192  0  3.763529  0  0  -0.0875  0  4.019665  0  0  -0.090755  0  4.042742  0  0.01887  0  -0.095882  -0.085224  0  4.003956  0
C  C96  1  0.99764520  0.19630105  0.48220884  1  0  -0.13477  0  3.731021  0  0  -0.154409  0  3.981503  0  0  -0.157245  0  4.002974  0  -0.039872  0  -0.090053  -0.152349  0  3.966909  0
C  C97  1  0.50235408  0.69630111  0.01779146  1  0  -0.134657  0  3.730943  0  0  -0.154293  0  3.98143  0  0  -0.157125  0  4.002894  0  -0.039877  0  -0.090022  -0.152234  0  3.966836  0
C  C98  1  0.00235632  0.80369816  0.51779136  1  0  -0.134776  0  3.731019  0  0  -0.15441  0  3.9815  0  0  -0.157245  0  4.00297  0  -0.039895  0  -0.090059  -0.15235  0  3.966904  0
C  C99  1  0.49764624  0.30369810  0.98220874  1  0  -0.134766  0  3.731014  0  0  -0.154403  0  3.981498  0  0  -0.157237  0  4.002967  0  -0.039889  0  -0.090063  -0.152344  0  3.966905  0
C  C100  1  0.41311688  0.76267765  0.36561523  1  0  0.61997  0  3.935845  0  0  0.574319  0  4.21986  0  0  0.608536  0  4.214003  0  1.550648  0  0.192471  0.551186  0  4.222948  0
C  C101  1  0.08688208  0.26267670  0.13438352  1  0  0.620125  0  3.935612  0  0  0.574443  0  4.219685  0  0  0.608659  0  4.213828  0  1.550673  0  0.192506  0.55131  0  4.222773  0
C  C102  1  0.58688104  0.23732335  0.63438362  1  0  0.620127  0  3.935701  0  0  0.574436  0  4.219782  0  0  0.608653  0  4.213925  0  1.550667  0  0.192478  0.551303  0  4.22287  0
C  C103  1  0.91311944  0.73732251  0.86561668  1  0  0.620081  0  3.935703  0  0  0.5744  0  4.21977  0  0  0.608618  0  4.213914  0  1.550668  0  0.192495  0.551268  0  4.222856  0
C  C104  1  0.20027431  0.93869209  0.08224982  1  0  0.683806  0  3.860468  0  0  0.62947  0  4.149135  0  0  0.666372  0  4.139077  0  1.548341  0  0.225246  0.604276  0  4.155476  0
C  C105  1  0.29972465  0.43869204  0.41774961  1  0  0.683813  0  3.86041  0  0  0.629496  0  4.149036  0  0  0.666398  0  4.138976  0  1.548357  0  0.225245  0.604301  0  4.155377  0
C  C106  1  0.79972481  0.06130712  0.91774971  1  0  0.683823  0  3.86036  0  0  0.629484  0  4.149026  0  0  0.666385  0  4.138965  0  1.548338  0  0.225234  0.60429  0  4.155368  0
C  C107  1  0.70027447  0.56130628  0.58225060  1  0  0.683708  0  3.860379  0  0  0.629402  0  4.149003  0  0  0.666305  0  4.13894  0  1.548361  0  0.2252  0.604207  0  4.155344  0
N  N108  1  0.77756887  0.12885284  0.28115083  1  0  -0.113785  0  3.530466  0  0  -0.026489  0  3.754118  0  0  -0.043539  0  3.778847  0  -1.24202  0  -0.236219  -0.015153  0  3.737136  0
N  N109  1  0.72243041  0.62885290  0.21884948  1  0  -0.113734  0  3.530492  0  0  -0.026457  0  3.754132  0  0  -0.043504  0  3.778858  0  -1.242017  0  -0.236202  -0.015124  0  3.737152  0
N  N110  1  0.22243265  0.87114637  0.71884937  1  0  -0.113751  0  3.530516  0  0  -0.026375  0  3.754079  0  0  -0.043424  0  3.778808  0  -1.242018  0  -0.236203  -0.015042  0  3.737097  0
N  N111  1  0.27756871  0.37114632  0.78115073  1  0  -0.11375  0  3.530462  0  0  -0.026454  0  3.754107  0  0  -0.043504  0  3.778837  0  -1.241996  0  -0.236216  -0.01512  0  3.737126  0
N  N112  1  0.73331833  0.24237488  0.40274062  1  0  -0.434789  0  3.247064  0  0  -0.360944  0  3.543374  0  0  -0.383011  0  3.554318  0  -1.254705  0  -0.352001  -0.34596  0  3.53562  0
N  N113  1  0.76668215  0.74237404  0.09725901  1  0  -0.434751  0  3.247066  0  0  -0.360908  0  3.543383  0  0  -0.382975  0  3.554326  0  -1.254744  0  -0.352026  -0.345926  0  3.535631  0
N  N114  1  0.26668319  0.75762523  0.59725959  1  0  -0.434875  0  3.247109  0  0  -0.361042  0  3.543455  0  0  -0.383107  0  3.554395  0  -1.25471  0  -0.352041  -0.346059  0  3.535702  0
N  N115  1  0.23331697  0.25762518  0.90274119  1  0  -0.434792  0  3.247078  0  0  -0.36094  0  3.543386  0  0  -0.383007  0  3.554329  0  -1.254755  0  -0.351994  -0.345956  0  3.535631  0
O  O116  1  0.52780815  0.74791309  0.42380429  1  0  -0.646893  0  1.97909  0  0  -0.580142  0  2.232177  0  0  -0.608979  0  2.21927  0  -1.154771  0  -0.329063  -0.559898  0  2.240202  0
O  O117  1  0.97219113  0.24791215  0.07619466  1  0  -0.646944  0  1.978932  0  0  -0.580186  0  2.232033  0  0  -0.609021  0  2.219122  0  -1.154813  0  -0.329062  -0.559945  0  2.240061  0
O  O118  1  0.47219217  0.25208791  0.57619456  1  0  -0.646943  0  1.978953  0  0  -0.580181  0  2.232057  0  0  -0.609012  0  2.219138  0  -1.154811  0  -0.329054  -0.55994  0  2.240085  0
O  O119  1  0.02780919  0.75208796  0.92380555  1  0  -0.646927  0  1.978945  0  0  -0.580182  0  2.23206  0  0  -0.60901  0  2.219132  0  -1.15483  0  -0.329067  -0.559943  0  2.240089  0
O  O120  1  0.27749293  0.71369743  0.37605734  1  0  -0.622121  0  1.950425  0  0  -0.567691  0  2.183501  0  0  -0.59444  0  2.176099  0  -1.179359  0  -0.317629  -0.548949  0  2.187861  0
O  O121  1  0.22250603  0.21369648  0.12394277  1  0  -0.622204  0  1.95043  0  0  -0.567751  0  2.18351  0  0  -0.594502  0  2.176113  0  -1.179354  0  -0.317672  -0.549009  0  2.187871  0
O  O122  1  0.72250618  0.28630267  0.62394219  1  0  -0.622221  0  1.950459  0  0  -0.567765  0  2.183542  0  0  -0.594518  0  2.176146  0  -1.17934  0  -0.317659  -0.549022  0  2.187902  0
O  O123  1  0.77749550  0.78630273  0.87605744  1  0  -0.622158  0  1.950514  0  0  -0.567706  0  2.183586  0  0  -0.594455  0  2.176182  0  -1.179318  0  -0.317624  -0.548963  0  2.187946  0
O  O124  1  0.06623568  0.89160832  0.10568147  1  0  -0.650854  0  2.076665  0  0  -0.581293  0  2.351572  0  0  -0.609126  0  2.334915  0  -1.180724  0  -0.315785  -0.561907  0  2.362337  0
O  O125  1  0.43376328  0.39160826  0.39431796  1  0  -0.650858  0  2.076631  0  0  -0.581316  0  2.351542  0  0  -0.60915  0  2.334888  0  -1.180703  0  -0.315795  -0.561932  0  2.362315  0
O  O126  1  0.93376344  0.10839179  0.89431874  1  0  -0.650867  0  2.076659  0  0  -0.581304  0  2.351555  0  0  -0.609145  0  2.334918  0  -1.180692  0  -0.315784  -0.561915  0  2.362316  0
O  O127  1  0.56623704  0.60839184  0.60568224  1  0  -0.650802  0  2.076694  0  0  -0.581253  0  2.351588  0  0  -0.609083  0  2.334927  0  -1.180645  0  -0.315761  -0.561865  0  2.362353  0
O  O128  1  0.22224020  0.99701857  0.00907526  1  0  -0.650934  0  2.088345  0  0  -0.581151  0  2.370726  0  0  -0.60765  0  2.352424  0  -1.187308  0  -0.320085  -0.562735  0  2.382805  0
O  O129  1  0.27776116  0.49702031  0.49092417  1  0  -0.650945  0  2.088437  0  0  -0.581156  0  2.370797  0  0  -0.607655  0  2.352497  0  -1.187378  0  -0.320077  -0.562741  0  2.382883  0
O  O130  1  0.77776012  0.00298064  0.99092494  1  0  -0.650934  0  2.088315  0  0  -0.581154  0  2.370701  0  0  -0.607652  0  2.352399  0  -1.187313  0  -0.320081  -0.56274  0  2.382784  0
O  O131  1  0.72224036  0.50297980  0.50907536  1  0  -0.650921  0  2.088336  0  0  -0.581153  0  2.370701  0  0  -0.607652  0  2.352401  0  -1.187309  0  -0.320082  -0.562746  0  2.382802  0
