# generated using pymatgen
data_MnH34C38(N2Cl)2
_symmetry_space_group_name_H-M   'P 1'
_cell_length_a   12.95328728
_cell_length_b   12.95326851
_cell_length_c   25.94603850
_cell_angle_alpha   81.29404464
_cell_angle_beta   81.29413260
_cell_angle_gamma   72.13469651
_symmetry_Int_Tables_number   1
_chemical_formula_structural   MnH34C38(N2Cl)2
_chemical_formula_sum   'Mn4 H136 C152 N16 Cl8'
_cell_volume   4070.20550186
_cell_formula_units_Z   4
loop_
 _symmetry_equiv_pos_site_id
 _symmetry_equiv_pos_as_xyz
  1  'x, y, z'
loop_
 _atom_site_type_symbol
 _atom_site_label
 _atom_site_symmetry_multiplicity
 _atom_site_fract_x
 _atom_site_fract_y
 _atom_site_fract_z
 _atom_site_occupancy
 _atom_site_pbe_bader_charge
 _atom_site_pbe_bader_spin_density
 _atom_site_pbe_cm5_charge
 _atom_site_pbe_ddec_charge
 _atom_site_pbe_ddec_spin_density
 _atom_site_pbe_ddec_sum_bond_order
 _atom_site_pbe_magmom
Mn  Mn0  1  0.71651149  0.20640658  0.93615088  1  1.390756  4.52218  0.488155  0.648927  4.658636  2.604864  4.424
Mn  Mn1  1  0.79359253  0.28349417  0.56385519  1  1.390695  4.522195  0.488174  0.648923  4.65869  2.604756  4.424
Mn  Mn2  1  0.28349099  0.79357835  0.06385329  1  1.390653  4.522211  0.48818  0.648957  4.658759  2.604782  4.424
Mn  Mn3  1  0.20642129  0.71651325  0.43615915  1  1.390455  4.522254  0.488207  0.648961  4.658633  2.604755  4.424
H  H4  1  0.55608764  0.39080983  0.99928200  1  0.076678  0.001363  0.110242  0.079166  0.000726  1.022532  0.001
H  H5  1  0.60918374  0.44391829  0.50072127  1  0.076409  0.001363  0.110273  0.079161  0.000726  1.022583  0.001
H  H6  1  0.44391726  0.60918534  0.00071851  1  0.076388  0.001363  0.110291  0.079173  0.000727  1.022524  0.001
H  H7  1  0.39081217  0.55608572  0.49928080  1  0.076392  0.001364  0.110281  0.079172  0.000727  1.022545  0.001
H  H8  1  0.37650969  0.43078180  0.05518266  1  0.115452  0.001519  0.092455  0.11781  0.000844  1.062071  0.0
H  H9  1  0.56921703  0.62349433  0.44481844  1  0.115441  0.001518  0.092473  0.117843  0.000843  1.061994  0.0
H  H10  1  0.62349520  0.56921728  0.94481756  1  0.115435  0.001518  0.092481  0.117821  0.000843  1.06206  0.0
H  H11  1  0.43078051  0.37650843  0.55518167  1  0.115462  0.001518  0.092492  0.117849  0.000843  1.061999  0.0
H  H12  1  0.35382649  0.11915667  0.02473807  1  0.132673  0.001268  0.094354  0.113467  0.000622  1.058173  0.0
H  H13  1  0.88084582  0.64617208  0.47526018  1  0.13275  0.001268  0.094371  0.113485  0.000622  1.058105  0.0
H  H14  1  0.64617025  0.88084320  0.97525962  1  0.132844  0.001268  0.094342  0.113439  0.000622  1.058196  0.0
H  H15  1  0.11915336  0.35383021  0.52473869  1  0.133003  0.001268  0.094354  0.113451  0.000622  1.058145  0.0
H  H16  1  0.54094393  0.08773150  0.97583567  1  0.113551  0.001432  0.108095  0.077323  0.000722  1.031087  0.0
H  H17  1  0.91226806  0.45905343  0.52416365  1  0.113028  0.001432  0.108101  0.077368  0.000722  1.031068  0.0
H  H18  1  0.45905281  0.91226993  0.02416113  1  0.113259  0.001431  0.108066  0.077306  0.000722  1.03113  0.0
H  H19  1  0.08773112  0.54094964  0.47583670  1  0.11327  0.001432  0.108086  0.077329  0.000722  1.031111  0.0
H  H20  1  0.32454451  0.56438896  0.35053681  1  0.157801  0.001188  0.102687  0.083833  0.00049  1.046321  0.0
H  H21  1  0.43561267  0.67545414  0.14946366  1  0.157785  0.001188  0.102672  0.083796  0.000491  1.046365  0.0
H  H22  1  0.67545058  0.43561607  0.64946217  1  0.157738  0.001188  0.10268  0.083803  0.000491  1.046424  0.0
H  H23  1  0.56438488  0.32454862  0.85053800  1  0.157708  0.001188  0.102705  0.083859  0.00049  1.046433  0.0
H  H24  1  0.29522372  0.42341597  0.30220150  1  0.064202  0.000697  0.110179  0.118436  0.000383  0.980812  0.0
H  H25  1  0.57658657  0.70477464  0.19779741  1  0.064191  0.000697  0.110184  0.118394  0.000383  0.980869  0.0
H  H26  1  0.70477301  0.57658624  0.69779679  1  0.06417  0.000697  0.110212  0.118458  0.000384  0.980868  0.0
H  H27  1  0.42341179  0.29522554  0.80220361  1  0.064178  0.000697  0.11016  0.118376  0.000383  0.98087  0.0
H  H28  1  0.94901985  0.56171288  0.34176615  1  0.098952  0.000654  0.107475  0.119074  0.00035  1.006377  0.0
H  H29  1  0.43828704  0.05097713  0.15823322  1  0.099008  0.000654  0.107466  0.119052  0.00035  1.006459  0.0
H  H30  1  0.05097281  0.43828660  0.65823419  1  0.09907  0.000654  0.107454  0.119031  0.00035  1.006462  0.0
H  H31  1  0.56171296  0.94902336  0.84176534  1  0.099031  0.000654  0.107452  0.119038  0.00035  1.006429  0.0
H  H32  1  0.99310476  0.69435417  0.38926407  1  0.121182  0.000976  0.104054  0.075129  0.000321  1.046444  0.0
H  H33  1  0.30564014  0.00689654  0.11073422  1  0.121153  0.000977  0.104037  0.075096  0.000321  1.046374  0.0
H  H34  1  0.00688791  0.30564375  0.61073677  1  0.121262  0.000977  0.104052  0.07511  0.000322  1.046556  0.0
H  H35  1  0.69435823  0.99310442  0.88926520  1  0.121179  0.000977  0.104051  0.075125  0.000322  1.046364  0.0
H  H36  1  0.01038311  0.88915985  0.38134573  1  0.106319  0.001102  0.109647  0.077793  0.000519  1.031674  0.0
H  H37  1  0.11084330  0.98961487  0.11865485  1  0.106272  0.001102  0.109636  0.077734  0.000519  1.031762  0.0
H  H38  1  0.98962096  0.11084024  0.61865564  1  0.106446  0.001102  0.109632  0.077704  0.00052  1.031731  0.0
H  H39  1  0.88916079  0.01037975  0.88134461  1  0.106447  0.001102  0.109629  0.077701  0.00052  1.031783  0.0
H  H40  1  0.96698771  0.07464321  0.33002731  1  0.053744  0.000741  0.10624  0.111618  0.000423  1.004705  0.0
H  H41  1  0.92536267  0.03301351  0.16997223  1  0.053691  0.000741  0.106224  0.111597  0.000423  1.004805  0.0
H  H42  1  0.03301718  0.92535665  0.66997285  1  0.053653  0.000741  0.10622  0.111607  0.000423  1.004741  0.0
H  H43  1  0.07464142  0.96698346  0.83002705  1  0.053649  0.000741  0.106217  0.111596  0.000423  1.004786  0.0
H  H44  1  0.29477029  0.07562248  0.34270217  1  0.041601  0.000682  0.108504  0.114012  0.000383  0.99466  0.0
H  H45  1  0.92437900  0.70523401  0.15729687  1  0.0416  0.000682  0.108542  0.114085  0.000383  0.994663  0.0
H  H46  1  0.70523460  0.92437660  0.65729729  1  0.041631  0.000682  0.10851  0.114  0.000383  0.994638  0.0
H  H47  1  0.07562019  0.29476593  0.84270101  1  0.041631  0.000682  0.1085  0.113982  0.000383  0.994674  0.0
H  H48  1  0.32537961  0.88811264  0.39158311  1  0.120916  0.001346  0.110576  0.085132  0.000617  1.026888  0.0
H  H49  1  0.11188793  0.67462237  0.10841592  1  0.120686  0.001347  0.110583  0.085135  0.000618  1.026862  0.0
H  H50  1  0.67462446  0.11188902  0.60841698  1  0.12065  0.001346  0.110577  0.085161  0.000617  1.026908  0.0
H  H51  1  0.88810962  0.32537727  0.89158327  1  0.120861  0.001347  0.110588  0.085144  0.000617  1.026868  0.0
H  H52  1  0.89239924  0.08670681  0.00940604  1  0.140745  0.001204  0.103912  0.082271  0.000508  1.037782  0.0
H  H53  1  0.91329200  0.10760494  0.49059417  1  0.140753  0.001203  0.103914  0.082294  0.000508  1.037755  0.0
H  H54  1  0.10760238  0.91329321  0.99059435  1  0.140767  0.001204  0.103903  0.082286  0.000507  1.0378  0.0
H  H55  1  0.08670636  0.89239680  0.50940596  1  0.140882  0.001204  0.103907  0.082275  0.000508  1.037784  0.0
H  H56  1  0.03806562  0.11946316  0.05272364  1  0.116042  0.001055  0.095056  0.109426  0.000442  1.06142  0.0
H  H57  1  0.88053693  0.96193777  0.44727625  1  0.116061  0.001055  0.09505  0.109422  0.000442  1.061381  0.0
H  H58  1  0.96193437  0.88053890  0.94727557  1  0.116016  0.001055  0.095034  0.10939  0.000442  1.061459  0.0
H  H59  1  0.11946143  0.03806475  0.55272305  1  0.116058  0.001055  0.095051  0.109409  0.000442  1.061409  0.0
H  H60  1  0.86072900  0.46243746  0.03752281  1  0.096928  0.00062  0.105423  0.116467  0.000338  1.0096  0.0
H  H61  1  0.53756167  0.13927073  0.46247680  1  0.096915  0.00062  0.105406  0.116463  0.000338  1.009585  0.0
H  H62  1  0.13927019  0.53756326  0.96247579  1  0.096938  0.00062  0.105412  0.116442  0.000338  1.009601  0.0
H  H63  1  0.46243670  0.86072866  0.53752388  1  0.096946  0.00062  0.105438  0.116497  0.000338  1.009554  0.0
H  H64  1  0.73015395  0.41620124  0.98979300  1  0.106109  0.001066  0.10362  0.071627  0.000374  1.05244  0.0
H  H65  1  0.58379664  0.26984880  0.51020638  1  0.106128  0.001065  0.1036  0.071582  0.000374  1.052439  0.0
H  H66  1  0.26984768  0.58379722  0.01020636  1  0.1061  0.001066  0.103622  0.071627  0.000374  1.05235  0.0
H  H67  1  0.41620173  0.73014982  0.48979398  1  0.106383  0.001066  0.103619  0.071622  0.000374  1.052383  0.0
H  H68  1  0.39978939  0.24845888  0.13479655  1  0.041866  7.2e-05  0.087767  0.123067  2.6e-05  1.022792  0.0
H  H69  1  0.75153560  0.60021204  0.36520360  1  0.041753  7.2e-05  0.087805  0.123162  2.6e-05  1.022705  0.0
H  H70  1  0.60021144  0.75153512  0.86520436  1  0.041892  7.2e-05  0.087779  0.123119  2.6e-05  1.022744  0.0
H  H71  1  0.24846358  0.39978946  0.63479494  1  0.041904  7.2e-05  0.087774  0.12309  2.6e-05  1.022751  0.0
H  H72  1  0.31638209  0.23859493  0.19556770  1  0.014547  7.7e-05  0.088255  0.123305  1.3e-05  1.016774  0.0
H  H73  1  0.76140263  0.68361812  0.30443228  1  0.014575  7.7e-05  0.088278  0.123336  1.3e-05  1.01678  0.0
H  H74  1  0.68361545  0.76140939  0.80443306  1  0.014438  7.7e-05  0.088233  0.123309  1.3e-05  1.01682  0.0
H  H75  1  0.23859002  0.31638293  0.69556640  1  0.014652  7.7e-05  0.088244  0.123296  1.3e-05  1.016812  0.0
H  H76  1  0.32768711  0.36713882  0.16500800  1  0.05572  0.001025  0.091889  0.139028  0.00077  1.004852  0.0
H  H77  1  0.63285775  0.67231485  0.33499073  1  0.055653  0.001025  0.091933  0.139121  0.00077  1.00488  0.0
H  H78  1  0.67231616  0.63285995  0.83499005  1  0.055667  0.001025  0.09195  0.13913  0.00077  1.004834  0.0
H  H79  1  0.36713899  0.32768345  0.66501017  1  0.055706  0.001025  0.091891  0.139038  0.00077  1.004815  0.0
H  H80  1  0.92088723  0.33104749  0.20234942  1  0.046869  1.4e-05  0.090221  0.127041  2e-06  1.018007  0.0
H  H81  1  0.66895223  0.07911291  0.29764980  1  0.046836  1.4e-05  0.090242  0.127069  2e-06  1.01806  0.0
H  H82  1  0.07911114  0.66895112  0.79764863  1  0.04663  1.4e-05  0.090224  0.127017  2e-06  1.01802  0.0
H  H83  1  0.33105022  0.92088609  0.70235023  1  0.046833  1.4e-05  0.090172  0.12696  2e-06  1.017954  0.0
H  H84  1  0.89824407  0.24769254  0.15917655  1  0.041698  8.9e-05  0.089295  0.123594  5.4e-05  1.002381  0.0
H  H85  1  0.75230708  0.10175899  0.34082287  1  0.041703  8.9e-05  0.089303  0.123615  5.4e-05  1.002345  0.0
H  H86  1  0.10175593  0.75230716  0.84082207  1  0.041716  8.9e-05  0.089313  0.123622  5.4e-05  1.002368  0.0
H  H87  1  0.24769292  0.89824150  0.65917762  1  0.041708  8.9e-05  0.089297  0.123614  5.4e-05  1.002377  0.0
H  H88  1  0.85747959  0.39063671  0.14432325  1  0.018109  3.6e-05  0.090786  0.126651  1.5e-05  0.998993  0.0
H  H89  1  0.60936235  0.14252041  0.35567599  1  0.018067  3.6e-05  0.090788  0.126674  1.5e-05  0.998971  0.0
H  H90  1  0.14252123  0.60936120  0.85567544  1  0.018069  3.6e-05  0.090794  0.12666  1.5e-05  0.998962  0.0
H  H91  1  0.39063683  0.85747719  0.64432401  1  0.018092  3.6e-05  0.090805  0.126697  1.5e-05  0.998975  0.0
H  H92  1  0.22901633  0.33139523  0.96885068  1  0.028204  0.000102  0.086969  0.122146  1.9e-05  1.016662  0.0
H  H93  1  0.66860484  0.77098596  0.53115037  1  0.02823  0.000102  0.086956  0.122111  1.9e-05  1.016719  0.0
H  H94  1  0.77098529  0.66860791  0.03114949  1  0.028273  0.000102  0.086928  0.122029  1.9e-05  1.016759  0.0
H  H95  1  0.33139190  0.22901391  0.46884964  1  0.028271  0.000102  0.08693  0.122018  1.9e-05  1.016778  0.0
H  H96  1  0.08704837  0.34498256  0.97174705  1  0.025563  0.000127  0.086334  0.121865  3.5e-05  1.015384  0.0
H  H97  1  0.65501892  0.91295363  0.52825348  1  0.025573  0.000127  0.086317  0.121817  3.5e-05  1.015442  0.0
H  H98  1  0.91295325  0.65502059  0.02825312  1  0.025525  0.000127  0.086313  0.121811  3.5e-05  1.015443  0.0
H  H99  1  0.34497944  0.08704811  0.47174627  1  0.025525  0.000127  0.086299  0.121801  3.5e-05  1.015434  0.0
H  H100  1  0.18238170  0.21404589  0.97999777  1  0.058758  0.0012  0.08947  0.138611  0.000894  1.02639  0.0
H  H101  1  0.78595285  0.81761877  0.52000276  1  0.058748  0.0012  0.089464  0.138598  0.000894  1.02642  0.0
H  H102  1  0.81761911  0.78595593  0.02000140  1  0.058705  0.001201  0.089459  0.138575  0.000894  1.026384  0.0
H  H103  1  0.21404226  0.18238000  0.47999745  1  0.058714  0.0012  0.08944  0.138551  0.000894  1.026358  0.0
H  H104  1  0.07822800  0.36016069  0.39884413  1  0.079475  0.000137  0.087877  0.127944  3.2e-05  1.020636  0.0
H  H105  1  0.63984132  0.92177626  0.10115548  1  0.079532  0.000137  0.087896  0.127963  3.2e-05  1.020667  0.0
H  H106  1  0.92177362  0.63984090  0.60115577  1  0.07949  0.000137  0.087877  0.127962  3.2e-05  1.020646  0.0
H  H107  1  0.36016112  0.07822587  0.89884315  1  0.079517  0.000137  0.087879  0.127941  3.2e-05  1.020652  0.0
H  H108  1  0.04534004  0.23600181  0.40373359  1  0.06972  0.000293  0.089595  0.135079  6.1e-05  1.007572  0.0
H  H109  1  0.76399962  0.95466189  0.09626511  1  0.069621  0.000293  0.0896  0.135121  6.1e-05  1.007541  0.0
H  H110  1  0.95466077  0.76399688  0.59626735  1  0.069775  0.000293  0.089599  0.135092  6.1e-05  1.007579  0.0
H  H111  1  0.23600201  0.04533813  0.90373297  1  0.069703  0.000293  0.089578  0.135063  6.1e-05  1.007592  0.0
H  H112  1  0.18267319  0.23500233  0.39700153  1  0.03274  7.2e-05  0.088926  0.126852  1.6e-05  1.017745  0.0
H  H113  1  0.76499646  0.81732927  0.10299815  1  0.032801  7.1e-05  0.088907  0.126821  1.6e-05  1.0177  0.0
H  H114  1  0.81733007  0.76499644  0.60299845  1  0.032836  7.1e-05  0.088919  0.126854  1.6e-05  1.017681  0.0
H  H115  1  0.23500272  0.18267302  0.89700111  1  0.032798  7.2e-05  0.088903  0.126842  1.6e-05  1.017815  0.0
H  H116  1  0.07218184  0.57407654  0.22933997  1  0.046195  5.3e-05  0.085339  0.119908  1.3e-05  1.02806  0.0
H  H117  1  0.42592577  0.92782045  0.27065932  1  0.046625  5.3e-05  0.085331  0.119886  1.3e-05  1.028049  0.0
H  H118  1  0.92781734  0.42592419  0.77065941  1  0.046183  5.3e-05  0.085341  0.119918  1.4e-05  1.028055  0.0
H  H119  1  0.57407422  0.07218239  0.72933984  1  0.045982  5.3e-05  0.085342  0.119887  1.3e-05  1.028092  0.0
H  H120  1  0.17554312  0.50784325  0.18235806  1  0.0787  0.00055  0.088743  0.135219  0.000268  1.027111  0.0
H  H121  1  0.49215475  0.82445760  0.31764133  1  0.078685  0.00055  0.088755  0.135239  0.000268  1.027097  0.0
H  H122  1  0.82445608  0.49215279  0.81764243  1  0.078829  0.00055  0.088747  0.135231  0.000268  1.027133  0.0
H  H123  1  0.50784524  0.17554446  0.68235788  1  0.078833  0.00055  0.088744  0.135233  0.000268  1.027144  0.0
H  H124  1  0.03813347  0.52010034  0.17716681  1  0.013834  6.2e-05  0.088883  0.123827  1.7e-05  1.009628  0.0
H  H125  1  0.47990064  0.96186596  0.32283356  1  0.013542  6.2e-05  0.088889  0.123845  1.7e-05  1.009607  0.0
H  H126  1  0.96186408  0.47990007  0.82283309  1  0.013621  6.2e-05  0.088896  0.123853  1.7e-05  1.009656  0.0
H  H127  1  0.52010017  0.03813507  0.67716643  1  0.01353  6.2e-05  0.088882  0.123843  1.7e-05  1.009617  0.0
H  H128  1  0.14661802  0.11744978  0.17732543  1  0.038004  5.7e-05  0.089321  0.124475  5e-06  1.035617  0.0
H  H129  1  0.88254845  0.85338022  0.32267540  1  0.038041  5.7e-05  0.089358  0.124525  5e-06  1.035559  0.0
H  H130  1  0.85337872  0.88254931  0.82267425  1  0.038032  5.7e-05  0.089308  0.124482  5e-06  1.035639  0.0
H  H131  1  0.11744910  0.14661941  0.67732533  1  0.03797  5.7e-05  0.089311  0.124464  5e-06  1.035619  0.0
H  H132  1  0.19970347  0.03560237  0.23412793  1  0.041545  3.9e-05  0.090873  0.129978  -1.1e-05  1.002396  0.0
H  H133  1  0.96439857  0.80029546  0.26586999  1  0.041499  3.9e-05  0.090917  0.130028  -1.1e-05  1.00238  0.0
H  H134  1  0.80029163  0.96439797  0.76587139  1  0.041493  3.9e-05  0.09092  0.130001  -1.1e-05  1.002385  0.0
H  H135  1  0.03560143  0.19970269  0.73412835  1  0.041541  3.9e-05  0.09087  0.129974  -1.1e-05  1.002427  0.0
H  H136  1  0.05850176  0.07366246  0.22934135  1  0.019967  4.5e-05  0.086999  0.11899  1.3e-05  1.018068  0.0
H  H137  1  0.92633790  0.94149975  0.27065675  1  0.019844  4.5e-05  0.087021  0.119002  1.3e-05  1.018113  0.0
H  H138  1  0.94149579  0.92633717  0.77065784  1  0.020404  4.5e-05  0.087042  0.119056  1.3e-05  1.01803  0.0
H  H139  1  0.07366209  0.05850309  0.72934047  1  0.020287  4.5e-05  0.087019  0.119006  1.3e-05  1.01807  0.0
C  C140  1  0.50944214  0.33185003  0.00706823  1  0.529307  0.008175  0.047286  0.098288  0.006442  3.949941  0.005
C  C141  1  0.66814593  0.49056197  0.49293508  1  0.529464  0.008174  0.04736  0.098378  0.006442  3.949886  0.005
C  C142  1  0.49055785  0.66815124  0.99293142  1  0.529595  0.008174  0.047315  0.098346  0.006442  3.949962  0.005
C  C143  1  0.33184997  0.50944203  0.50706892  1  0.529555  0.008177  0.047245  0.09827  0.006445  3.949978  0.005
C  C144  1  0.40820355  0.35462889  0.03708252  1  -0.084199  4.7e-05  -0.088404  -0.186784  -0.000405  3.928997  0.0
C  C145  1  0.64536811  0.59180052  0.46292068  1  -0.084073  4.6e-05  -0.088487  -0.186909  -0.000405  3.928922  0.0
C  C146  1  0.59179890  0.64536933  0.96291834  1  -0.084171  4.6e-05  -0.088454  -0.186823  -0.000405  3.929087  0.0
C  C147  1  0.35462862  0.40820247  0.53708063  1  -0.084158  4.6e-05  -0.088474  -0.186826  -0.000406  3.929088  0.0
C  C148  1  0.34885821  0.27861094  0.04374556  1  -0.042679  0.006874  0.014876  0.138417  0.005241  3.9777  0.004
C  C149  1  0.72138782  0.65114518  0.45625447  1  -0.042836  0.006874  0.014876  0.138448  0.005241  3.977655  0.004
C  C150  1  0.65114342  0.72138830  0.95625258  1  -0.042848  0.006873  0.014822  0.138327  0.005241  3.977758  0.004
C  C151  1  0.27861135  0.34885711  0.54374555  1  -0.042701  0.006876  0.014877  0.138358  0.005243  3.977634  0.004
C  C152  1  0.39680178  0.18100711  0.02089931  1  -0.013481  -0.000364  -0.088363  -0.182901  -0.000734  3.927901  0.0
C  C153  1  0.81899073  0.60320019  0.47910133  1  -0.01344  -0.000364  -0.088341  -0.18285  -0.000735  3.927882  0.0
C  C154  1  0.60319414  0.81899378  0.97909721  1  -0.013493  -0.000364  -0.08827  -0.182785  -0.000734  3.928029  0.0
C  C155  1  0.18100681  0.39680257  0.52089994  1  -0.013791  -0.000364  -0.088337  -0.182824  -0.000735  3.927865  0.0
C  C156  1  0.49963873  0.16377584  0.99287340  1  0.414931  0.008271  0.044903  0.097352  0.006399  3.950712  0.005
C  C157  1  0.83622053  0.50036502  0.50712834  1  0.415841  0.008271  0.044902  0.097272  0.006399  3.950852  0.005
C  C158  1  0.50036045  0.83622645  0.00712277  1  0.414646  0.008272  0.044919  0.097338  0.006398  3.950801  0.005
C  C159  1  0.16377538  0.49963899  0.49287412  1  0.41558  0.008273  0.044892  0.097309  0.006401  3.950752  0.005
C  C160  1  0.24273215  0.56053211  0.34727862  1  0.403564  0.00708  0.047037  0.095503  0.005625  3.942828  0.004
C  C161  1  0.43946575  0.75726598  0.15272368  1  0.40362  0.00709  0.04702  0.095471  0.005633  3.942833  0.004
C  C162  1  0.75726132  0.43946791  0.65272470  1  0.403754  0.007095  0.046989  0.0955  0.005637  3.942977  0.004
C  C163  1  0.56053261  0.24273654  0.84727754  1  0.40356  0.00709  0.047029  0.095505  0.005633  3.942852  0.004
C  C164  1  0.22566265  0.48306458  0.32052027  1  0.010864  -0.000627  -0.081702  -0.171568  -0.001014  3.928197  -0.001
C  C165  1  0.51693619  0.77433676  0.17947980  1  0.010885  -0.000628  -0.081693  -0.171485  -0.001016  3.928222  -0.001
C  C166  1  0.77433408  0.51693528  0.67948012  1  0.010865  -0.00063  -0.081746  -0.171619  -0.001017  3.928311  -0.001
C  C167  1  0.48306380  0.22566529  0.82052056  1  0.010846  -0.000628  -0.081756  -0.171617  -0.001016  3.928189  -0.001
C  C168  1  0.11924844  0.47973151  0.31838747  1  -0.034823  0.006758  0.017568  0.141248  0.005196  3.990528  0.004
C  C169  1  0.52027120  0.88075073  0.18161052  1  -0.034855  0.006765  0.017501  0.141163  0.005202  3.990748  0.004
C  C170  1  0.88074911  0.52027125  0.68161264  1  -0.03506  0.006771  0.01749  0.141184  0.005206  3.990392  0.004
C  C171  1  0.47973124  0.11925062  0.81838856  1  -0.034756  0.006765  0.017558  0.141291  0.005202  3.990463  0.004
C  C172  1  0.03369590  0.55929636  0.34229092  1  -0.051957  -0.000558  -0.085514  -0.18728  -0.00089  3.949251  -0.001
C  C173  1  0.44070731  0.96630102  0.15770826  1  -0.051795  -0.00056  -0.085443  -0.187164  -0.000892  3.949352  -0.001
C  C174  1  0.96629839  0.44070343  0.65771043  1  -0.051772  -0.000561  -0.085442  -0.187169  -0.000894  3.949261  -0.001
C  C175  1  0.55929514  0.03369877  0.84229016  1  -0.052094  -0.000559  -0.085416  -0.187135  -0.000893  3.949188  -0.001
C  C176  1  0.05764275  0.63398540  0.36848468  1  0.443684  0.007417  0.043355  0.087003  0.005707  3.971608  0.005
C  C177  1  0.36601201  0.94235784  0.13151430  1  0.443749  0.007427  0.043299  0.086914  0.005715  3.971414  0.005
C  C178  1  0.94235317  0.36601235  0.63151593  1  0.443704  0.007431  0.043312  0.086949  0.005719  3.971614  0.005
C  C179  1  0.63398798  0.05764265  0.86848426  1  0.443964  0.007426  0.043269  0.086896  0.005715  3.971408  0.005
C  C180  1  0.07130282  0.93335788  0.37114496  1  0.464328  0.007072  0.050801  0.10041  0.005435  3.946108  0.005
C  C181  1  0.06664619  0.92869998  0.12885519  1  0.464329  0.007074  0.050827  0.100522  0.005437  3.945855  0.005
C  C182  1  0.92870207  0.06664120  0.62885642  1  0.464156  0.007075  0.050834  0.100578  0.005437  3.945941  0.005
C  C183  1  0.93335790  0.07129542  0.87114498  1  0.464293  0.007073  0.050843  0.100623  0.005436  3.945884  0.005
C  C184  1  0.04767961  0.03657032  0.34298641  1  0.015587  -0.000422  -0.08348  -0.18389  -0.000768  3.946009  0.0
C  C185  1  0.96342887  0.95232428  0.15701431  1  0.01555  -0.000422  -0.08348  -0.183935  -0.000768  3.945866  0.0
C  C186  1  0.95232447  0.96342821  0.65701391  1  0.015808  -0.000423  -0.08346  -0.183935  -0.000769  3.946004  0.0
C  C187  1  0.03657358  0.04767394  0.84298578  1  0.015818  -0.000422  -0.083448  -0.183915  -0.000768  3.945944  0.0
C  C188  1  0.12816086  0.09074897  0.33194971  1  -0.016567  0.005831  0.018521  0.146251  0.004459  3.980899  0.004
C  C189  1  0.90925487  0.87183962  0.16804976  1  -0.016077  0.005832  0.018506  0.146279  0.00446  3.980885  0.004
C  C190  1  0.87184240  0.90925136  0.66805054  1  -0.016551  0.005834  0.018506  0.146229  0.004462  3.980795  0.004
C  C191  1  0.09074595  0.12815986  0.83194919  1  -0.016567  0.005831  0.018504  0.14622  0.004459  3.980911  0.004
C  C192  1  0.22926922  0.03710749  0.35051385  1  -0.032748  -0.000631  -0.080969  -0.176367  -0.000996  3.939477  -0.001
C  C193  1  0.96289247  0.77073215  0.14948552  1  -0.032945  -0.000631  -0.080946  -0.176406  -0.000997  3.939419  -0.001
C  C194  1  0.77073322  0.96289386  0.64948485  1  -0.032921  -0.000631  -0.080912  -0.176217  -0.000997  3.939302  -0.001
C  C195  1  0.03710672  0.22926624  0.85051364  1  -0.033013  -0.00063  -0.080891  -0.176197  -0.000997  3.939336  -0.001
C  C196  1  0.24667318  0.93375930  0.37795229  1  0.458169  0.006871  0.0506  0.102488  0.005291  3.938013  0.004
C  C197  1  0.06624267  0.75332870  0.12204622  1  0.458575  0.006871  0.050605  0.102465  0.005292  3.93797  0.004
C  C198  1  0.75333008  0.06624025  0.62204609  1  0.458458  0.006873  0.050583  0.102402  0.005292  3.93811  0.004
C  C199  1  0.93375652  0.24666968  0.87795295  1  0.4585  0.006871  0.050589  0.102468  0.005291  3.938006  0.004
C  C200  1  0.88925108  0.16871257  0.01640952  1  0.403258  0.006944  0.044246  0.097573  0.005476  3.945569  0.004
C  C201  1  0.83128565  0.11075228  0.48359038  1  0.403266  0.00694  0.044241  0.097485  0.005472  3.945652  0.004
C  C202  1  0.11074973  0.83128612  0.98358949  1  0.403244  0.006942  0.04426  0.097481  0.005474  3.945679  0.004
C  C203  1  0.16871271  0.88924789  0.51641295  1  0.403038  0.00695  0.044264  0.097564  0.005481  3.945577  0.004
C  C204  1  0.96804097  0.18719412  0.04163588  1  0.012077  -5.8e-05  -0.087505  -0.180068  -0.000442  3.926504  0.0
C  C205  1  0.81280431  0.03196231  0.45836442  1  0.012241  -5.8e-05  -0.087448  -0.179958  -0.000441  3.926494  0.0
C  C206  1  0.03195984  0.81280691  0.95836296  1  0.012233  -5.8e-05  -0.08747  -0.17997  -0.000442  3.926529  0.0
C  C207  1  0.18719405  0.96803787  0.54163698  1  0.012257  -5.9e-05  -0.087509  -0.180014  -0.000443  3.926543  0.0
C  C208  1  0.96000708  0.29383778  0.05018149  1  -0.048083  0.006142  0.015317  0.14327  0.004694  3.976558  0.004
C  C209  1  0.70615948  0.03999457  0.44981860  1  -0.048313  0.006139  0.01524  0.143181  0.004692  3.976606  0.004
C  C210  1  0.03999456  0.70615912  0.94981683  1  -0.048185  0.006141  0.015272  0.14316  0.004694  3.976667  0.004
C  C211  1  0.29383970  0.96000537  0.55018199  1  -0.048128  0.006148  0.015323  0.143215  0.004699  3.976568  0.004
C  C212  1  0.87106323  0.37764232  0.03251812  1  -0.073365  -0.000269  -0.087803  -0.190101  -0.000624  3.949342  0.0
C  C213  1  0.62235664  0.12893867  0.46748253  1  -0.073224  -0.000268  -0.087737  -0.190056  -0.000623  3.949264  0.0
C  C214  1  0.12893758  0.62235872  0.96747994  1  -0.073259  -0.000269  -0.087855  -0.190167  -0.000624  3.949499  0.0
C  C215  1  0.37764173  0.87106150  0.53252003  1  -0.073287  -0.000271  -0.087848  -0.190135  -0.000626  3.949267  0.0
C  C216  1  0.79708364  0.35227059  0.00641317  1  0.472199  0.006749  0.043045  0.091267  0.00512  3.97003  0.004
C  C217  1  0.64772860  0.20291882  0.49358741  1  0.472112  0.006746  0.043057  0.091286  0.005117  3.969949  0.004
C  C218  1  0.20291718  0.64772732  0.99358552  1  0.472019  0.006749  0.043087  0.091311  0.00512  3.969996  0.004
C  C219  1  0.35227140  0.79707853  0.50641601  1  0.471699  0.006757  0.043105  0.091299  0.005126  3.969953  0.004
C  C220  1  0.23879561  0.29758119  0.07380114  1  0.010446  -2.1e-05  -0.01527  -0.066872  -9.1e-05  3.945825  0.0
C  C221  1  0.70241887  0.76120576  0.42619814  1  0.010475  -2.1e-05  -0.015286  -0.066894  -9.1e-05  3.945769  0.0
C  C222  1  0.76120521  0.70241907  0.92619776  1  0.010473  -2.1e-05  -0.015272  -0.06676  -9.1e-05  3.945806  0.0
C  C223  1  0.29758194  0.23879450  0.57380076  1  0.010448  -2.1e-05  -0.015257  -0.066789  -9.1e-05  3.945729  0.0
C  C224  1  0.22597436  0.30069071  0.12846573  1  -0.00773  0.000512  -0.004193  0.092327  0.000374  3.926043  0.0
C  C225  1  0.69930988  0.77402716  0.37153388  1  -0.007744  0.000512  -0.00417  0.092387  0.000374  3.925974  0.0
C  C226  1  0.77402564  0.69930900  0.87153366  1  -0.007761  0.000512  -0.00422  0.092255  0.000374  3.926095  0.0
C  C227  1  0.30068930  0.22597357  0.62846549  1  -0.007721  0.000512  -0.004171  0.092289  0.000374  3.926037  0.0
C  C228  1  0.32263541  0.28753113  0.15741090  1  -0.042641  0.000578  -0.242863  -0.411951  0.000591  3.971022  0.0
C  C229  1  0.71246452  0.67736795  0.34258897  1  -0.042456  0.000578  -0.242963  -0.412207  0.000591  3.971091  0.0
C  C230  1  0.67736623  0.71246811  0.84258840  1  -0.042523  0.000578  -0.242897  -0.412112  0.000591  3.971092  0.0
C  C231  1  0.28753059  0.32263239  0.65741073  1  -0.04272  0.000578  -0.242844  -0.411965  0.000591  3.971009  0.0
C  C232  1  0.12173632  0.31100681  0.15659211  1  -0.024253  6.2e-05  -0.014585  -0.040721  1.1e-05  3.959704  0.0
C  C233  1  0.68899267  0.87826549  0.34340713  1  -0.024263  6.2e-05  -0.014615  -0.040749  1.1e-05  3.959686  0.0
C  C234  1  0.87826450  0.68899032  0.84340741  1  -0.024234  6.2e-05  -0.014628  -0.04071  1.1e-05  3.959707  0.0
C  C235  1  0.31100896  0.12173375  0.65659217  1  -0.024333  6.2e-05  -0.014594  -0.040653  1.1e-05  3.959583  0.0
C  C236  1  0.11112516  0.30555651  0.21499353  1  0.011161  8.1e-05  -0.014481  -0.040826  3.2e-05  3.968476  0.0
C  C237  1  0.69444558  0.88887431  0.28500608  1  0.011132  8.1e-05  -0.014377  -0.0406  3.2e-05  3.968138  0.0
C  C238  1  0.88887321  0.69444289  0.78500677  1  0.011167  8.1e-05  -0.014425  -0.040702  3.2e-05  3.968323  0.0
C  C239  1  0.30555687  0.11112547  0.71499312  1  0.010891  8.1e-05  -0.014409  -0.040702  3.2e-05  3.968202  0.0
C  C240  1  0.03195213  0.31601560  0.13084523  1  -0.021591  0.000468  -0.010449  0.07722  0.000362  3.966432  0.0
C  C241  1  0.68398292  0.96804988  0.36915404  1  -0.021596  0.000468  -0.010456  0.07716  0.000362  3.966445  0.0
C  C242  1  0.96804869  0.68398153  0.86915352  1  -0.021645  0.000468  -0.010449  0.07708  0.000362  3.966461  0.0
C  C243  1  0.31601871  0.03194858  0.63084532  1  -0.021513  0.000469  -0.010447  0.077118  0.000362  3.966426  0.0
C  C244  1  0.92160070  0.32188418  0.16099585  1  -0.056575  5.9e-05  -0.241056  -0.39952  7e-05  3.98265  0.0
C  C245  1  0.67811614  0.07840044  0.33900326  1  -0.056555  5.9e-05  -0.241088  -0.399593  7e-05  3.982678  0.0
C  C246  1  0.07839930  0.67811553  0.83900277  1  -0.056352  5.9e-05  -0.241098  -0.399521  7e-05  3.982644  0.0
C  C247  1  0.32188549  0.92159801  0.66099649  1  -0.056606  5.9e-05  -0.24105  -0.399514  7e-05  3.982556  0.0
C  C248  1  0.04752460  0.30989884  0.07640762  1  -0.005714  8.5e-05  -0.01974  -0.078015  3.9e-05  3.97135  0.0
C  C249  1  0.69010079  0.95247735  0.42359197  1  -0.005691  8.5e-05  -0.019764  -0.078039  3.9e-05  3.97136  0.0
C  C250  1  0.95247703  0.69010040  0.92359130  1  -0.005806  8.5e-05  -0.019699  -0.077816  3.9e-05  3.971227  0.0
C  C251  1  0.30990003  0.04752290  0.57640809  1  -0.005713  8.5e-05  -0.01977  -0.077994  3.9e-05  3.971384  0.0
C  C252  1  0.14958086  0.30321364  0.04727860  1  -0.03497  0.001232  -0.005835  0.094067  0.000958  3.956447  0.001
C  C253  1  0.69678816  0.85041960  0.45272097  1  -0.034957  0.001232  -0.00579  0.094139  0.000957  3.956382  0.001
C  C254  1  0.85041995  0.69678818  0.95272019  1  -0.034846  0.001232  -0.005825  0.09397  0.000958  3.956474  0.001
C  C255  1  0.30321184  0.14958010  0.54727880  1  -0.034984  0.001233  -0.005814  0.094052  0.000958  3.956425  0.001
C  C256  1  0.16271901  0.29891454  0.98881493  1  -0.046604  0.000982  -0.247319  -0.423795  0.000884  3.98759  0.001
C  C257  1  0.70108486  0.83728249  0.51118429  1  -0.046614  0.000982  -0.24729  -0.423721  0.000884  3.987757  0.001
C  C258  1  0.83728262  0.70108782  0.01118414  1  -0.046558  0.000982  -0.247223  -0.423539  0.000884  3.987635  0.001
C  C259  1  0.29891187  0.16271737  0.48881572  1  -0.046557  0.000982  -0.24721  -0.423514  0.000884  3.98758  0.001
C  C260  1  0.10507970  0.38930490  0.29351589  1  -0.034187  6.9e-05  -0.018288  -0.077432  3.2e-05  3.969046  0.0
C  C261  1  0.61069671  0.89492110  0.20648285  1  -0.034156  6.9e-05  -0.018242  -0.07738  3.2e-05  3.968989  0.0
C  C262  1  0.89491947  0.61069661  0.70648458  1  -0.034012  6.9e-05  -0.018232  -0.077441  3.2e-05  3.969093  0.0
C  C263  1  0.38930492  0.10508049  0.79351627  1  -0.03423  6.9e-05  -0.018331  -0.077623  3.2e-05  3.969135  0.0
C  C264  1  0.10623413  0.29040401  0.32502373  1  -0.016919  0.000632  -0.008009  0.089707  0.000481  3.973818  0.0
C  C265  1  0.70959750  0.89376875  0.17497644  1  -0.016854  0.000632  -0.008074  0.089574  0.000481  3.973805  0.0
C  C266  1  0.89376669  0.70959468  0.67497799  1  -0.016785  0.000632  -0.008055  0.08963  0.000481  3.973919  0.0
C  C267  1  0.29040412  0.10623440  0.82502333  1  -0.016881  0.000632  -0.007993  0.08976  0.000481  3.973734  0.0
C  C268  1  0.10264440  0.28054348  0.38387881  1  -0.098452  0.000398  -0.245868  -0.41465  0.00035  3.979404  0.0
C  C269  1  0.71945922  0.89736104  0.11611993  1  -0.098501  0.000399  -0.245858  -0.414644  0.00035  3.979297  0.0
C  C270  1  0.89735722  0.71945576  0.61612242  1  -0.098635  0.000399  -0.245856  -0.414656  0.00035  3.979325  0.0
C  C271  1  0.28054240  0.10264367  0.88387858  1  -0.098497  0.000399  -0.245846  -0.414626  0.00035  3.97941  0.0
C  C272  1  0.10448105  0.39847758  0.23881151  1  -0.038022  0.000467  -0.007164  0.089099  0.000354  3.955738  0.0
C  C273  1  0.60152266  0.89551671  0.26118834  1  -0.038059  0.000467  -0.007245  0.088986  0.000354  3.955733  0.0
C  C274  1  0.89551406  0.60152119  0.76118986  1  -0.038108  0.000467  -0.007192  0.08911  0.000354  3.955619  0.0
C  C275  1  0.39847897  0.10448331  0.73881129  1  -0.03775  0.000467  -0.007184  0.089145  0.000354  3.955682  0.0
C  C276  1  0.09744233  0.50565370  0.20551573  1  -0.065049  0.00038  -0.244263  -0.414531  0.000302  3.981719  0.0
C  C277  1  0.49434711  0.90255778  0.29448463  1  -0.06517  0.00038  -0.244294  -0.414564  0.000302  3.981645  0.0
C  C278  1  0.90255604  0.49434491  0.79448502  1  -0.064982  0.00038  -0.244281  -0.414592  0.000302  3.981749  0.0
C  C279  1  0.50565288  0.09744349  0.70551464  1  -0.064685  0.00038  -0.244273  -0.414567  0.000302  3.981791  0.0
C  C280  1  0.11283520  0.19879958  0.30027720  1  -0.032236  3e-05  -0.021515  -0.083879  4e-06  3.986921  0.0
C  C281  1  0.80120359  0.88716528  0.19972268  1  -0.032419  3e-05  -0.021445  -0.083715  4e-06  3.986773  0.0
C  C282  1  0.88716561  0.80120068  0.69972402  1  -0.032692  3e-05  -0.021512  -0.083818  4e-06  3.986895  0.0
C  C283  1  0.19879968  0.11283427  0.80027571  1  -0.032645  3e-05  -0.021531  -0.08391  4e-06  3.986972  0.0
C  C284  1  0.11666409  0.20468636  0.24543271  1  -0.019866  0.000379  -0.010046  0.078382  0.000305  3.958457  0.0
C  C285  1  0.79531728  0.88333647  0.25456751  1  -0.019863  0.000379  -0.010098  0.078237  0.000305  3.958418  0.0
C  C286  1  0.88333345  0.79531484  0.75456829  1  -0.019376  0.000379  -0.010029  0.078374  0.000305  3.958425  0.0
C  C287  1  0.20468680  0.11666363  0.74543193  1  -0.019429  0.000379  -0.010058  0.078362  0.000305  3.958452  0.0
C  C288  1  0.13115830  0.10297250  0.22007914  1  -0.054487  8.2e-05  -0.243383  -0.407761  5.6e-05  3.978527  0.0
C  C289  1  0.89703259  0.86884149  0.27992068  1  -0.054482  8.2e-05  -0.243414  -0.407795  5.6e-05  3.978598  0.0
C  C290  1  0.86883761  0.89702994  0.77992189  1  -0.05499  8.2e-05  -0.243434  -0.407861  5.6e-05  3.978533  0.0
C  C291  1  0.10297148  0.13115938  0.72007793  1  -0.054905  8.2e-05  -0.243373  -0.40775  5.6e-05  3.978502  0.0
N  N292  1  0.55528259  0.23818240  0.98522735  1  -1.272542  0.048183  -0.323069  -0.227096  0.031087  3.538434  0.014
N  N293  1  0.76181626  0.44471904  0.51477475  1  -1.272845  0.048174  -0.323179  -0.227198  0.031088  3.538624  0.014
N  N294  1  0.44471578  0.76181856  0.01477129  1  -1.271892  0.048171  -0.323142  -0.227157  0.031086  3.538439  0.014
N  N295  1  0.23818046  0.55528394  0.48522887  1  -1.272605  0.048134  -0.323071  -0.227102  0.031085  3.538458  0.014
N  N296  1  0.16027690  0.63429563  0.37197103  1  -1.228752  0.047462  -0.312712  -0.230902  0.032913  3.471044  0.019
N  N297  1  0.36570231  0.83971996  0.12803015  1  -1.229005  0.047484  -0.312626  -0.230749  0.032917  3.471173  0.019
N  N298  1  0.83971739  0.36570259  0.62803044  1  -1.22926  0.047496  -0.312612  -0.230727  0.032917  3.471167  0.019
N  N299  1  0.63429606  0.16027944  0.87197054  1  -1.228925  0.047483  -0.312602  -0.230744  0.032917  3.471111  0.019
N  N300  1  0.16898148  0.88211930  0.38833706  1  -1.238161  0.046895  -0.317147  -0.221262  0.03088  3.511047  0.016
N  N301  1  0.11787899  0.83101939  0.11166372  1  -1.238412  0.046911  -0.317229  -0.221325  0.030884  3.511195  0.016
N  N302  1  0.83102259  0.11788002  0.61166398  1  -1.238198  0.046908  -0.317208  -0.221361  0.030884  3.511202  0.016
N  N303  1  0.88212183  0.16897696  0.88833548  1  -1.23848  0.04691  -0.317232  -0.221422  0.030884  3.511223  0.016
N  N304  1  0.80520201  0.24977181  0.99817068  1  -1.236477  0.047744  -0.315319  -0.235249  0.033319  3.484944  0.019
N  N305  1  0.75022808  0.19480123  0.50182936  1  -1.236499  0.047731  -0.315323  -0.235226  0.033316  3.484897  0.019
N  N306  1  0.19479881  0.75022532  0.00182806  1  -1.236398  0.047739  -0.315318  -0.235174  0.033318  3.48495  0.019
N  N307  1  0.24977354  0.80519722  0.49817463  1  -1.236451  0.047761  -0.31535  -0.235228  0.033324  3.485081  0.019
Cl  Cl308  1  0.67359515  0.40086773  0.89695377  1  -0.743519  0.092176  -0.328593  -0.568022  0.0712  1.105438  0.042
Cl  Cl309  1  0.59912867  0.32640715  0.60304728  1  -0.743524  0.092174  -0.328607  -0.568027  0.071203  1.105432  0.042
Cl  Cl310  1  0.32641057  0.59912799  0.10304626  1  -0.743526  0.092198  -0.328599  -0.568002  0.071217  1.10553  0.042
Cl  Cl311  1  0.40087298  0.67358505  0.39695408  1  -0.743578  0.092195  -0.328621  -0.568031  0.071207  1.105458  0.042
Cl  Cl312  1  0.76347232  0.00976713  0.97521936  1  -0.737952  0.086559  -0.300881  -0.547589  0.067266  1.144972  0.041
Cl  Cl313  1  0.99023813  0.23653023  0.52478425  1  -0.737946  0.086547  -0.300881  -0.547538  0.067254  1.144834  0.041
Cl  Cl314  1  0.23652850  0.99023079  0.02477933  1  -0.737908  0.086521  -0.300888  -0.547591  0.067246  1.144835  0.041
Cl  Cl315  1  0.00976593  0.76347299  0.47522189  1  -0.737925  0.086533  -0.300889  -0.547592  0.067251  1.144846  0.041
