# generated using pymatgen
data_NiH14C14(N4O)2
_symmetry_space_group_name_H-M   'P 1'
_cell_length_a   7.87096712
_cell_length_b   8.24766076
_cell_length_c   11.92790700
_cell_angle_alpha   89.99815486
_cell_angle_beta   89.36889958
_cell_angle_gamma   89.99964228
_symmetry_Int_Tables_number   1
_chemical_formula_structural   NiH14C14(N4O)2
_chemical_formula_sum   'Ni2 H28 C28 N16 O4'
_cell_volume   774.27776134
_cell_formula_units_Z   2
loop_
 _symmetry_equiv_pos_site_id
 _symmetry_equiv_pos_as_xyz
  1  'x, y, z'
loop_
 _atom_site_type_symbol
 _atom_site_label
 _atom_site_symmetry_multiplicity
 _atom_site_fract_x
 _atom_site_fract_y
 _atom_site_fract_z
 _atom_site_occupancy
 _atom_site_hle17_bader_spin_density
 _atom_site_hle17_ddec_charge
 _atom_site_hle17_ddec_spin_density
 _atom_site_hle17_ddec_sum_bond_order
 _atom_site_hle17_magmom
 _atom_site_hse06_10hf_bader_spin_density
 _atom_site_hse06_10hf_ddec_charge
 _atom_site_hse06_10hf_ddec_spin_density
 _atom_site_hse06_10hf_ddec_sum_bond_order
 _atom_site_hse06_10hf_magmom
 _atom_site_hse06_bader_spin_density
 _atom_site_hse06_ddec_charge
 _atom_site_hse06_ddec_spin_density
 _atom_site_hse06_ddec_sum_bond_order
 _atom_site_hse06_magmom
 _atom_site_pbe_bader_spin_density
 _atom_site_pbe_cm5_charge
 _atom_site_pbe_ddec_charge
 _atom_site_pbe_ddec_spin_density
 _atom_site_pbe_ddec_sum_bond_order
 _atom_site_pbe_magmom
Ni  Ni0  1  0.99999446  0.50000159  0.99999623  1  0  0.498997  0  2.516707  0  0  0.47425  0  2.995456  0  0  0.537021  0  2.927042  0  0  0.652905  0.448897  0  3.032741  0
Ni  Ni1  1  0.49999810  0.00000388  0.00000387  1  0  0.499045  0  2.516402  0  0  0.47412  0  2.995195  0  0  0.53698  0  2.926765  0  0  0.652876  0.448818  0  3.032617  0
H  H2  1  0.00902941  0.95747120  0.82157638  1  0  0.105021  0  0.983204  0  0  0.114221  0  1.047266  0  0  0.115981  0  1.04866  0  0  0.111892  0.112753  0  1.046603  0
H  H3  1  0.49096239  0.45746836  0.17841917  1  0  0.105061  0  0.98334  0  0  0.114315  0  1.047344  0  0  0.116082  0  1.048737  0  0  0.111902  0.112845  0  1.046681  0
H  H4  1  0.99095239  0.04252913  0.17842836  1  0  0.104885  0  0.983202  0  0  0.11412  0  1.04723  0  0  0.115883  0  1.048627  0  0  0.111823  0.112647  0  1.046564  0
H  H5  1  0.50904404  0.54253803  0.82157151  1  0  0.104997  0  0.983483  0  0  0.11423  0  1.047513  0  0  0.115994  0  1.04891  0  0  0.111912  0.112764  0  1.046848  0
H  H6  1  0.08924492  0.54063971  0.76063527  1  0  0.088432  0  0.950508  0  0  0.098403  0  1.012196  0  0  0.099952  0  1.010661  0  0  0.124028  0.096911  0  1.013744  0
H  H7  1  0.41077027  0.04063195  0.23936541  1  0  0.088368  0  0.950633  0  0  0.098373  0  1.012282  0  0  0.099922  0  1.010748  0  0  0.124067  0.096883  0  1.013838  0
H  H8  1  0.91076408  0.45935092  0.23935458  1  0  0.088384  0  0.950625  0  0  0.098433  0  1.012238  0  0  0.099991  0  1.010699  0  0  0.12402  0.096938  0  1.013782  0
H  H9  1  0.58922671  0.95937202  0.76064112  1  0  0.088419  0  0.950629  0  0  0.098387  0  1.012327  0  0  0.099936  0  1.010795  0  0  0.124071  0.096897  0  1.013883  0
H  H10  1  0.12563352  0.77120949  0.55273933  1  0  0.151193  0  0.9562  0  0  0.165847  0  1.01963  0  0  0.169447  0  1.016938  0  0  0.098577  0.163314  0  1.021536  0
H  H11  1  0.37436261  0.27120747  0.44727031  1  0  0.151229  0  0.956346  0  0  0.165857  0  1.019792  0  0  0.169456  0  1.017104  0  0  0.098558  0.163319  0  1.021699  0
H  H12  1  0.87434435  0.22876538  0.44726873  1  0  0.151146  0  0.956458  0  0  0.165866  0  1.019822  0  0  0.16947  0  1.017126  0  0  0.098605  0.16333  0  1.021731  0
H  H13  1  0.62565776  0.72878680  0.55272131  1  0  0.151214  0  0.956339  0  0  0.165846  0  1.019799  0  0  0.169452  0  1.017101  0  0  0.0986  0.163313  0  1.021707  0
H  H14  1  0.95881906  0.82675829  0.65023315  1  0  0.140473  0  0.949247  0  0  0.15882  0  1.011536  0  0  0.160732  0  1.011321  0  0  0.098927  0.157333  0  1.011739  0
H  H15  1  0.54117641  0.32674277  0.34976939  1  0  0.140516  0  0.949198  0  0  0.158862  0  1.011474  0  0  0.160775  0  1.011264  0  0  0.09896  0.157377  0  1.011673  0
H  H16  1  0.04116254  0.17322870  0.34977746  1  0  0.140403  0  0.949314  0  0  0.158772  0  1.011611  0  0  0.160684  0  1.011401  0  0  0.098907  0.157287  0  1.011812  0
H  H17  1  0.45883626  0.67325392  0.65022469  1  0  0.140495  0  0.949176  0  0  0.158832  0  1.011476  0  0  0.16074  0  1.011269  0  0  0.098938  0.157349  0  1.011676  0
H  H18  1  0.16824592  0.79718343  0.69860583  1  0  0.130089  0  0.983667  0  0  0.14721  0  1.053748  0  0  0.14891  0  1.053729  0  0  0.096397  0.145829  0  1.05376  0
H  H19  1  0.33173237  0.29718888  0.30140635  1  0  0.130059  0  0.983583  0  0  0.147214  0  1.053635  0  0  0.148913  0  1.053616  0  0  0.096398  0.145832  0  1.05365  0
H  H20  1  0.83173827  0.20280236  0.30140312  1  0  0.13003  0  0.983689  0  0  0.14717  0  1.053767  0  0  0.148871  0  1.053747  0  0  0.096413  0.145789  0  1.05377  0
H  H21  1  0.66828272  0.70281509  0.69859110  1  0  0.13003  0  0.983683  0  0  0.14718  0  1.053727  0  0  0.148878  0  1.053709  0  0  0.096394  0.145798  0  1.05374  0
H  H22  1  0.94417147  0.15973398  0.96862411  1  0  0.087364  0  0.954463  0  0  0.095098  0  1.019424  0  0  0.096975  0  1.017449  0  0  0.123538  0.093214  0  1.021542  0
H  H23  1  0.55580759  0.65972813  0.03136838  1  0  0.087329  0  0.954415  0  0  0.095074  0  1.019342  0  0  0.096953  0  1.017403  0  0  0.12356  0.093171  0  1.021485  0
H  H24  1  0.05581706  0.84027848  0.03136978  1  0  0.087413  0  0.954469  0  0  0.095147  0  1.01942  0  0  0.09701  0  1.017479  0  0  0.12359  0.093256  0  1.021546  0
H  H25  1  0.44418714  0.34028796  0.96862975  1  0  0.087321  0  0.95442  0  0  0.095041  0  1.019438  0  0  0.096917  0  1.017462  0  0  0.123563  0.093117  0  1.021636  0
H  H26  1  0.15727126  0.35247623  0.60320684  1  0  0.124984  0  0.950984  0  0  0.128099  0  1.019727  0  0  0.132489  0  1.016748  0  0  0.11378  0.124922  0  1.022015  0
H  H27  1  0.34276189  0.85247409  0.39680098  1  0  0.125126  0  0.950891  0  0  0.128312  0  1.019512  0  0  0.132691  0  1.01654  0  0  0.113881  0.125129  0  1.021812  0
H  H28  1  0.84273630  0.64750834  0.39678804  1  0  0.125003  0  0.951042  0  0  0.128144  0  1.019744  0  0  0.132508  0  1.016788  0  0  0.11381  0.124962  0  1.022039  0
H  H29  1  0.65724782  0.14752260  0.60320481  1  0  0.125053  0  0.950936  0  0  0.128203  0  1.019622  0  0  0.132581  0  1.01665  0  0  0.113844  0.125022  0  1.021918  0
C  C30  1  0.02816994  0.08546658  0.80392581  1  0  -0.107523  0  3.690478  0  0  -0.129939  0  3.938412  0  0  -0.136143  0  3.958813  0  0  -0.071496  -0.12619  0  3.925296  0
C  C31  1  0.47183770  0.58545232  0.19607449  1  0  -0.107516  0  3.690563  0  0  -0.130026  0  3.938502  0  0  -0.136236  0  3.958917  0  0  -0.071537  -0.126274  0  3.925389  0
C  C32  1  0.97183091  0.91453132  0.19607908  1  0  -0.107329  0  3.690341  0  0  -0.129771  0  3.938294  0  0  -0.135975  0  3.958697  0  0  -0.071413  -0.12602  0  3.925163  0
C  C33  1  0.52816478  0.41455529  0.80392035  1  0  -0.107328  0  3.690451  0  0  -0.129819  0  3.938448  0  0  -0.136029  0  3.958858  0  0  -0.071519  -0.12607  0  3.925342  0
C  C34  1  0.13799161  0.01709750  0.60973886  1  0  0.500667  0  3.647596  0  0  0.489719  0  3.909465  0  0  0.510231  0  3.91153  0  0  0.172817  0.474891  0  3.908992  0
C  C35  1  0.36203088  0.51710021  0.39027004  1  0  0.500278  0  3.648002  0  0  0.489504  0  3.909608  0  0  0.51002  0  3.911664  0  0  0.172576  0.474647  0  3.909201  0
C  C36  1  0.86201300  0.98289798  0.39026773  1  0  0.500068  0  3.648064  0  0  0.489372  0  3.909604  0  0  0.509894  0  3.911664  0  0  0.172702  0.474562  0  3.909112  0
C  C37  1  0.63797652  0.48290134  0.60972903  1  0  0.500243  0  3.647993  0  0  0.489541  0  3.909519  0  0  0.510059  0  3.91158  0  0  0.172653  0.474707  0  3.909069  0
C  C38  1  0.07534403  0.41031053  0.77085231  1  0  0.115733  0  3.644768  0  0  0.086917  0  3.893331  0  0  0.094967  0  3.91219  0  0  0.049254  0.081664  0  3.881638  0
C  C39  1  0.42467309  0.91031138  0.22914382  1  0  0.115908  0  3.644439  0  0  0.087007  0  3.893003  0  0  0.095063  0  3.911848  0  0  0.049254  0.081749  0  3.881329  0
C  C40  1  0.92466480  0.58968010  0.22914258  1  0  0.115746  0  3.644596  0  0  0.086823  0  3.89319  0  0  0.094868  0  3.912045  0  0  0.049274  0.081573  0  3.88148  0
C  C41  1  0.57532297  0.08969017  0.77085264  1  0  0.115875  0  3.64439  0  0  0.086956  0  3.892949  0  0  0.095007  0  3.9118  0  0  0.049249  0.081699  0  3.881279  0
C  C42  1  0.09065847  0.13697370  0.69992677  1  0  0.002418  0  3.696792  0  0  0.018164  0  3.927486  0  0  0.019076  0  3.947488  0  0  0.002937  0.017632  0  3.914208  0
C  C43  1  0.40935148  0.63698048  0.30008227  1  0  0.002521  0  3.696619  0  0  0.018255  0  3.927234  0  0  0.019165  0  3.947234  0  0  0.002951  0.017723  0  3.913977  0
C  C44  1  0.90933352  0.86302421  0.30007721  1  0  0.002534  0  3.697097  0  0  0.018195  0  3.927732  0  0  0.019112  0  3.947721  0  0  0.002951  0.017655  0  3.914448  0
C  C45  1  0.59066237  0.36301621  0.69991434  1  0  0.002437  0  3.696941  0  0  0.018094  0  3.927599  0  0  0.019006  0  3.947595  0  0  0.00298  0.017563  0  3.91433  0
C  C46  1  0.09333176  0.84230235  0.62741566  1  0  -0.446491  0  3.673991  0  0  -0.527704  0  3.908855  0  0  -0.533565  0  3.912473  0  0  -0.254194  -0.523023  0  3.906499  0
C  C47  1  0.40666450  0.34230281  0.37259298  1  0  -0.446495  0  3.674022  0  0  -0.527772  0  3.908796  0  0  -0.533638  0  3.912421  0  0  -0.254211  -0.523075  0  3.906439  0
C  C48  1  0.90665250  0.15769191  0.37259161  1  0  -0.446073  0  3.674368  0  0  -0.527473  0  3.909096  0  0  -0.533333  0  3.912712  0  0  -0.254157  -0.522794  0  3.906716  0
C  C49  1  0.59334934  0.65770359  0.62740363  1  0  -0.446366  0  3.674135  0  0  -0.527647  0  3.90884  0  0  -0.533509  0  3.912464  0  0  -0.254204  -0.522955  0  3.906472  0
C  C50  1  0.99397143  0.19833404  0.88770656  1  0  0.127834  0  3.654395  0  0  0.095915  0  3.908067  0  0  0.106792  0  3.922906  0  0  0.049357  0.088549  0  3.89958  0
C  C51  1  0.50601742  0.69832814  0.11229842  1  0  0.127791  0  3.655047  0  0  0.095846  0  3.908751  0  0  0.106687  0  3.923585  0  0  0.04937  0.088495  0  3.900277  0
C  C52  1  0.00601571  0.80166751  0.11229067  1  0  0.127709  0  3.654494  0  0  0.095772  0  3.908221  0  0  0.106646  0  3.923062  0  0  0.049248  0.08841  0  3.899722  0
C  C53  1  0.49398113  0.30168067  0.88769974  1  0  0.127863  0  3.654883  0  0  0.095884  0  3.908559  0  0  0.106756  0  3.923416  0  0  0.049406  0.088532  0  3.900091  0
C  C54  1  0.11161484  0.30444439  0.68331517  1  0  -0.108942  0  3.672806  0  0  -0.131992  0  3.924807  0  0  -0.138337  0  3.944575  0  0  -0.068518  -0.127653  0  3.911393  0
C  C55  1  0.38840571  0.80444718  0.31668793  1  0  -0.109181  0  3.672623  0  0  -0.132278  0  3.924565  0  0  -0.138613  0  3.944332  0  0  -0.068602  -0.127931  0  3.911167  0
C  C56  1  0.88837485  0.69554866  0.31668208  1  0  -0.10892  0  3.672597  0  0  -0.131978  0  3.924608  0  0  -0.138293  0  3.944383  0  0  -0.068532  -0.127638  0  3.911195  0
C  C57  1  0.61160539  0.19555922  0.68331452  1  0  -0.109056  0  3.672924  0  0  -0.132105  0  3.924905  0  0  -0.138431  0  3.944671  0  0  -0.06859  -0.127762  0  3.911506  0
N  N58  1  0.73238169  0.31825080  0.08915493  1  0  0.344374  0  4.178671  0  0  0.389176  0  4.490554  0  0  0.406891  0  4.522747  0  0  0.076398  0.377931  0  4.468772  0
N  N59  1  0.76759372  0.81824544  0.91083929  1  0  0.344265  0  4.17838  0  0  0.389079  0  4.490248  0  0  0.406797  0  4.522437  0  0  0.076361  0.37784  0  4.46854  0
N  N60  1  0.26762085  0.68176408  0.91083823  1  0  0.344473  0  4.178462  0  0  0.389296  0  4.490323  0  0  0.407019  0  4.522508  0  0  0.076492  0.378052  0  4.468549  0
N  N61  1  0.23239821  0.18177308  0.08916637  1  0  0.344221  0  4.1786  0  0  0.389026  0  4.4905  0  0  0.406743  0  4.522693  0  0  0.076381  0.377785  0  4.468786  0
N  N62  1  0.02037217  0.35832691  0.87284337  1  0  -0.217739  0  3.365735  0  0  -0.154776  0  3.640041  0  0  -0.180373  0  3.657778  0  0  -0.323609  -0.141985  0  3.630302  0
N  N63  1  0.47962973  0.85830915  0.12714980  1  0  -0.21775  0  3.365943  0  0  -0.154675  0  3.640132  0  0  -0.18028  0  3.65789  0  0  -0.323663  -0.141886  0  3.630431  0
N  N64  1  0.97962776  0.64167342  0.12715145  1  0  -0.217681  0  3.365758  0  0  -0.154698  0  3.640081  0  0  -0.180294  0  3.657823  0  0  -0.323604  -0.141899  0  3.630315  0
N  N65  1  0.52036752  0.14170330  0.87284919  1  0  -0.217889  0  3.365769  0  0  -0.15472  0  3.639898  0  0  -0.180327  0  3.657656  0  0  -0.323679  -0.141929  0  3.630199  0
N  N66  1  0.77716535  0.42425026  0.02637097  1  0  -0.439444  0  2.83718  0  0  -0.465503  0  3.193271  0  0  -0.495993  0  3.203055  0  0  -0.292413  -0.447086  0  3.185951  0
N  N67  1  0.72284537  0.92425155  0.97363503  1  0  -0.439445  0  2.836692  0  0  -0.465504  0  3.192786  0  0  -0.495998  0  3.202557  0  0  -0.292391  -0.447088  0  3.185552  0
N  N68  1  0.22283071  0.57575128  0.97362549  1  0  -0.439544  0  2.836739  0  0  -0.46562  0  3.192846  0  0  -0.496099  0  3.20257  0  0  -0.292448  -0.447191  0  3.185524  0
N  N69  1  0.27715058  0.07576212  0.02636479  1  0  -0.439439  0  2.836624  0  0  -0.465488  0  3.192709  0  0  -0.496003  0  3.202504  0  0  -0.292351  -0.447062  0  3.185463  0
N  N70  1  0.67091169  0.21717903  0.14593739  1  0  -0.377016  0  2.438701  0  0  -0.391725  0  2.700461  0  0  -0.405394  0  2.709463  0  0  -0.183404  -0.382578  0  2.694085  0
N  N71  1  0.82909253  0.71718111  0.85406471  1  0  -0.376904  0  2.438717  0  0  -0.391639  0  2.700511  0  0  -0.405293  0  2.709477  0  0  -0.183356  -0.382501  0  2.694141  0
N  N72  1  0.32908547  0.78282979  0.85406411  1  0  -0.376983  0  2.438908  0  0  -0.39172  0  2.700675  0  0  -0.405389  0  2.709678  0  0  -0.183423  -0.382584  0  2.694301  0
N  N73  1  0.17089955  0.28282044  0.14593675  1  0  -0.376803  0  2.439083  0  0  -0.391529  0  2.700853  0  0  -0.405194  0  2.709851  0  0  -0.183382  -0.382394  0  2.694488  0
O  O74  1  0.21601185  0.06382217  0.52540294  1  0  -0.470965  0  1.908646  0  0  -0.423087  0  2.10466  0  0  -0.441161  0  2.102359  0  0  -0.250737  -0.410895  0  2.106662  0
O  O75  1  0.28402229  0.56383235  0.47460148  1  0  -0.470715  0  1.908829  0  0  -0.422916  0  2.104761  0  0  -0.44099  0  2.102463  0  0  -0.250557  -0.410715  0  2.106781  0
O  O76  1  0.78398389  0.93614664  0.47460274  1  0  -0.470733  0  1.908689  0  0  -0.422906  0  2.104537  0  0  -0.441026  0  2.102283  0  0  -0.250681  -0.410716  0  2.106525  0
O  O77  1  0.71600919  0.43616192  0.52539946  1  0  -0.470769  0  1.908651  0  0  -0.422978  0  2.104537  0  0  -0.441078  0  2.102262  0  0  -0.250675  -0.410782  0  2.106541  0
