# generated using pymatgen
data_ZnH5C14I4NO4
_symmetry_space_group_name_H-M   'P 1'
_cell_length_a   9.58903464
_cell_length_b   11.00957725
_cell_length_c   13.44273957
_cell_angle_alpha   90.89483991
_cell_angle_beta   82.69946188
_cell_angle_gamma   75.13167887
_symmetry_Int_Tables_number   1
_chemical_formula_structural   ZnH5C14I4NO4
_chemical_formula_sum   'Zn2 H10 C28 I8 N2 O8'
_cell_volume   1358.80797313
_cell_formula_units_Z   2
loop_
 _symmetry_equiv_pos_site_id
 _symmetry_equiv_pos_as_xyz
  1  'x, y, z'
loop_
 _atom_site_type_symbol
 _atom_site_label
 _atom_site_symmetry_multiplicity
 _atom_site_fract_x
 _atom_site_fract_y
 _atom_site_fract_z
 _atom_site_occupancy
 _atom_site_pbe_bader_charge
 _atom_site_pbe_bader_spin_density
 _atom_site_pbe_cm5_charge
 _atom_site_pbe_ddec_charge
 _atom_site_pbe_ddec_spin_density
 _atom_site_pbe_ddec_sum_bond_order
 _atom_site_pbe_magmom
Zn  Zn0  1  0.84707250  0.54392712  0.46395094  1  1.305773  0  0.678419  0.876003  0  2.392102  0
Zn  Zn1  1  0.13319081  0.48923697  0.52202193  1  1.299207  0  0.674615  0.872829  0  2.383094  0
H  H2  1  0.16753824  0.84815398  0.50761941  1  0.146592  0  0.106191  0.128968  0  0.999881  0
H  H3  1  0.60787692  0.77003737  0.12297346  1  0.116909  0  0.090246  0.107781  0  1.050086  0
H  H4  1  0.65472424  0.46292854  0.60255523  1  0.152199  0  0.131295  0.112004  0  0.992522  0
H  H5  1  0.00534673  0.67699394  0.85007290  1  0.104009  0  0.107204  0.126617  0  0.987382  0
H  H6  1  0.29506196  0.55154236  0.21838152  1  0.097477  0  0.084735  0.092364  0  1.088355  0
H  H7  1  0.54276237  0.42861697  0.79999229  1  0.068836  0  0.092845  0.0971  0  1.057122  0
H  H8  1  0.88747079  0.12983848  0.53568229  1  0.084646  0  0.104994  0.136753  0  0.998903  0
H  H9  1  0.37853767  0.51171575  0.65843826  1  0.139878  0  0.128289  0.098628  0  0.973513  0
H  H10  1  0.39987523  0.45248380  0.44280374  1  0.444096  0  0.297683  0.283653  0  0.946674  0
H  H11  1  0.67386650  0.52728607  0.75211910  1  0.035822  0  0.098496  0.099527  0  1.050751  0
C  C12  1  0.99062493  0.28394559  0.51810771  1  1.604852  0  0.205519  0.647596  0  4.176187  0
C  C13  1  0.68120189  0.65784734  0.98394308  1  0.003718  0  -0.008246  0.062032  0  3.981711  0
C  C14  1  0.63270233  0.59078679  0.90930676  1  0.029307  0  -0.000169  0.048674  0  3.954311  0
C  C15  1  0.09425608  0.45681619  0.30447694  1  1.626834  0  0.208415  0.599223  0  4.180016  0
C  C16  1  0.81851837  0.68604923  0.96125954  1  -0.23581  0  -0.043935  0.018207  0  3.867313  0
C  C17  1  0.89937341  0.65744378  0.86699730  1  0.049586  0  -0.091886  -0.13834  0  3.987291  0
C  C18  1  0.71245804  0.57005104  0.81279444  1  0.000792  0  -0.087361  -0.140909  0  3.957948  0
C  C19  1  0.08827063  0.92218026  0.47572526  1  0.002615  0  -0.097086  -0.12101  0  4.01558  0
C  C20  1  0.98431863  0.88167506  0.43632293  1  -0.236297  0  -0.055075  -0.075545  0  3.79021  0
C  C21  1  0.10538045  0.04920118  0.48294240  1  -0.298939  0  -0.047746  0.097182  0  3.939862  0
C  C22  1  0.99376329  0.14871092  0.51603028  1  0.092677  0  -0.102467  -0.257749  0  3.887768  0
C  C23  1  0.31011464  0.50606852  0.05957132  1  0.006625  0  -0.004016  0.054972  0  3.933697  0
C  C24  1  0.57607008  0.50562716  0.55196897  1  0.660151  0  0.084946  0.107119  0  3.868799  0
C  C25  1  0.42584109  0.49589294  0.57910757  1  0.679922  0  0.109349  0.187928  0  3.884491  0
C  C26  1  0.97288356  0.74927113  0.45258910  1  1.601894  0  0.202311  0.602372  0  4.196002  0
C  C27  1  0.92027305  0.57569509  0.68565003  1  1.542393  0  0.212622  0.597348  0  4.162053  0
C  C28  1  0.15270707  0.43972394  0.19436712  1  0.020177  0  -0.01828  -0.023269  0  3.957532  0
C  C29  1  0.84262533  0.60312526  0.79091148  1  -0.000551  0  -0.015805  -0.007751  0  3.980909  0
C  C30  1  0.14726949  0.37531048  0.02142926  1  -0.178595  0  -0.055312  -0.023706  0  3.836826  0
C  C31  1  0.09879622  0.37355996  0.12380176  1  -0.180351  0  -0.051086  0.009915  0  3.871357  0
C  C32  1  0.25420900  0.50435503  0.16135955  1  -0.027375  0  -0.097328  -0.152073  0  3.986272  0
C  C33  1  0.26538503  0.42955746  0.98710216  1  0.040812  0  -0.009425  0.02506  0  3.919925  0
C  C34  1  0.41871161  0.57457026  0.03141021  1  0.003791  0  -0.004993  0.008033  0  3.927545  0
C  C35  1  0.50494241  0.54471501  0.93622777  1  0.012574  0  -0.00041  0.059213  0  3.957296  0
C  C36  1  0.47020324  0.45917438  0.86967110  1  -0.022553  0  -0.107761  -0.177405  0  4.031436  0
C  C37  1  0.35568031  0.40569937  0.89095909  1  -0.206057  0  -0.045212  0.027573  0  3.856872  0
C  C38  1  0.45391988  0.66814892  0.09271418  1  -0.266791  0  -0.04259  0.00718  0  3.840625  0
C  C39  1  0.58254588  0.70206174  0.07303032  1  -1.6e-05  0  -0.102388  -0.162213  0  4.002911  0
I  I40  1  0.36168932  0.26568821  0.77837510  1  0.126022  0  0.077903  -0.020826  0  1.575683  0
I  I41  1  0.90583408  0.76820618  0.07336784  1  0.118199  0  0.074248  -0.029447  0  1.513122  0
I  I42  1  0.82734291  0.99156143  0.35508977  1  0.125753  0  0.075914  0.014707  0  1.550319  0
I  I43  1  0.32093982  0.06046891  0.43611060  1  0.120803  0  0.06251  -0.024759  0  1.468724  0
I  I44  1  0.49742645  0.65734013  0.37155989  1  0.313611  0  0.186154  0.072218  0  1.784713  0
I  I45  1  0.02061629  0.31731485  0.92200899  1  0.151675  0  0.089586  0.015239  0  1.764718  0
I  I46  1  0.96191496  0.26112480  0.18105436  1  0.151538  0  0.059545  -0.029364  0  1.631448  0
I  I47  1  0.30334722  0.78962107  0.20591763  1  0.183198  0  0.177516  0.105117  0  1.866232  0
N  N48  1  0.62739163  0.55924388  0.47716997  1  -1.1179  0  -0.345292  -0.242896  0  3.20191  0
N  N49  1  0.34910607  0.46803141  0.51572432  1  -1.196514  0  -0.457151  -0.404056  0  3.321145  0
O  O50  1  0.87642041  0.35408597  0.48974327  1  -1.160954  0  -0.3177  -0.558537  0  2.316602  0
O  O51  1  0.09660715  0.31861635  0.54636189  1  -1.159127  0  -0.31387  -0.539171  0  2.353451  0
O  O52  1  0.95701251  0.50104772  0.32448030  1  -1.138577  0  -0.315364  -0.534512  0  2.368295  0
O  O53  1  0.18556205  0.43355938  0.36637164  1  -1.192421  0  -0.313746  -0.545175  0  2.308487  0
O  O54  1  0.85091480  0.72692157  0.44626591  1  -1.148357  0  -0.315663  -0.522344  0  2.334384  0
O  O55  1  0.08743091  0.67212728  0.47382873  1  -1.171568  0  -0.31772  -0.557847  0  2.363514  0
O  O56  1  0.83909701  0.56863709  0.61891257  1  -1.189216  0  -0.318463  -0.576146  0  2.388686  0
O  O57  1  0.05765790  0.55909465  0.66953560  1  -1.136986  0  -0.318004  -0.534085  0  2.241535  0
