# generated using pymatgen
data_CdH9C15N5O4
_symmetry_space_group_name_H-M   'P 1'
_cell_length_a   10.26685878
_cell_length_b   11.71712770
_cell_length_c   18.39966014
_cell_angle_alpha   90.00001128
_cell_angle_beta   90.88874128
_cell_angle_gamma   89.99993497
_symmetry_Int_Tables_number   1
_chemical_formula_structural   CdH9C15N5O4
_chemical_formula_sum   'Cd4 H36 C60 N20 O16'
_cell_volume   2213.17779294
_cell_formula_units_Z   4
loop_
 _symmetry_equiv_pos_site_id
 _symmetry_equiv_pos_as_xyz
  1  'x, y, z'
loop_
 _atom_site_type_symbol
 _atom_site_label
 _atom_site_symmetry_multiplicity
 _atom_site_fract_x
 _atom_site_fract_y
 _atom_site_fract_z
 _atom_site_occupancy
 _atom_site_pbe_bader_charge
 _atom_site_pbe_bader_spin_density
 _atom_site_pbe_cm5_charge
 _atom_site_pbe_ddec_charge
 _atom_site_pbe_ddec_spin_density
 _atom_site_pbe_ddec_sum_bond_order
 _atom_site_pbe_magmom
Cd  Cd0  1  0.45778079  0.33336739  0.55408309  1  1.264317  0  0.774691  0.814741  0  2.249374  0
Cd  Cd1  1  0.04221835  0.83336733  0.94591760  1  1.264254  0  0.774684  0.814729  0  2.249375  0
Cd  Cd2  1  0.54222102  0.66663075  0.44591653  1  1.264388  0  0.774649  0.814649  0  2.249365  0
Cd  Cd3  1  0.95777859  0.16663167  0.05408307  1  1.264415  0  0.774651  0.814663  0  2.249362  0
H  H4  1  0.45567763  0.16832090  0.04933833  1  0.15187  0  0.115724  0.133375  0  0.982116  0
H  H5  1  0.04432160  0.66832169  0.45066203  1  0.151863  0  0.115727  0.133357  0  0.982127  0
H  H6  1  0.54431737  0.83167981  0.95066177  1  0.151874  0  0.115721  0.133326  0  0.982116  0
H  H7  1  0.95568021  0.33168243  0.54933813  1  0.151861  0  0.115719  0.133346  0  0.982096  0
H  H8  1  0.67487019  0.28870185  0.23533363  1  0.113927  0  0.112941  0.12965  0  0.994415  0
H  H9  1  0.82512926  0.78870146  0.26466597  1  0.113919  0  0.112961  0.12968  0  0.99444  0
H  H10  1  0.32512772  0.71129971  0.76466486  1  0.113918  0  0.112935  0.129594  0  0.994496  0
H  H11  1  0.17487352  0.21129754  0.73533474  1  0.113867  0  0.112951  0.129662  0  0.994444  0
H  H12  1  0.25349904  0.29477864  0.23617800  1  0.113714  0  0.113193  0.128732  0  0.996405  0
H  H13  1  0.24650197  0.79478002  0.26382185  1  0.113733  0  0.113186  0.12874  0  0.996388  0
H  H14  1  0.74649985  0.70522036  0.76382214  1  0.113749  0  0.113192  0.128767  0  0.996355  0
H  H15  1  0.75350276  0.20521812  0.73617725  1  0.113767  0  0.113204  0.12876  0  0.996408  0
H  H16  1  0.54923415  0.62917871  0.28490279  1  0.134494  0  0.11332  0.185939  0  0.997975  0
H  H17  1  0.95076453  0.12917798  0.21509788  1  0.134507  0  0.113324  0.18593  0  0.998083  0
H  H18  1  0.45076669  0.37082199  0.71509845  1  0.134504  0  0.113324  0.185951  0  0.997982  0
H  H19  1  0.04923436  0.87082188  0.78490226  1  0.134488  0  0.113324  0.185935  0  0.998077  0
H  H20  1  0.46212239  0.54144052  0.22103337  1  0.062327  0  0.10733  0.157753  0  0.975519  0
H  H21  1  0.03787798  0.04144107  0.27896590  1  0.062329  0  0.107336  0.15778  0  0.975502  0
H  H22  1  0.53787845  0.45855933  0.77896732  1  0.062307  0  0.107314  0.157726  0  0.975539  0
H  H23  1  0.96212091  0.95855879  0.72103370  1  0.062315  0  0.107329  0.157769  0  0.975517  0
H  H24  1  0.63061589  0.51738335  0.23735836  1  0.105014  0  0.11029  0.161651  0  0.968347  0
H  H25  1  0.86938391  0.01738271  0.26264231  1  0.104982  0  0.110287  0.161633  0  0.968374  0
H  H26  1  0.36938495  0.48261736  0.76264288  1  0.105  0  0.11031  0.161652  0  0.968343  0
H  H27  1  0.13061498  0.98261629  0.73735674  1  0.105008  0  0.110309  0.161646  0  0.968353  0
H  H28  1  0.30894236  0.95284690  0.33311233  1  0.118499  0  0.1211  0.089862  0  0.998516  0
H  H29  1  0.19105748  0.45284726  0.16688807  1  0.118513  0  0.121101  0.089845  0  0.99853  0
H  H30  1  0.69105653  0.04715295  0.66688781  1  0.118528  0  0.121117  0.08989  0  0.998501  0
H  H31  1  0.80894433  0.54715089  0.83311155  1  0.118525  0  0.121096  0.089861  0  0.998546  0
H  H32  1  0.28551898  0.90737162  0.46668470  1  0.137697  0  0.118266  0.137981  0  1.006229  0
H  H33  1  0.21448481  0.40737448  0.03331627  1  0.137696  0  0.118264  0.137992  0  1.006221  0
H  H34  1  0.71447991  0.09262823  0.53331489  1  0.137814  0  0.118281  0.137987  0  1.006284  0
H  H35  1  0.78551992  0.59262879  0.96668337  1  0.137815  0  0.118269  0.137994  0  1.006207  0
H  H36  1  0.35377940  0.06358375  0.55644492  1  0.138401  0  0.129679  0.103402  0  0.959871  0
H  H37  1  0.14622399  0.56358529  0.94355523  1  0.138402  0  0.129696  0.103384  0  0.959922  0
H  H38  1  0.64622144  0.93641525  0.44355578  1  0.138413  0  0.129683  0.103423  0  0.959919  0
H  H39  1  0.85377782  0.43641712  0.05644330  1  0.138419  0  0.129678  0.103381  0  0.959879  0
C  C40  1  0.70583345  0.20075535  0.10281894  1  1.558949  0  0.178831  0.543956  0  4.261236  0
C  C41  1  0.79416612  0.70075588  0.39718065  1  1.558953  0  0.178821  0.54399  0  4.261228  0
C  C42  1  0.29416349  0.79924450  0.89718009  1  1.558865  0  0.178857  0.544012  0  4.26134  0
C  C43  1  0.20583472  0.29924483  0.60281950  1  1.558759  0  0.178795  0.543915  0  4.261345  0
C  C44  1  0.21144439  0.21438180  0.10162947  1  1.569761  0  0.178153  0.536888  0  4.276635  0
C  C45  1  0.28855477  0.71438148  0.39837035  1  1.569915  0  0.178089  0.53685  0  4.276763  0
C  C46  1  0.78855351  0.78561891  0.89836903  1  1.569957  0  0.17815  0.537003  0  4.276722  0
C  C47  1  0.71144704  0.28561752  0.60163035  1  1.569925  0  0.178069  0.536869  0  4.276758  0
C  C48  1  0.45841493  0.20484607  0.10386381  1  0.010076  0  -0.063761  -0.093304  0  3.873766  0
C  C49  1  0.04158522  0.70484770  0.39613710  1  0.010031  0  -0.063745  -0.093192  0  3.87381  0
C  C50  1  0.54158103  0.79515379  0.89613684  1  0.010025  0  -0.063662  -0.093  0  3.873677  0
C  C51  1  0.95841756  0.29515301  0.60386361  1  0.010088  0  -0.06371  -0.09312  0  3.873686  0
C  C52  1  0.57813186  0.22536384  0.13887132  1  -0.01011  0  -0.012123  -0.002564  0  3.961976  0
C  C53  1  0.92186767  0.72536508  0.36112882  1  -0.009995  0  -0.01214  -0.002664  0  3.962009  0
C  C54  1  0.42186605  0.77463772  0.86112772  1  -0.01007  0  -0.012158  -0.002746  0  3.96204  0
C  C55  1  0.07813609  0.27463733  0.63887189  1  -0.010081  0  -0.012147  -0.002654  0  3.961966  0
C  C56  1  0.34177744  0.23123485  0.13870430  1  -0.030498  0  -0.014892  -0.010513  0  3.966226  0
C  C57  1  0.15822073  0.73123635  0.36129606  1  -0.030518  0  -0.0149  -0.010569  0  3.966409  0
C  C58  1  0.65821949  0.76876671  0.86129528  1  -0.030451  0  -0.014919  -0.010705  0  3.966448  0
C  C59  1  0.84178011  0.26876435  0.63870518  1  -0.030474  0  -0.014856  -0.010574  0  3.966387  0
C  C60  1  0.58099202  0.27192219  0.20900621  1  -0.06965  0  -0.079192  -0.177023  0  3.949051  0
C  C61  1  0.91900842  0.77192256  0.29099340  1  -0.069724  0  -0.0792  -0.177043  0  3.94908  0
C  C62  1  0.41900588  0.72807767  0.79099229  1  -0.069709  0  -0.079167  -0.17684  0  3.949062  0
C  C63  1  0.08099437  0.22807730  0.70900731  1  -0.069649  0  -0.079182  -0.177005  0  3.949075  0
C  C64  1  0.34480122  0.27642341  0.20915187  1  -0.034135  0  -0.0804  -0.18282  0  3.97932  0
C  C65  1  0.15519690  0.77642319  0.29085013  1  -0.034132  0  -0.080349  -0.182799  0  3.979268  0
C  C66  1  0.65519572  0.72357730  0.79084880  1  -0.034131  0  -0.080363  -0.182771  0  3.979282  0
C  C67  1  0.84480589  0.22357667  0.70915221  1  -0.034657  0  -0.080429  -0.182862  0  3.979439  0
C  C68  1  0.46446356  0.29635230  0.24317306  1  0.326117  0  0.083079  0.160365  0  4.069758  0
C  C69  1  0.03553452  0.79635389  0.25682676  1  0.32612  0  0.083089  0.160408  0  4.069715  0
C  C70  1  0.53553338  0.70364755  0.75682651  1  0.326115  0  0.083062  0.160304  0  4.069827  0
C  C71  1  0.96446631  0.20364681  0.74317339  1  0.326593  0  0.083084  0.160378  0  4.069895  0
C  C72  1  0.53915137  0.54253120  0.26319788  1  -0.045833  0  -0.222402  -0.472298  0  3.918575  0
C  C73  1  0.96084743  0.04253217  0.23680277  1  -0.045817  0  -0.222403  -0.472286  0  3.918619  0
C  C74  1  0.46084947  0.45746865  0.73680227  1  -0.04567  0  -0.222407  -0.472286  0  3.918639  0
C  C75  1  0.03915146  0.95746769  0.76319736  1  -0.045811  0  -0.222418  -0.472294  0  3.918621  0
C  C76  1  0.50677186  0.46299040  0.32273062  1  0.961689  0  0.252326  0.362357  0  3.896609  0
C  C77  1  0.99322834  0.96298981  0.17726901  1  0.961804  0  0.252333  0.362346  0  3.896535  0
C  C78  1  0.49322800  0.53700945  0.67727007  1  0.961502  0  0.252356  0.362402  0  3.896522  0
C  C79  1  0.00677348  0.03700919  0.82273169  1  0.961788  0  0.2523  0.362316  0  3.896616  0
C  C80  1  0.44758384  0.30891940  0.38150583  1  0.991053  0  0.242139  0.175656  0  3.941975  0
C  C81  1  0.05241520  0.80892008  0.11849400  1  0.991074  0  0.24216  0.17572  0  3.941889  0
C  C82  1  0.55241602  0.69107874  0.61849377  1  0.991652  0  0.242126  0.17568  0  3.942014  0
C  C83  1  0.94758369  0.19107892  0.88150613  1  0.991638  0  0.242163  0.175756  0  3.941864  0
C  C84  1  0.40606894  0.19405595  0.40266510  1  1.078095  0  0.259124  0.303796  0  4.036252  0
C  C85  1  0.09393123  0.69405488  0.09733472  1  1.078122  0  0.259091  0.303666  0  4.036318  0
C  C86  1  0.59393190  0.80594476  0.59733505  1  1.078122  0  0.259103  0.303711  0  4.036274  0
C  C87  1  0.90606863  0.30594242  0.90266488  1  1.078161  0  0.259112  0.303704  0  4.036183  0
C  C88  1  0.33230135  0.01615146  0.37476789  1  0.516092  0  0.074856  0.151015  0  3.929091  0
C  C89  1  0.16770100  0.51615288  0.12523248  1  0.515936  0  0.074864  0.15105  0  3.928963  0
C  C90  1  0.66769754  0.98384669  0.62523171  1  0.516007  0  0.074837  0.150931  0  3.929087  0
C  C91  1  0.83230081  0.48384697  0.87476768  1  0.516004  0  0.074888  0.15106  0  3.929057  0
C  C92  1  0.32012164  0.99028527  0.44842864  1  -0.053758  0  -0.072721  -0.172976  0  3.91863  0
C  C93  1  0.17988204  0.49028646  0.05157125  1  -0.053857  0  -0.072681  -0.172946  0  3.918492  0
C  C94  1  0.67988114  0.00971459  0.55157043  1  -0.054003  0  -0.072727  -0.172907  0  3.918624  0
C  C95  1  0.82011977  0.50971425  0.94842946  1  -0.053885  0  -0.072724  -0.172997  0  3.918664  0
C  C96  1  0.35818091  0.07477676  0.49759077  1  0.521134  0  0.075547  0.141796  0  3.929688  0
C  C97  1  0.14181941  0.57477731  0.00240904  1  0.521255  0  0.075506  0.141756  0  3.929684  0
C  C98  1  0.64181992  0.92522224  0.50240938  1  0.521245  0  0.075528  0.141709  0  3.929794  0
C  C99  1  0.85818143  0.42522339  0.99759002  1  0.521124  0  0.075519  0.141765  0  3.929756  0
N  N100  1  0.47002724  0.35120875  0.31311578  1  -1.231772  0  -0.19902  -0.091323  0  3.678812  0
N  N101  1  0.02997175  0.85121119  0.18688460  1  -1.23191  0  -0.199019  -0.091317  0  3.678754  0
N  N102  1  0.52997164  0.64879110  0.68688381  1  -1.231796  0  -0.199036  -0.091392  0  3.678909  0
N  N103  1  0.97003006  0.14878867  0.81311501  1  -1.231888  0  -0.199027  -0.091325  0  3.678777  0
N  N104  1  0.50647889  0.48619320  0.39352053  1  -0.708234  0  -0.213725  -0.198312  0  3.345886  0
N  N105  1  0.99352030  0.98619343  0.10647856  1  -0.708222  0  -0.213737  -0.198342  0  3.345887  0
N  N106  1  0.49352194  0.51380495  0.60647854  1  -0.70821  0  -0.213784  -0.198343  0  3.345843  0
N  N107  1  0.00647858  0.01380557  0.89352103  1  -0.708266  0  -0.213722  -0.19831  0  3.346057  0
N  N108  1  0.46952996  0.39104277  0.42972404  1  -0.675895  0  -0.205699  -0.166486  0  3.381649  0
N  N109  1  0.03046898  0.89104175  0.07027634  1  -0.675833  0  -0.205744  -0.166527  0  3.381722  0
N  N110  1  0.53047088  0.60895623  0.57027720  1  -0.676474  0  -0.205695  -0.166504  0  3.381723  0
N  N111  1  0.96952893  0.10895640  0.92972324  1  -0.676489  0  -0.205715  -0.166548  0  3.381744  0
N  N112  1  0.37347398  0.11818242  0.35121462  1  -1.174533  0  -0.301827  -0.307231  0  3.24097  0
N  N113  1  0.12652532  0.61818645  0.14878791  1  -1.174407  0  -0.30181  -0.307179  0  3.240855  0
N  N114  1  0.62652588  0.88181573  0.64878552  1  -1.174452  0  -0.301784  -0.307115  0  3.240914  0
N  N115  1  0.87347455  0.38181426  0.85121224  1  -1.174459  0  -0.301808  -0.307187  0  3.240819  0
N  N116  1  0.40314445  0.17563677  0.47491189  1  -1.184775  0  -0.307766  -0.289862  0  3.43382  0
N  N117  1  0.09685671  0.67563738  0.02508848  1  -1.184792  0  -0.307775  -0.28981  0  3.433831  0
N  N118  1  0.59685638  0.82436052  0.52508771  1  -1.184792  0  -0.307759  -0.289818  0  3.433815  0
N  N119  1  0.90314412  0.32436333  0.97491113  1  -1.184817  0  -0.307768  -0.28981  0  3.433745  0
O  O120  1  0.70844288  0.14226063  0.04533631  1  -1.155113  0  -0.341975  -0.548743  0  2.089135  0
O  O121  1  0.79155578  0.64226118  0.45466381  1  -1.15509  0  -0.341944  -0.548732  0  2.089095  0
O  O122  1  0.29155406  0.85773837  0.95466327  1  -1.155074  0  -0.341995  -0.548778  0  2.089137  0
O  O123  1  0.20844602  0.35773782  0.54533580  1  -1.155066  0  -0.341972  -0.548733  0  2.089087  0
O  O124  1  0.80807795  0.24285180  0.13426921  1  -1.163228  0  -0.353335  -0.576945  0  2.19573  0
O  O125  1  0.69191961  0.74285242  0.36573037  1  -1.163267  0  -0.35335  -0.576961  0  2.195741  0
O  O126  1  0.19191802  0.75714720  0.86573036  1  -1.163211  0  -0.353352  -0.576983  0  2.195795  0
O  O127  1  0.30808220  0.25714744  0.63426924  1  -1.16313  0  -0.353336  -0.576965  0  2.195803  0
O  O128  1  0.20563380  0.18738030  0.03510448  1  -1.165478  0  -0.345347  -0.560478  0  2.09886  0
O  O129  1  0.29436638  0.68737999  0.46489534  1  -1.165481  0  -0.345375  -0.560512  0  2.098873  0
O  O130  1  0.79436411  0.81262041  0.96489347  1  -1.165435  0  -0.345388  -0.560577  0  2.098944  0
O  O131  1  0.70563933  0.31261986  0.53510593  1  -1.165383  0  -0.345306  -0.560481  0  2.098923  0
O  O132  1  0.11069556  0.23125033  0.14071389  1  -1.17031  0  -0.346381  -0.567969  0  2.207401  0
O  O133  1  0.38929872  0.73124989  0.35928535  1  -1.170422  0  -0.346334  -0.56794  0  2.207516  0
O  O134  1  0.88930040  0.76875038  0.85928459  1  -1.170438  0  -0.346371  -0.568004  0  2.20745  0
O  O135  1  0.61069822  0.26874996  0.64071477  1  -1.170424  0  -0.346358  -0.567972  0  2.207418  0
