# generated using pymatgen
data_HgH6C8(N2Cl)2
_symmetry_space_group_name_H-M   'P 1'
_cell_length_a   3.81581816
_cell_length_b   10.51360330
_cell_length_c   12.84026729
_cell_angle_alpha   90.54707844
_cell_angle_beta   91.93874568
_cell_angle_gamma   94.43416491
_symmetry_Int_Tables_number   1
_chemical_formula_structural   HgH6C8(N2Cl)2
_chemical_formula_sum   'Hg2 H12 C16 N8 Cl4'
_cell_volume   513.25172456
_cell_formula_units_Z   2
loop_
 _symmetry_equiv_pos_site_id
 _symmetry_equiv_pos_as_xyz
  1  'x, y, z'
loop_
 _atom_site_type_symbol
 _atom_site_label
 _atom_site_symmetry_multiplicity
 _atom_site_fract_x
 _atom_site_fract_y
 _atom_site_fract_z
 _atom_site_occupancy
 _atom_site_hle17_bader_spin_density
 _atom_site_hle17_ddec_charge
 _atom_site_hle17_ddec_spin_density
 _atom_site_hle17_ddec_sum_bond_order
 _atom_site_hle17_magmom
 _atom_site_hse06_10hf_bader_spin_density
 _atom_site_hse06_10hf_ddec_charge
 _atom_site_hse06_10hf_ddec_spin_density
 _atom_site_hse06_10hf_ddec_sum_bond_order
 _atom_site_hse06_10hf_magmom
 _atom_site_hse06_bader_spin_density
 _atom_site_hse06_ddec_charge
 _atom_site_hse06_ddec_spin_density
 _atom_site_hse06_ddec_sum_bond_order
 _atom_site_hse06_magmom
 _atom_site_pbe_bader_spin_density
 _atom_site_pbe_cm5_charge
 _atom_site_pbe_ddec_charge
 _atom_site_pbe_ddec_spin_density
 _atom_site_pbe_ddec_sum_bond_order
 _atom_site_pbe_magmom
Hg  Hg0  1  0.11064749  0.00696430  0.74492620  1  0  0.747057  0  2.138358  0  0  0.604665  0  2.629561  0  0  0.656515  0  2.594999  0  0  0.487684  0.568182  0  2.65315  0
Hg  Hg1  1  0.88935403  0.99303807  0.25508014  1  0  0.747027  0  2.13834  0  0  0.604658  0  2.629535  0  0  0.656503  0  2.594975  0  0  0.487675  0.568173  0  2.653127  0
H  H2  1  0.88230661  0.17370298  0.52105061  1  0  0.071191  0  0.957424  0  0  0.075023  0  1.030762  0  0  0.077095  0  1.027566  0  0  0.106875  0.073034  0  1.033476  0
H  H3  1  0.11769446  0.82629751  0.47894792  1  0  0.071174  0  0.957444  0  0  0.075002  0  1.030766  0  0  0.077066  0  1.02759  0  0  0.106866  0.073016  0  1.033478  0
H  H4  1  0.66607054  0.54750885  0.58305730  1  0  0.08358  0  0.951542  0  0  0.084497  0  1.030028  0  0  0.087937  0  1.026018  0  0  0.113475  0.081981  0  1.032892  0
H  H5  1  0.33391739  0.45249160  0.41693955  1  0  0.083633  0  0.951522  0  0  0.084564  0  1.029964  0  0  0.088001  0  1.02596  0  0  0.113503  0.082051  0  1.032829  0
H  H6  1  0.11569154  0.31295911  0.82082254  1  0  0.088867  0  0.941475  0  0  0.091626  0  1.018345  0  0  0.094733  0  1.014321  0  0  0.111002  0.08909  0  1.021352  0
H  H7  1  0.88429473  0.68704611  0.17917668  1  0  0.088807  0  0.941477  0  0  0.091547  0  1.018392  0  0  0.094655  0  1.014368  0  0  0.11097  0.089026  0  1.021383  0
H  H8  1  0.89507319  0.83579183  0.97693638  1  0  0.07307  0  0.94974  0  0  0.07709  0  1.021239  0  0  0.079083  0  1.018208  0  0  0.10993  0.075216  0  1.023843  0
H  H9  1  0.10494655  0.16419628  0.02307232  1  0  0.07309  0  0.949694  0  0  0.077113  0  1.021203  0  0  0.079105  0  1.018171  0  0  0.109953  0.07524  0  1.023809  0
H  H10  1  0.66823667  0.44911896  0.91731401  1  0  0.082319  0  0.954101  0  0  0.083137  0  1.033044  0  0  0.086735  0  1.028829  0  0  0.112368  0.080413  0  1.036214  0
H  H11  1  0.33177615  0.55087490  0.08267833  1  0  0.082322  0  0.954034  0  0  0.083138  0  1.033008  0  0  0.086748  0  1.028755  0  0  0.112397  0.080417  0  1.036173  0
H  H12  1  0.12439835  0.70070675  0.68412352  1  0  0.089628  0  0.935845  0  0  0.092863  0  1.011156  0  0  0.095949  0  1.007187  0  0  0.111793  0.090526  0  1.013752  0
H  H13  1  0.87560198  0.29930326  0.31587743  1  0  0.089577  0  0.935894  0  0  0.092836  0  1.011197  0  0  0.095922  0  1.007226  0  0  0.111802  0.090504  0  1.013791  0
C  C14  1  0.88572357  0.25366847  0.57600691  1  0  0.293737  0  3.692175  0  0  0.243593  0  3.970368  0  0  0.257982  0  3.983406  0  0  0.173565  0.234361  0  3.961709  0
C  C15  1  0.11427300  0.74633582  0.42399239  1  0  0.293866  0  3.691945  0  0  0.243727  0  3.970144  0  0  0.258117  0  3.983176  0  0  0.173633  0.234504  0  3.961457  0
C  C16  1  0.77111700  0.45932946  0.61060305  1  0  0.124708  0  3.660953  0  0  0.088217  0  3.920302  0  0  0.097503  0  3.935204  0  0  0.063674  0.082297  0  3.91034  0
C  C17  1  0.22887391  0.54067292  0.38939229  1  0  0.124695  0  3.661074  0  0  0.088172  0  3.920401  0  0  0.097458  0  3.935304  0  0  0.063696  0.082245  0  3.910451  0
C  C18  1  0.89486177  0.44889577  0.71421464  1  0  -0.043687  0  3.791882  0  0  -0.021326  0  4.019282  0  0  -0.029925  0  4.047673  0  0  -0.005996  -0.016217  0  4.000818  0
C  C19  1  0.10513740  0.55110854  0.28578157  1  0  -0.043774  0  3.791964  0  0  -0.021309  0  4.019206  0  0  -0.029904  0  4.047589  0  0  -0.006006  -0.016201  0  4.000749  0
C  C20  1  0.01319547  0.33064174  0.74207728  1  0  0.125143  0  3.666232  0  0  0.084733  0  3.92157  0  0  0.094263  0  3.938742  0  0  0.061386  0.079001  0  3.909892  0
C  C21  1  0.98679565  0.66936158  0.25792041  1  0  0.125328  0  3.66608  0  0  0.084887  0  3.921401  0  0  0.094415  0  3.938572  0  0  0.061467  0.079142  0  3.909721  0
C  C22  1  0.89889068  0.75476039  0.92327936  1  0  0.296342  0  3.686657  0  0  0.246301  0  3.965772  0  0  0.26064  0  3.978784  0  0  0.1749  0.237061  0  3.957141  0
C  C23  1  0.10111685  0.24523246  0.07672772  1  0  0.296402  0  3.686302  0  0  0.246346  0  3.965407  0  0  0.260689  0  3.978415  0  0  0.17492  0.237103  0  3.95678  0
C  C24  1  0.77620788  0.54185949  0.88994435  1  0  0.127127  0  3.660501  0  0  0.090417  0  3.919664  0  0  0.099353  0  3.934931  0  0  0.064256  0.084745  0  3.909448  0
C  C25  1  0.22379414  0.45813242  0.11005411  1  0  0.127183  0  3.66064  0  0  0.090443  0  3.919803  0  0  0.099385  0  3.935072  0  0  0.064239  0.084775  0  3.909579  0
C  C26  1  0.89861458  0.55621949  0.78848943  1  0  -0.049203  0  3.799918  0  0  -0.026377  0  4.026363  0  0  -0.034977  0  4.055158  0  0  -0.006502  -0.021327  0  4.007649  0
C  C27  1  0.10138908  0.44378101  0.21150601  1  0  -0.049322  0  3.79992  0  0  -0.026516  0  4.02635  0  0  -0.035118  0  4.055144  0  0  -0.006555  -0.021461  0  4.007632  0
C  C28  1  0.02169561  0.68001541  0.76117520  1  0  0.122943  0  3.669832  0  0  0.083967  0  3.922365  0  0  0.093325  0  3.939429  0  0  0.060919  0.078447  0  3.910573  0
C  C29  1  0.97830586  0.31998698  0.23882569  1  0  0.12304  0  3.669779  0  0  0.084062  0  3.922264  0  0  0.093419  0  3.939329  0  0  0.060906  0.07853  0  3.91048  0
N  N30  1  0.00935492  0.23434396  0.67300050  1  0  -0.335282  0  3.194466  0  0  -0.267371  0  3.461103  0  0  -0.290547  0  3.4821  0  0  -0.308985  -0.252493  0  3.447035  0
N  N31  1  0.99063866  0.76565841  0.32699876  1  0  -0.335262  0  3.194374  0  0  -0.267364  0  3.461001  0  0  -0.290541  0  3.481999  0  0  -0.308935  -0.252494  0  3.446963  0
N  N32  1  0.76577537  0.36269869  0.54158262  1  0  -0.338311  0  3.037594  0  0  -0.295034  0  3.313409  0  0  -0.31088  0  3.327227  0  0  -0.314029  -0.284798  0  3.304166  0
N  N33  1  0.23422063  0.63730274  0.45841509  1  0  -0.338423  0  3.037313  0  0  -0.295179  0  3.313173  0  0  -0.311022  0  3.326987  0  0  -0.314137  -0.284935  0  3.303926  0
N  N34  1  0.02196708  0.77819597  0.82829220  1  0  -0.331802  0  3.181358  0  0  -0.265679  0  3.448517  0  0  -0.288362  0  3.468859  0  0  -0.307501  -0.251235  0  3.435029  0
N  N35  1  0.97803650  0.22180355  0.17171413  1  0  -0.331914  0  3.181288  0  0  -0.265814  0  3.448507  0  0  -0.288497  0  3.46885  0  0  -0.307594  -0.251362  0  3.435019  0
N  N36  1  0.77616301  0.64014175  0.95725337  1  0  -0.338549  0  3.030469  0  0  -0.29537  0  3.306874  0  0  -0.311167  0  3.320882  0  0  -0.31185  -0.284957  0  3.297518  0
N  N37  1  0.22384182  0.35985112  0.04274590  1  0  -0.338592  0  3.030352  0  0  -0.29542  0  3.306824  0  0  -0.311216  0  3.320831  0  0  -0.311824  -0.285008  0  3.297471  0
Cl  Cl38  1  0.54372958  0.09409736  0.87550174  1  0  -0.444126  0  1.080304  0  0  -0.387419  0  1.378316  0  0  -0.407089  0  1.35988  0  0  -0.250069  -0.371947  0  1.390489  0
Cl  Cl39  1  0.45627418  0.90590312  0.12450305  1  0  -0.444177  0  1.080278  0  0  -0.387454  0  1.378254  0  0  -0.407126  0  1.35982  0  0  -0.250114  -0.371982  0  1.390436  0
Cl  Cl40  1  0.66035365  0.91717991  0.61763476  1  0  -0.444754  0  1.08869  0  0  -0.387515  0  1.390491  0  0  -0.408132  0  1.371897  0  0  -0.246901  -0.371351  0  1.402551  0
Cl  Cl41  1  0.33965725  0.08281677  0.38237239  1  0  -0.444679  0  1.088649  0  0  -0.387477  0  1.390491  0  0  -0.408094  0  1.371897  0  0  -0.246856  -0.37131  0  1.402558  0
