# generated using pymatgen
data_CuH14C16N2O5
_symmetry_space_group_name_H-M   'P 1'
_cell_length_a   7.46251399
_cell_length_b   9.79037611
_cell_length_c   11.99246685
_cell_angle_alpha   74.15667234
_cell_angle_beta   81.52104076
_cell_angle_gamma   73.93681615
_symmetry_Int_Tables_number   1
_chemical_formula_structural   CuH14C16N2O5
_chemical_formula_sum   'Cu2 H28 C32 N4 O10'
_cell_volume   807.53201904
_cell_formula_units_Z   2
loop_
 _symmetry_equiv_pos_site_id
 _symmetry_equiv_pos_as_xyz
  1  'x, y, z'
loop_
 _atom_site_type_symbol
 _atom_site_label
 _atom_site_symmetry_multiplicity
 _atom_site_fract_x
 _atom_site_fract_y
 _atom_site_fract_z
 _atom_site_occupancy
 _atom_site_hle17_ddec_charge
 _atom_site_hle17_ddec_spin_density
 _atom_site_hle17_ddec_sum_bond_order
 _atom_site_hle17_magmom
 _atom_site_hse06_10hf_ddec_charge
 _atom_site_hse06_10hf_ddec_spin_density
 _atom_site_hse06_10hf_ddec_sum_bond_order
 _atom_site_hse06_10hf_magmom
 _atom_site_hse06_ddec_charge
 _atom_site_hse06_ddec_spin_density
 _atom_site_hse06_ddec_sum_bond_order
 _atom_site_hse06_magmom
 _atom_site_pbe_cm5_charge
 _atom_site_pbe_ddec_charge
 _atom_site_pbe_ddec_spin_density
 _atom_site_pbe_ddec_sum_bond_order
 _atom_site_pbe_magmom
Cu  Cu0  1  0.74103940  0.69249102  0.68790226  1  0.849768  0.701555  1.851167  0.524  0.826436  0.787339  2.249234  0.639  0.913542  0.850049  2.182301  0.723  0.731484  0.77295  0.743106  2.29658  0.584
Cu  Cu1  1  0.25895836  0.30750822  0.31209864  1  0.849754  0.701571  1.851145  0.524  0.826364  0.787336  2.249209  0.639  0.913495  0.850052  2.182263  0.723  0.731478  0.772882  0.743104  2.296605  0.584
H  H2  1  0.99659924  0.67100156  0.45575631  1  0.105196  0.002181  0.94817  0.002  0.11628  0.001915  1.004192  0.002  0.119222  0.001342  1.001357  0.001  0.123706  0.113952  0.002413  1.006412  0.002
H  H3  1  0.00340360  0.32899437  0.54424570  1  0.10519  0.002174  0.948132  0.002  0.116287  0.001915  1.004147  0.002  0.119227  0.001342  1.001311  0.001  0.123689  0.113957  0.002413  1.006367  0.002
H  H4  1  0.07233896  0.85846577  0.27916766  1  0.122681  0.000556  0.932364  0.0  0.135832  0.00055  0.983438  0.0  0.139422  0.000399  0.982324  0.0  0.115478  0.133091  0.000677  0.984534  0.001
H  H5  1  0.92766625  0.14153125  0.72083391  1  0.122681  0.000555  0.932318  0.0  0.135836  0.00055  0.98339  0.0  0.139425  0.000399  0.98228  0.0  0.115477  0.133089  0.000677  0.984486  0.001
H  H6  1  0.92637570  0.12684173  0.26758204  1  0.119246  0.000272  0.940347  0.0  0.1307  1e-05  0.997136  0.0  0.13366  -2.1e-05  0.99486  0.0  0.112917  0.12831  5.7e-05  0.999101  0.0
H  H7  1  0.07362816  0.87315530  0.73241881  1  0.119193  0.000274  0.94044  0.0  0.130656  1e-05  0.997234  0.0  0.133615  -2.1e-05  0.994958  0.0  0.112907  0.128268  5.7e-05  0.999197  0.0
H  H8  1  0.70054304  0.31984996  0.36599467  1  0.114717  0.000235  0.966788  0.0  0.123914  0.000166  1.028242  0.0  0.126685  8.6e-05  1.027946  0.0  0.108276  0.121668  0.000236  1.028917  0.0
H  H9  1  0.29947467  0.68015030  0.63400679  1  0.114689  0.000242  0.966755  0.0  0.123923  0.000165  1.028171  0.0  0.126691  8.6e-05  1.02787  0.0  0.108242  0.121675  0.000236  1.028845  0.0
H  H10  1  0.48945641  0.37441932  0.53609016  1  0.112949  0.000376  0.925583  0.001  0.129067  0.00025  0.974614  0.0  0.131689  0.000154  0.974237  0.0  0.115341  0.126938  0.000339  0.975387  0.0
H  H11  1  0.51056095  0.62558203  0.46391276  1  0.113003  0.000375  0.925543  0.001  0.129165  0.00025  0.974536  0.0  0.131787  0.000154  0.97416  0.0  0.115344  0.127036  0.000339  0.975314  0.0
H  H12  1  0.33909480  0.28303750  0.73869621  1  0.123504  0.000289  0.982028  0.001  0.129017  2.8e-05  1.046421  0.0  0.133064  -1e-05  1.042472  0.0  0.112558  0.126029  8.8e-05  1.049144  0.0
H  H13  1  0.66091377  0.71697048  0.26130104  1  0.123621  0.000294  0.981932  0.001  0.129081  2.8e-05  1.046366  0.0  0.133129  -1e-05  1.042416  0.0  0.112565  0.126094  8.8e-05  1.049093  0.0
H  H14  1  0.31084995  0.06662856  0.90456567  1  0.109446  0.000525  0.929185  0.001  0.123989  0.000506  0.97666  0.001  0.127002  0.000371  0.976651  0.0  0.114664  0.121534  0.000702  0.977165  0.001
H  H15  1  0.68914510  0.93337947  0.09542939  1  0.109488  0.000523  0.929177  0.001  0.124019  0.000506  0.976661  0.001  0.127033  0.000371  0.976652  0.0  0.114652  0.121569  0.000702  0.977165  0.001
H  H16  1  0.48143444  0.81292490  0.88479603  1  0.088742  0.001493  0.949082  0.003  0.096849  0.001208  1.012697  0.002  0.099098  0.000826  1.009599  0.002  0.123759  0.094959  0.001559  1.01505  0.003
H  H17  1  0.51855379  0.18708312  0.11520295  1  0.088711  0.001493  0.949028  0.003  0.096811  0.001208  1.012656  0.002  0.09906  0.000827  1.009557  0.002  0.123742  0.094922  0.001559  1.015013  0.003
H  H18  1  0.25316602  0.63978938  0.91746897  1  0.096407  0.000118  0.935831  0.0  0.111987  8.1e-05  0.996556  0.0  0.114941  4.9e-05  0.994317  0.0  0.096041  0.110104  0.000119  0.997824  0.0
H  H19  1  0.74682262  0.36021320  0.08252783  1  0.096341  0.000121  0.935871  0.0  0.111924  8.1e-05  0.996589  0.0  0.114878  4.9e-05  0.994351  0.0  0.096026  0.110051  0.000119  0.99786  0.0
H  H20  1  0.14190362  0.50392138  0.99965714  1  0.112163  -5.9e-05  0.946477  0.0  0.127937  -7.7e-05  1.003532  0.0  0.129694  -6.1e-05  1.003473  0.0  0.100955  0.126597  -7.9e-05  1.003791  0.0
H  H21  1  0.85808945  0.49608011  0.00033701  1  0.112166  -5.7e-05  0.946378  0.0  0.127873  -7.7e-05  1.003522  0.0  0.12963  -6e-05  1.003467  0.0  0.100954  0.126537  -7.9e-05  1.003787  0.0
H  H22  1  0.46865163  0.39095877  0.00021088  1  0.101492  -0.000355  0.964015  0.0  0.117333  -6.6e-05  1.027142  0.0  0.119359  -8.9e-05  1.026528  0.0  0.100527  0.115867  -4e-06  1.027649  0.0
H  H23  1  0.53133726  0.60904264  0.99979448  1  0.101576  -0.000356  0.964001  0.0  0.117378  -6.6e-05  1.027136  0.0  0.119408  -9e-05  1.026517  0.0  0.100509  0.115909  -4e-06  1.027641  0.0
H  H24  1  0.38307418  0.31491113  0.90783961  1  0.094442  0.000848  0.948753  0.001  0.107646  0.000652  1.012426  0.001  0.10845  0.000393  1.012884  0.001  0.097104  0.107128  0.001006  1.012102  0.001
H  H25  1  0.61693239  0.68509028  0.09215922  1  0.094429  0.000842  0.948804  0.001  0.107605  0.000652  1.012467  0.001  0.108409  0.000392  1.012928  0.001  0.097074  0.107083  0.001006  1.012142  0.001
H  H26  1  0.00008402  0.49451381  0.67462175  1  0.404218  -0.001016  0.91258  -0.002  0.37055  -8.5e-05  0.982822  -0.001  0.383513  -0.000318  0.964836  -0.001  0.278073  0.361436  0.000136  0.995441  -0.001
H  H27  1  0.99991518  0.50548571  0.32537507  1  0.404169  -0.001014  0.91263  -0.002  0.370495  -8.5e-05  0.982901  -0.001  0.383458  -0.000317  0.964914  -0.001  0.278048  0.361382  0.000136  0.995516  -0.001
H  H28  1  0.80479035  0.44041107  0.69071633  1  0.39974  -0.001015  0.920332  -0.002  0.369171  -8e-06  0.985872  -0.001  0.382455  -0.000249  0.967553  -0.001  0.27796  0.359862  0.000251  0.998672  0.0
H  H29  1  0.19520873  0.55958814  0.30928696  1  0.399731  -0.001015  0.920401  -0.002  0.369201  -8e-06  0.985843  -0.001  0.382484  -0.000249  0.967524  -0.001  0.277967  0.359893  0.000251  0.998643  0.0
C  C30  1  0.93577606  0.78784921  0.44816367  1  0.153773  -0.009457  3.645134  -0.006  0.126545  -0.001861  3.899815  -0.001  0.138366  -0.003573  3.914995  -0.002  0.061017  0.118771  -0.00053  3.890032  0.0
C  C31  1  0.06422476  0.21214454  0.55183899  1  0.153747  -0.009441  3.645113  -0.006  0.126524  -0.001859  3.899821  -0.001  0.13835  -0.003575  3.914998  -0.002  0.061027  0.118749  -0.000529  3.890029  0.0
C  C32  1  0.97544325  0.89455473  0.34892405  1  -0.117896  0.008133  3.704685  0.009  -0.132113  0.00391  3.958782  0.005  -0.139702  0.003329  3.978177  0.004  -0.079346  -0.127154  0.004402  3.946089  0.005
C  C33  1  0.02455757  0.10543901  0.65107861  1  -0.117932  0.008147  3.704681  0.009  -0.13214  0.003909  3.958795  0.005  -0.139728  0.00333  3.978184  0.004  -0.079378  -0.127177  0.004401  3.946089  0.005
C  C34  1  0.89382428  0.04180395  0.34229570  1  -0.035352  -0.011616  3.636504  -0.007  -0.062206  -0.005  3.887739  -0.003  -0.05774  -0.005225  3.903592  -0.003  -0.058919  -0.065503  -0.004883  3.877495  -0.003
C  C35  1  0.10617483  0.95819089  0.65770771  1  -0.035266  -0.01164  3.636499  -0.007  -0.062125  -0.004998  3.88775  -0.003  -0.057659  -0.005228  3.903604  -0.003  -0.058899  -0.065424  -0.004883  3.877498  -0.003
C  C36  1  0.76986467  0.08276457  0.43564789  1  0.031786  0.003852  3.774228  0.004  0.047693  0.001905  4.007638  0.002  0.044829  0.001549  4.031901  0.002  -6.7e-05  0.049595  0.002188  3.991253  0.003
C  C37  1  0.23013143  0.91723140  0.56435220  1  0.031783  0.003853  3.774125  0.004  0.047689  0.001905  4.007593  0.002  0.044824  0.00155  4.031857  0.002  -4.5e-05  0.049585  0.002188  3.991212  0.003
C  C38  1  0.67646461  0.23095762  0.43947411  1  -0.098445  0.000961  3.713294  0.001  -0.128956  -8e-06  3.985545  0.001  -0.132103  -7e-05  4.006773  0.001  -0.079693  -0.127074  9.5e-05  3.972049  0.001
C  C39  1  0.32354300  0.76904051  0.56052451  1  -0.098424  0.000942  3.713169  0.001  -0.128944  -1e-05  3.985438  0.001  -0.132082  -7e-05  4.006658  0.001  -0.079688  -0.127064  9.5e-05  3.971944  0.001
C  C40  1  0.56047358  0.26161724  0.53401237  1  -0.083768  -5.2e-05  3.699573  0.0  -0.11026  -0.000179  3.962726  0.0  -0.112901  -0.000297  3.983522  0.0  -0.072831  -0.10848  8e-06  3.94932  0.001
C  C41  1  0.43953740  0.73838307  0.46598632  1  -0.083826  -4.1e-05  3.69953  0.0  -0.110415  -0.000176  3.962688  0.0  -0.113058  -0.000299  3.983482  0.0  -0.072841  -0.108632  8e-06  3.949281  0.001
C  C42  1  0.52954477  0.14749142  0.63314441  1  0.037067  0.00511  3.774502  0.006  0.053457  0.002348  4.005887  0.003  0.050547  0.001978  4.029315  0.002  0.003795  0.055054  0.002679  3.989927  0.003
C  C43  1  0.47046016  0.85250674  0.36685193  1  0.037059  0.0051  3.774746  0.006  0.053605  0.002347  4.005946  0.003  0.050693  0.001981  4.029375  0.002  0.003842  0.055202  0.002679  3.989996  0.003
C  C44  1  0.41444168  0.17148146  0.73405808  1  -0.026642  -0.014145  3.641341  -0.009  -0.054128  -0.0057  3.89404  -0.003  -0.047837  -0.006117  3.907056  -0.003  -0.054487  -0.058312  -0.005485  3.884882  -0.003
C  C45  1  0.58556115  0.82852325  0.26594036  1  -0.026736  -0.014155  3.641545  -0.009  -0.054202  -0.005698  3.894171  -0.003  -0.04791  -0.006119  3.907189  -0.003  -0.054496  -0.058388  -0.005485  3.885023  -0.003
C  C46  1  0.39833494  0.05207451  0.82534761  1  -0.127736  0.009548  3.737706  0.011  -0.140573  0.004264  3.989854  0.005  -0.149595  0.003673  4.010137  0.005  -0.080955  -0.134507  0.004745  3.97616  0.006
C  C47  1  0.60166043  0.94793241  0.17465017  1  -0.127892  0.009551  3.737804  0.011  -0.140737  0.004263  3.989923  0.005  -0.149762  0.003673  4.010208  0.005  -0.080965  -0.134668  0.004745  3.976234  0.006
C  C48  1  0.49283432  0.90966297  0.81577564  1  0.153791  -0.013044  3.667518  -0.009  0.125256  -0.003629  3.922065  -0.002  0.137835  -0.00528  3.937219  -0.004  0.06284  0.117172  -0.002507  3.911807  -0.002
C  C49  1  0.50715633  0.09034179  0.18422135  1  0.15398  -0.01304  3.667436  -0.009  0.125469  -0.003627  3.921941  -0.002  0.138047  -0.005279  3.937094  -0.004  0.062926  0.117383  -0.002507  3.911688  -0.002
C  C50  1  0.61994809  0.00072895  0.63100909  1  0.118582  -0.004135  3.780075  -0.003  0.112465  -0.000788  4.020183  0.0  0.117765  -0.001878  4.043478  -0.001  0.112161  0.109137  -2.9e-05  4.00474  0.001
C  C51  1  0.38004970  0.99927031  0.36898846  1  0.118658  -0.004125  3.780016  -0.003  0.112458  -0.000787  4.020174  0.0  0.117759  -0.001884  4.043467  -0.001  0.112158  0.109128  -2.9e-05  4.004735  0.001
C  C52  1  0.73939769  0.96817804  0.53207136  1  0.11318  -0.002388  3.79896  -0.001  0.108094  -0.000272  4.042354  0.0  0.113071  -0.001221  4.066029  -0.001  0.10986  0.104938  0.000352  4.026521  0.001
C  C53  1  0.26059368  0.03182016  0.46792531  1  0.113134  -0.002393  3.798999  -0.001  0.108032  -0.000273  4.042507  0.0  0.113009  -0.001221  4.06618  -0.001  0.109799  0.104882  0.000352  4.026662  0.001
C  C54  1  0.10632752  0.56264329  0.81767964  1  0.689357  -0.000565  3.852382  0.0  0.649569  -0.000395  4.152152  0.0  0.682973  -0.000356  4.14503  0.0  0.201724  0.627011  -0.000368  4.155768  0.0
C  C55  1  0.89367235  0.43735380  0.18231571  1  0.689337  -0.000566  3.852396  0.0  0.649385  -0.000396  4.152378  0.0  0.682791  -0.000354  4.145257  0.0  0.201652  0.62684  -0.000367  4.155975  0.0
C  C56  1  0.22628270  0.53466246  0.91802321  1  -0.244092  -0.000283  3.686625  0.0  -0.283263  0.000154  3.93482  0.0  -0.287472  7e-06  3.941826  0.0  -0.17143  -0.28036  0.000344  3.929785  0.0
C  C57  1  0.77371777  0.46533678  0.08197663  1  -0.243919  -0.000289  3.686572  0.0  -0.283019  0.000153  3.934762  0.0  -0.287227  -1e-06  3.941773  0.0  -0.17139  -0.28014  0.000344  3.92975  0.0
C  C58  1  0.40824978  0.41655525  0.91626539  1  -0.241047  0.010123  3.695293  0.011  -0.285342  0.005251  3.949243  0.006  -0.29103  0.003321  3.958258  0.004  -0.168672  -0.281299  0.006792  3.942886  0.007
C  C59  1  0.59174823  0.58344722  0.08374063  1  -0.24129  0.010126  3.69573  0.011  -0.285452  0.00525  3.949509  0.006  -0.291151  0.003325  3.958537  0.004  -0.168668  -0.281404  0.006792  3.943152  0.007
C  C60  1  0.55813480  0.45858573  0.82304396  1  0.699521  -0.005781  3.808285  -0.006  0.660046  -0.000629  4.113404  -0.001  0.696062  -0.001021  4.10797  -0.001  0.212803  0.635467  -0.000166  4.116441  -0.001
C  C61  1  0.44186862  0.54141672  0.17696243  1  0.699511  -0.005765  3.80867  -0.006  0.660027  -0.000627  4.113728  -0.001  0.696047  -0.001023  4.108296  -0.001  0.212816  0.635454  -0.000166  4.116749  -0.001
N  N62  1  0.82122948  0.82439402  0.53742921  1  -0.334161  0.066631  3.337723  0.087  -0.297588  0.048088  3.642883  0.067  -0.327173  0.038956  3.663214  0.059  -0.341791  -0.279917  0.053416  3.631259  0.071
N  N63  1  0.17876424  0.17560524  0.46256953  1  -0.334006  0.066634  3.337653  0.087  -0.297477  0.048088  3.642889  0.067  -0.327067  0.038956  3.663221  0.059  -0.341698  -0.279804  0.053416  3.631261  0.071
N  N64  1  0.59945588  0.88500524  0.72052225  1  -0.309715  0.07504  3.32638  0.096  -0.268165  0.05331  3.620285  0.073  -0.297911  0.043441  3.6401  0.064  -0.342068  -0.250365  0.059083  3.608494  0.077
N  N65  1  0.40053545  0.11499731  0.27947599  1  -0.309858  0.075036  3.326393  0.096  -0.268273  0.05331  3.6203  0.073  -0.298025  0.04344  3.640112  0.064  -0.342143  -0.250476  0.059081  3.608531  0.077
O  O66  1  0.95556659  0.66349056  0.81371882  1  -0.669548  0.002113  1.965088  0.005  -0.635288  0.000847  2.217917  0.003  -0.663833  -0.000217  2.204853  0.002  -0.352415  -0.614704  0.002321  2.226239  0.005
O  O67  1  0.04442853  0.33650434  0.18627824  1  -0.669561  0.002114  1.965092  0.005  -0.635247  0.000849  2.218008  0.003  -0.663796  -0.000216  2.204945  0.002  -0.352396  -0.614667  0.002323  2.226332  0.005
O  O68  1  0.16355615  0.48395191  0.74378165  1  -0.643585  -0.000926  1.964436  -0.001  -0.577618  -0.000653  2.172187  0.0  -0.602621  -0.000645  2.161432  0.0  -0.327554  -0.559904  -0.000578  2.178935  0.0
O  O69  1  0.83644913  0.51604515  0.25621406  1  -0.643545  -0.000929  1.964356  -0.001  -0.577515  -0.000652  2.172197  0.0  -0.602507  -0.000644  2.161423  0.0  -0.3275  -0.559803  -0.000578  2.178933  0.0
O  O70  1  0.56203297  0.59473203  0.79863470  1  -0.617453  0.087015  2.065972  0.122  -0.595144  0.04903  2.358306  0.075  -0.639963  0.034772  2.352016  0.058  -0.333747  -0.564542  0.059096  2.362048  0.086
O  O71  1  0.43797519  0.40526821  0.20137342  1  -0.617387  0.087013  2.066056  0.122  -0.59508  0.049031  2.358393  0.075  -0.639902  0.034773  2.352101  0.058  -0.333735  -0.564483  0.059098  2.362148  0.086
O  O72  1  0.67041073  0.36135263  0.77859963  1  -0.617802  -0.001615  1.933362  0.0  -0.572693  -0.001306  2.145154  -0.001  -0.59821  -0.001745  2.135704  -0.001  -0.327449  -0.555004  -0.000817  2.151042  0.0
O  O73  1  0.32959236  0.63865093  0.22140488  1  -0.617789  -0.001613  1.933328  0.0  -0.57271  -0.001304  2.145108  -0.001  -0.598225  -0.001749  2.135659  -0.001  -0.327461  -0.555027  -0.000817  2.150991  0.0
O  O74  1  0.87694682  0.51218692  0.63686631  1  -0.784552  0.08947  1.948741  0.121  -0.756516  0.058841  2.169363  0.085  -0.795171  0.043702  2.135173  0.069  -0.581612  -0.730456  0.069234  2.193355  0.095
O  O75  1  0.12305095  0.48781233  0.36313291  1  -0.784494  0.089464  1.948799  0.121  -0.756452  0.058839  2.169332  0.085  -0.795131  0.0437  2.135178  0.069  -0.581598  -0.730399  0.069232  2.193335  0.095
