# generated using pymatgen
data_CoH8C10(SN3)2
_symmetry_space_group_name_H-M   'P 1'
_cell_length_a   7.16930470
_cell_length_b   6.71764218
_cell_length_c   7.37870663
_cell_angle_alpha   91.07635192
_cell_angle_beta   110.24720683
_cell_angle_gamma   110.98516708
_symmetry_Int_Tables_number   1
_chemical_formula_structural   CoH8C10(SN3)2
_chemical_formula_sum   'Co1 H8 C10 S2 N6'
_cell_volume   307.13269342
_cell_formula_units_Z   1
loop_
 _symmetry_equiv_pos_site_id
 _symmetry_equiv_pos_as_xyz
  1  'x, y, z'
loop_
 _atom_site_type_symbol
 _atom_site_label
 _atom_site_symmetry_multiplicity
 _atom_site_fract_x
 _atom_site_fract_y
 _atom_site_fract_z
 _atom_site_occupancy
 _atom_site_pbe_cm5_charge
 _atom_site_pbe_ddec_charge
 _atom_site_pbe_ddec_spin_density
 _atom_site_pbe_ddec_sum_bond_order
 _atom_site_pbe_magmom
Co  Co0  1  0.00000496  0.00000648  0.00030134  1  0.740837  0.580543  -1.010387  3.312141  -0.917
H  H1  1  0.72653873  0.56981212  0.73850841  1  0.120999  0.093495  0.00016  1.04037  0.0
H  H2  1  0.33380357  0.19827630  0.45599578  1  0.112146  0.08251  -0.00112  1.038552  -0.002
H  H3  1  0.27328163  0.43015405  0.26142862  1  0.12106  0.093404  0.000165  1.040288  0.0
H  H4  1  0.66620344  0.80145193  0.54376834  1  0.112066  0.082596  -0.001119  1.0381  -0.002
H  H5  1  0.26696323  0.79592853  0.25907764  1  0.124015  0.103511  0.000165  1.017592  0.0
H  H6  1  0.68341166  0.79909364  0.20951652  1  0.117982  0.099694  -0.00113  1.01159  -0.002
H  H7  1  0.73286058  0.20400037  0.74087178  1  0.124065  0.103392  0.000163  1.017534  0.0
H  H8  1  0.31660036  0.20078952  0.79026545  1  0.117937  0.099387  -0.001131  1.011315  -0.002
C  C9  1  0.48649387  0.21874097  0.19812846  1  0.135875  0.233412  0.007632  4.343393  0.005
C  C10  1  0.51354713  0.78130636  0.80247381  1  0.135744  0.234412  0.007559  4.347769  0.005
C  C11  1  0.84975566  0.54071924  0.85669688  1  0.055361  0.044873  0.007594  3.897395  0.004
C  C12  1  0.18279796  0.10960851  0.47443893  1  0.048602  0.035454  -0.000293  3.94953  -0.001
C  C13  1  0.15027537  0.45935132  0.14309354  1  0.055054  0.045016  0.007539  3.897572  0.004
C  C14  1  0.81718033  0.89041040  0.52532308  1  0.048701  0.035196  -0.000369  3.949835  -0.002
C  C15  1  0.14758682  0.66456834  0.14177901  1  0.054806  0.043426  0.007021  3.895088  0.003
C  C16  1  0.82539364  0.88897639  0.33958465  1  0.051193  0.050826  -0.000426  3.943791  -0.002
C  C17  1  0.85244387  0.33537445  0.85802427  1  0.055277  0.044008  0.007027  3.895058  0.003
C  C18  1  0.17452534  0.11106943  0.66020164  1  0.05118  0.050564  -0.000491  3.945284  -0.002
S  S19  1  0.73503010  0.36067618  0.33463319  1  -0.167451  -0.302944  0.006638  2.364495  0.003
S  S20  1  0.26545255  0.63963516  0.66535608  1  -0.167299  -0.30302  0.006664  2.367447  0.003
N  N21  1  0.99724768  0.70855160  0.99829837  1  -0.308486  -0.126394  0.015343  3.629443  0.011
N  N22  1  0.00872171  0.99933906  0.31336191  1  -0.290686  -0.182277  -0.036986  3.497208  -0.061
N  N23  1  0.00269587  0.29145439  0.00144765  1  -0.308642  -0.12668  0.015344  3.630045  0.011
N  N24  1  0.99128060  0.00081838  0.68644827  1  -0.29042  -0.182876  -0.036813  3.495573  -0.06
N  N25  1  0.30181656  0.11557893  0.10068685  1  -0.425147  -0.465498  0.000625  3.548245  -0.001
N  N26  1  0.69807749  0.88431200  0.90027169  1  -0.424769  -0.466029  0.000626  3.549292  -0.001
