# generated using pymatgen
data_H6Pb2C3S2(O3F)2
_symmetry_space_group_name_H-M   'P 1'
_cell_length_a   4.61373693
_cell_length_b   8.85701901
_cell_length_c   12.41265946
_cell_angle_alpha   102.19376579
_cell_angle_beta   100.71800556
_cell_angle_gamma   90.03744230
_symmetry_Int_Tables_number   1
_chemical_formula_structural   H6Pb2C3S2(O3F)2
_chemical_formula_sum   'H12 Pb4 C6 S4 O12 F4'
_cell_volume   486.71605584
_cell_formula_units_Z   2
loop_
 _symmetry_equiv_pos_site_id
 _symmetry_equiv_pos_as_xyz
  1  'x, y, z'
loop_
 _atom_site_type_symbol
 _atom_site_label
 _atom_site_symmetry_multiplicity
 _atom_site_fract_x
 _atom_site_fract_y
 _atom_site_fract_z
 _atom_site_occupancy
 _atom_site_pbe_bader_spin_density
 _atom_site_pbe_cm5_charge
 _atom_site_pbe_ddec_charge
 _atom_site_pbe_ddec_spin_density
 _atom_site_pbe_ddec_sum_bond_order
 _atom_site_pbe_magmom
H  H0  1  0.76859378  0.17137114  0.10775963  1  0  0.11183  0.149496  0  0.977938  0
H  H1  1  0.66128892  0.32858941  0.89238822  1  0  0.111641  0.149283  0  0.978005  0
H  H2  1  0.23140321  0.82862974  0.89224009  1  0  0.111827  0.149489  0  0.977931  0
H  H3  1  0.33871468  0.67141147  0.10761276  1  0  0.111659  0.149298  0  0.977955  0
H  H4  1  0.77130109  0.37493935  0.11622638  1  0  0.111738  0.149982  0  0.985174  0
H  H5  1  0.65509024  0.12500684  0.88378796  1  0  0.111707  0.150171  0  0.985604  0
H  H6  1  0.22870252  0.62506153  0.88377380  1  0  0.111736  0.149995  0  0.985176  0
H  H7  1  0.34490896  0.87499404  0.11621271  1  0  0.111693  0.150149  0  0.985633  0
H  H8  1  0.18318201  0.35118033  0.00504550  1  0  0.097972  0.099462  0  0.976025  0
H  H9  1  0.17787287  0.14874429  0.99518782  1  0  0.097846  0.100005  0  0.974986  0
H  H10  1  0.81682151  0.64881939  0.99495530  1  0  0.097978  0.099485  0  0.975988  0
H  H11  1  0.82213074  0.85125659  0.00481236  1  0  0.097837  0.100008  0  0.974966  0
Pb  Pb12  1  0.68541126  0.09392554  0.39752899  1  0  0.64757  1.277839  0  1.881613  0
Pb  Pb13  1  0.28794955  0.40579795  0.60219474  1  0  0.647723  1.277578  0  1.881185  0
Pb  Pb14  1  0.31459226  0.90607418  0.60247101  1  0  0.647557  1.277818  0  1.881605  0
Pb  Pb15  1  0.71205405  0.59420293  0.39780624  1  0  0.647732  1.277609  0  1.881139  0
C  C16  1  0.90422114  0.27197456  0.10506443  1  0  -0.15151  -0.330043  0  3.835206  0
C  C17  1  0.79945682  0.22800227  0.89506330  1  0  -0.151557  -0.329653  0  3.834845  0
C  C18  1  0.09577815  0.72802748  0.89493561  1  0  -0.151504  -0.330029  0  3.83522  0
C  C19  1  0.20054467  0.77199977  0.10493691  1  0  -0.151555  -0.329648  0  3.834852  0
C  C20  1  0.03959834  0.24998236  0.00007197  1  0  -0.162366  -0.089004  0  3.942276  0
C  C21  1  0.96040297  0.75001736  0.99992948  1  0  -0.16235  -0.089006  0  3.942238  0
S  S22  1  0.18113607  0.29988717  0.22942434  1  0  0.526686  1.237311  0  6.064972  0
S  S23  1  0.95160367  0.20018935  0.77061723  1  0  0.526396  1.233693  0  6.066105  0
S  S24  1  0.81886322  0.70011486  0.77057570  1  0  0.526627  1.237126  0  6.065196  0
S  S25  1  0.04839103  0.79981037  0.22938215  1  0  0.526385  1.233735  0  6.066126  0
O  O26  1  0.35747628  0.16041475  0.21963967  1  0  -0.323436  -0.620051  0  2.265328  0
O  O27  1  0.13737057  0.33971461  0.78009437  1  0  -0.323012  -0.618711  0  2.26759  0
O  O28  1  0.64251603  0.83958266  0.78035919  1  0  -0.323455  -0.620015  0  2.265438  0
O  O29  1  0.86262844  0.66028396  0.21990433  1  0  -0.323012  -0.618698  0  2.267627  0
O  O30  1  0.35880469  0.43955514  0.23054579  1  0  -0.322423  -0.619894  0  2.278745  0
O  O31  1  0.12813609  0.06062203  0.76954599  1  0  -0.321994  -0.619072  0  2.280053  0
O  O32  1  0.64119212  0.56044343  0.76945276  1  0  -0.32242  -0.619875  0  2.278731  0
O  O33  1  0.87185649  0.93937885  0.23045261  1  0  -0.322022  -0.619117  0  2.279987  0
O  O34  1  0.02619271  0.32145409  0.32564946  1  0  -0.317243  -0.676293  0  2.318481  0
O  O35  1  0.69995906  0.17826565  0.67451671  1  0  -0.317495  -0.67477  0  2.318414  0
O  O36  1  0.97379537  0.67854563  0.67434945  1  0  -0.317184  -0.676177  0  2.318531  0
O  O37  1  0.30003783  0.82173407  0.32548524  1  0  -0.317459  -0.674792  0  2.318432  0
F  F38  1  0.71353260  0.37692040  0.50304628  1  0  -0.300088  -0.623776  0  1.068938  0
F  F39  1  0.21090032  0.12271277  0.49690179  1  0  -0.299994  -0.623559  0  1.068786  0
F  F40  1  0.28646898  0.62308279  0.49695491  1  0  -0.300074  -0.623785  0  1.068953  0
F  F41  1  0.78910964  0.87728464  0.50309589  1  0  -0.299988  -0.623562  0  1.068779  0
