# generated using pymatgen
data_CdH16C20(N3O2)2
_symmetry_space_group_name_H-M   'P 1'
_cell_length_a   7.72859237
_cell_length_b   10.09611403
_cell_length_c   12.44784270
_cell_angle_alpha   90.53964311
_cell_angle_beta   105.42358892
_cell_angle_gamma   93.04099376
_symmetry_Int_Tables_number   1
_chemical_formula_structural   CdH16C20(N3O2)2
_chemical_formula_sum   'Cd2 H32 C40 N12 O8'
_cell_volume   934.71179392
_cell_formula_units_Z   2
loop_
 _symmetry_equiv_pos_site_id
 _symmetry_equiv_pos_as_xyz
  1  'x, y, z'
loop_
 _atom_site_type_symbol
 _atom_site_label
 _atom_site_symmetry_multiplicity
 _atom_site_fract_x
 _atom_site_fract_y
 _atom_site_fract_z
 _atom_site_occupancy
 _atom_site_hle17_bader_spin_density
 _atom_site_hle17_ddec_charge
 _atom_site_hle17_ddec_spin_density
 _atom_site_hle17_ddec_sum_bond_order
 _atom_site_hle17_magmom
 _atom_site_hse06_10hf_bader_spin_density
 _atom_site_hse06_10hf_ddec_charge
 _atom_site_hse06_10hf_ddec_spin_density
 _atom_site_hse06_10hf_ddec_sum_bond_order
 _atom_site_hse06_10hf_magmom
 _atom_site_hse06_bader_spin_density
 _atom_site_hse06_ddec_charge
 _atom_site_hse06_ddec_spin_density
 _atom_site_hse06_ddec_sum_bond_order
 _atom_site_hse06_magmom
 _atom_site_pbe_bader_spin_density
 _atom_site_pbe_cm5_charge
 _atom_site_pbe_ddec_charge
 _atom_site_pbe_ddec_spin_density
 _atom_site_pbe_ddec_sum_bond_order
 _atom_site_pbe_magmom
Cd  Cd0  1  0.80698311  0.96462844  0.37226515  1  0  1.102145  0  1.743517  0  0  0.90569  0  2.19316  0  0  0.958455  0  2.147018  0  0  0.786811  0.868676  0  2.224083  0
Cd  Cd1  1  0.19301698  0.03537082  0.62773490  1  0  1.102153  0  1.743505  0  0  0.905695  0  2.193155  0  0  0.958459  0  2.147014  0  0  0.786812  0.868676  0  2.224074  0
H  H2  1  0.94662755  0.09003255  0.14333496  1  0  0.109448  0  0.972369  0  0  0.118911  0  1.033076  0  0  0.121481  0  1.031631  0  0  0.115176  0.11687  0  1.034571  0
H  H3  1  0.05337365  0.90996373  0.85666445  1  0  0.109392  0  0.972455  0  0  0.118912  0  1.033103  0  0  0.121453  0  1.031691  0  0  0.115175  0.116868  0  1.034601  0
H  H4  1  0.82114253  0.95965688  0.93410611  1  0  0.126494  0  0.995263  0  0  0.134417  0  1.060192  0  0  0.137597  0  1.058371  0  0  0.120057  0.132058  0  1.061746  0
H  H5  1  0.17885867  0.04033940  0.06589249  1  0  0.126496  0  0.995325  0  0  0.134427  0  1.060233  0  0  0.137607  0  1.058415  0  0  0.12005  0.132069  0  1.061787  0
H  H6  1  0.50280287  0.83189697  0.14691845  1  0  0.102274  0  0.942716  0  0  0.110547  0  1.008236  0  0  0.113885  0  1.003887  0  0  0.134948  0.108074  0  1.011285  0
H  H7  1  0.49719207  0.16810526  0.85307997  1  0  0.102266  0  0.942717  0  0  0.110565  0  1.008216  0  0  0.113905  0  1.003864  0  0  0.134945  0.10809  0  1.011265  0
H  H8  1  0.61031138  0.77537273  0.86422556  1  0  0.090413  0  0.909057  0  0  0.109191  0  0.965639  0  0  0.109386  0  0.965964  0  0  0.117234  0.108813  0  0.965615  0
H  H9  1  0.38968602  0.22462652  0.13577325  1  0  0.0904  0  0.909077  0  0  0.109178  0  0.965659  0  0  0.109374  0  0.965983  0  0  0.117232  0.1088  0  0.965635  0
H  H10  1  0.40314372  0.80757980  0.89108437  1  0  0.090299  0  0.939224  0  0  0.103485  0  1.004153  0  0  0.103895  0  1.004527  0  0  0.111952  0.102922  0  1.004018  0
H  H11  1  0.59685629  0.19241847  0.10891566  1  0  0.090275  0  0.939142  0  0  0.103448  0  1.004105  0  0  0.103858  0  1.00448  0  0  0.111919  0.102885  0  1.003973  0
H  H12  1  0.30579113  0.57755025  0.82257685  1  0  0.087685  0  0.963926  0  0  0.100229  0  1.023582  0  0  0.102299  0  1.023598  0  0  0.09703  0.098696  0  1.023691  0
H  H13  1  0.69420903  0.42245000  0.17742482  1  0  0.087666  0  0.963917  0  0  0.100198  0  1.023589  0  0  0.102267  0  1.023606  0  0  0.09702  0.098669  0  1.023696  0
H  H14  1  0.73047509  0.65350165  0.12399237  1  0  0.088827  0  0.983291  0  0  0.096031  0  1.051645  0  0  0.098195  0  1.0518  0  0  0.097208  0.094459  0  1.051599  0
H  H15  1  0.26952381  0.34649959  0.87601071  1  0  0.088784  0  0.983384  0  0  0.096024  0  1.051703  0  0  0.098188  0  1.051857  0  0  0.097172  0.09445  0  1.051656  0
H  H16  1  0.77135746  0.61759258  0.43177949  1  0  0.094768  0  0.997892  0  0  0.098154  0  1.070371  0  0  0.100844  0  1.068716  0  0  0.107124  0.096182  0  1.071615  0
H  H17  1  0.22864405  0.38240767  0.56821999  1  0  0.094723  0  0.997891  0  0  0.098089  0  1.070397  0  0  0.100778  0  1.068744  0  0  0.1071  0.096116  0  1.071642  0
H  H18  1  0.10220733  0.82698722  0.26139591  1  0  0.110895  0  1.003127  0  0  0.116573  0  1.071501  0  0  0.120408  0  1.067454  0  0  0.130226  0.113773  0  1.074204  0
H  H19  1  0.89779425  0.17301402  0.73860601  1  0  0.110893  0  1.003098  0  0  0.116537  0  1.071519  0  0  0.120374  0  1.067471  0  0  0.130232  0.113738  0  1.07422  0
H  H20  1  0.97704634  0.43693016  0.35148100  1  0  0.125805  0  0.989482  0  0  0.130819  0  1.059129  0  0  0.134088  0  1.057184  0  0  0.119195  0.128822  0  1.060151  0
H  H21  1  0.02295524  0.56307108  0.64851851  1  0  0.125787  0  0.989479  0  0  0.130826  0  1.059106  0  0  0.134094  0  1.057164  0  0  0.119196  0.128828  0  1.06013  0
H  H22  1  0.25234593  0.47709221  0.27438868  1  0  0.089529  0  0.934683  0  0  0.100503  0  1.002633  0  0  0.101707  0  1.001589  0  0  0.112439  0.099593  0  1.003395  0
H  H23  1  0.74765699  0.52290904  0.72561185  1  0  0.089512  0  0.934728  0  0  0.100492  0  1.002684  0  0  0.101691  0  1.001639  0  0  0.112434  0.099589  0  1.003435  0
H  H24  1  0.30477575  0.64158080  0.23686826  1  0  0.097225  0  0.91206  0  0  0.111525  0  0.973459  0  0  0.11351  0  0.971319  0  0  0.116383  0.109976  0  0.975051  0
H  H25  1  0.69522457  0.35842143  0.76313024  1  0  0.097262  0  0.912076  0  0  0.111562  0  0.97347  0  0  0.113538  0  0.97134  0  0  0.116387  0.109996  0  0.975077  0
H  H26  1  0.11768924  0.73197827  0.05460066  1  0  0.090161  0  0.950241  0  0  0.101843  0  1.012359  0  0  0.104297  0  1.011842  0  0  0.099332  0.099742  0  1.01351  0
H  H27  1  0.88230817  0.26802098  0.94539975  1  0  0.090154  0  0.950212  0  0  0.101825  0  1.012338  0  0  0.104287  0  1.011813  0  0  0.099321  0.099724  0  1.013489  0
H  H28  1  0.05217649  0.32426138  0.14175608  1  0  0.098778  0  0.977063  0  0  0.108244  0  1.041762  0  0  0.111432  0  1.039675  0  0  0.097727  0.105731  0  1.043701  0
H  H29  1  0.94782383  0.67574086  0.85824242  1  0  0.098759  0  0.977081  0  0  0.108225  0  1.041786  0  0  0.111414  0  1.039697  0  0  0.09772  0.105723  0  1.043713  0
H  H30  1  0.37370309  0.54984897  0.49782404  1  0  0.080825  0  0.975147  0  0  0.082814  0  1.049284  0  0  0.086183  0  1.046646  0  0  0.115224  0.080532  0  1.050974  0
H  H31  1  0.62629439  0.45015127  0.50217558  1  0  0.080861  0  0.975097  0  0  0.082825  0  1.049277  0  0  0.086195  0  1.046635  0  0  0.115221  0.080542  0  1.050965  0
H  H32  1  0.15766390  0.71552887  0.53058642  1  0  0.08998  0  0.968716  0  0  0.094521  0  1.03802  0  0  0.097256  0  1.036992  0  0  0.118788  0.092554  0  1.038859  0
H  H33  1  0.84233492  0.28447138  0.46941343  1  0  0.089968  0  0.968739  0  0  0.094509  0  1.038035  0  0  0.097243  0  1.037006  0  0  0.118783  0.092541  0  1.038875  0
C  C34  1  0.83622664  0.01722977  0.11210032  1  0  -0.002321  0  3.760539  0  0  -0.035862  0  4.028804  0  0  -0.033847  0  4.048449  0  0  -0.010057  -0.03715  0  4.015595  0
C  C35  1  0.16377211  0.98276949  0.88789870  1  0  -0.002151  0  3.760546  0  0  -0.035735  0  4.028786  0  0  -0.033697  0  4.048446  0  0  -0.009997  -0.037021  0  4.015573  0
C  C36  1  0.78026860  0.95119561  0.01073135  1  0  -0.075712  0  3.659707  0  0  -0.116867  0  3.918387  0  0  -0.11584  0  3.937478  0  0  -0.003528  -0.117662  0  3.906174  0
C  C37  1  0.21972888  0.04880464  0.98926667  1  0  -0.075781  0  3.659804  0  0  -0.116952  0  3.918499  0  0  -0.115925  0  3.937586  0  0  -0.00356  -0.117751  0  3.906288  0
C  C38  1  0.60712314  0.88500100  0.11834908  1  0  0.160899  0  3.665499  0  0  0.099017  0  3.934831  0  0  0.113313  0  3.947037  0  0  0.136899  0.090114  0  3.926029  0
C  C39  1  0.39287426  0.11499826  0.88164973  1  0  0.160919  0  3.665546  0  0  0.098989  0  3.934905  0  0  0.113285  0  3.947113  0  0  0.136882  0.090091  0  3.926089  0
C  C40  1  0.53752798  0.77265475  0.92910420  1  0  -0.034186  0  3.638719  0  0  -0.10084  0  3.887599  0  0  -0.095999  0  3.89806  0  0  -0.043631  -0.103873  0  3.880451  0
C  C41  1  0.46247077  0.22734450  0.07089483  1  0  -0.034112  0  3.638709  0  0  -0.100759  0  3.887585  0  0  -0.09592  0  3.898047  0  0  -0.043594  -0.103791  0  3.880437  0
C  C42  1  0.52080858  0.63266083  0.96889628  1  0  0.058179  0  3.759851  0  0  0.076891  0  3.999881  0  0  0.075669  0  4.02463  0  0  -0.017137  0.077913  0  3.982894  0
C  C43  1  0.47919419  0.36733843  0.03110421  1  0  0.058187  0  3.759897  0  0  0.076881  0  3.999961  0  0  0.075661  0  4.024712  0  0  -0.017124  0.077904  0  3.982973  0
C  C44  1  0.39262617  0.54378337  0.90042591  1  0  -0.114121  0  3.768374  0  0  -0.130466  0  4.009728  0  0  -0.133445  0  4.032929  0  0  -0.095158  -0.128438  0  3.993976  0
C  C45  1  0.60737534  0.45621688  0.09957439  1  0  -0.114087  0  3.768433  0  0  -0.130416  0  4.009785  0  0  -0.133396  0  4.032988  0  0  -0.095136  -0.128392  0  3.994037  0
C  C46  1  0.62821974  0.58734148  0.06915587  1  0  -0.11508  0  3.773475  0  0  -0.136386  0  4.024044  0  0  -0.13915  0  4.047497  0  0  -0.096239  -0.13435  0  4.007936  0
C  C47  1  0.37177774  0.41265877  0.93084617  1  0  -0.11501  0  3.773461  0  0  -0.13635  0  4.024047  0  0  -0.139114  0  4.047497  0  0  -0.096182  -0.134313  0  4.007933  0
C  C48  1  0.86852810  0.63349581  0.38363760  1  0  -0.013265  0  3.76799  0  0  -0.042344  0  4.03027  0  0  -0.041227  0  4.051491  0  0  -0.012472  -0.042908  0  4.015768  0
C  C49  1  0.13147348  0.36650543  0.61636352  1  0  -0.013271  0  3.767969  0  0  -0.042326  0  4.030267  0  0  -0.04121  0  4.051489  0  0  -0.012459  -0.042891  0  4.015768  0
C  C50  1  0.03564229  0.74670594  0.29631725  1  0  0.148557  0  3.639138  0  0  0.08617  0  3.908522  0  0  0.099922  0  3.920703  0  0  0.132954  0.077513  0  3.899601  0
C  C51  1  0.96436071  0.25329630  0.70368330  1  0  0.148602  0  3.639075  0  0  0.0862  0  3.908475  0  0  0.099951  0  3.920655  0  0  0.132972  0.077542  0  3.899551  0
C  C52  1  0.96889937  0.54384363  0.34613796  1  0  -0.082459  0  3.669992  0  0  -0.118373  0  3.924712  0  0  -0.118006  0  3.945085  0  0  -0.003196  -0.118833  0  3.910995  0
C  C53  1  0.03110356  0.45615762  0.65386177  1  0  -0.082431  0  3.670018  0  0  -0.1184  0  3.924708  0  0  -0.118034  0  3.94508  0  0  -0.003219  -0.118864  0  3.910995  0
C  C54  1  0.19565806  0.56519647  0.23065439  1  0  -0.042513  0  3.627926  0  0  -0.109115  0  3.876904  0  0  -0.104193  0  3.88608  0  0  -0.045181  -0.112198  0  3.870505  0
C  C55  1  0.80434353  0.43480477  0.76934592  1  0  -0.04251  0  3.628006  0  0  -0.109154  0  3.877007  0  0  -0.104213  0  3.886154  0  0  -0.045179  -0.112236  0  3.870633  0
C  C56  1  0.09791479  0.53094785  0.11057927  1  0  0.066982  0  3.745957  0  0  0.087161  0  3.983961  0  0  0.086005  0  4.008872  0  0  -0.013145  0.087887  0  3.966841  0
C  C57  1  0.90208537  0.46905239  0.88942160  1  0  0.066887  0  3.746006  0  0  0.087038  0  3.984061  0  0  0.085874  0  4.008976  0  0  -0.013179  0.08777  0  3.96694  0
C  C58  1  0.06617673  0.62996479  0.03084271  1  0  -0.107308  0  3.745958  0  0  -0.127994  0  3.995939  0  0  -0.130366  0  4.01801  0  0  -0.090702  -0.126294  0  3.98148  0
C  C59  1  0.93382478  0.37003546  0.96915677  1  0  -0.107231  0  3.745901  0  0  -0.127887  0  3.995883  0  0  -0.130264  0  4.017953  0  0  -0.090648  -0.126186  0  3.981419  0
C  C60  1  0.03113219  0.40071780  0.07885187  1  0  -0.112732  0  3.737249  0  0  -0.132123  0  3.984671  0  0  -0.134809  0  4.006262  0  0  -0.092533  -0.130034  0  3.970144  0
C  C61  1  0.96886805  0.59928344  0.92114742  1  0  -0.112652  0  3.737222  0  0  -0.13203  0  3.984655  0  0  -0.134713  0  4.006241  0  0  -0.092506  -0.12995  0  3.970118  0
C  C62  1  0.42201724  0.64861263  0.53330869  1  0  0.075751  0  3.681659  0  0  0.052854  0  3.942229  0  0  0.055305  0  3.956124  0  0  0.050536  0.050727  0  3.93343  0
C  C63  1  0.57798158  0.35138762  0.46669036  1  0  0.075748  0  3.681597  0  0  0.052865  0  3.94215  0  0  0.055309  0  3.956057  0  0  0.050557  0.050739  0  3.933349  0
C  C64  1  0.30208842  0.73893524  0.55117117  1  0  0.098798  0  3.668023  0  0  0.065193  0  3.925213  0  0  0.070496  0  3.939806  0  0  0.054296  0.061253  0  3.915842  0
C  C65  1  0.69791167  0.26106401  0.44883049  1  0  0.098773  0  3.66808  0  0  0.065177  0  3.925257  0  0  0.070481  0  3.93985  0  0  0.054294  0.061239  0  3.915883  0
C  C66  1  0.54001871  0.89059277  0.62381893  1  0  0.059786  0  3.678319  0  0  0.054665  0  3.920964  0  0  0.055657  0  3.937227  0  0  0.123331  0.053495  0  3.910393  0
C  C67  1  0.45998265  0.10940550  0.37618212  1  0  0.05984  0  3.678389  0  0  0.054686  0  3.921007  0  0  0.055678  0  3.937269  0  0  0.123303  0.053512  0  3.91044  0
C  C68  1  0.65952385  0.79944731  0.60207873  1  0  0.069803  0  3.671646  0  0  0.071889  0  3.923104  0  0  0.07211  0  3.936146  0  0  0.131315  0.071158  0  3.915138  0
C  C69  1  0.34047624  0.20055195  0.39792051  1  0  0.069561  0  3.671796  0  0  0.071768  0  3.923086  0  0  0.071989  0  3.936127  0  0  0.131271  0.071037  0  3.91512  0
C  C70  1  0.86000429  0.83417387  0.62572653  1  0  0.645568  0  3.921887  0  0  0.585219  0  4.232571  0  0  0.620522  0  4.222085  0  0  0.210677  0.561386  0  4.239146  0
C  C71  1  0.13999437  0.16582440  0.37427167  1  0  0.645564  0  3.921849  0  0  0.5852  0  4.232514  0  0  0.620502  0  4.222029  0  0  0.210686  0.561369  0  4.239087  0
C  C72  1  0.60273802  0.02223375  0.68558995  1  0  0.611481  0  3.972369  0  0  0.558406  0  4.281754  0  0  0.591607  0  4.27432  0  0  0.194579  0.535957  0  4.285794  0
C  C73  1  0.39726482  0.97776650  0.31440976  1  0  0.61148  0  3.972348  0  0  0.558405  0  4.281747  0  0  0.591606  0  4.274314  0  0  0.194567  0.535959  0  4.285787  0
N  N74  1  0.72753776  0.97482219  0.17860236  1  0  -0.410932  0  3.260146  0  0  -0.338022  0  3.546073  0  0  -0.359124  0  3.563712  0  0  -0.367795  -0.32344  0  3.533082  0
N  N75  1  0.27246106  0.02517806  0.82139669  1  0  -0.410957  0  3.260085  0  0  -0.338049  0  3.546047  0  0  -0.35915  0  3.563679  0  0  -0.367798  -0.323466  0  3.533049  0
N  N76  1  0.63553323  0.86731863  0.01628226  1  0  -0.055209  0  3.568976  0  0  0.039442  0  3.785326  0  0  0.024778  0  3.811223  0  0  -0.243136  0.048927  0  3.768044  0
N  N77  1  0.36446685  0.13268063  0.98371698  1  0  -0.05529  0  3.569089  0  0  0.039387  0  3.785433  0  0  0.024721  0  3.811334  0  0  -0.243151  0.048871  0  3.768151  0
N  N78  1  0.91161797  0.75931709  0.35205779  1  0  -0.397387  0  3.25978  0  0  -0.318545  0  3.538808  0  0  -0.340365  0  3.557145  0  0  -0.365871  -0.303791  0  3.52558  0
N  N79  1  0.08838503  0.24068515  0.64794437  1  0  -0.397345  0  3.259757  0  0  -0.318509  0  3.538787  0  0  -0.340328  0  3.557129  0  0  -0.365868  -0.303754  0  3.525558  0
N  N80  1  0.07389260  0.61753933  0.29158128  1  0  -0.058073  0  3.565513  0  0  0.036836  0  3.783066  0  0  0.021512  0  3.810135  0  0  -0.242068  0.046971  0  3.764657  0
N  N81  1  0.92611040  0.38246290  0.70841927  1  0  -0.058122  0  3.565508  0  0  0.03689  0  3.782982  0  0  0.021563  0  3.810043  0  0  -0.242075  0.047031  0  3.76457  0
N  N82  1  0.59968674  0.67837857  0.55810266  1  0  -0.267821  0  3.068785  0  0  -0.236963  0  3.332545  0  0  -0.242436  0  3.344192  0  0  -0.289829  -0.2331  0  3.324811  0
N  N83  1  0.40031193  0.32161969  0.44189635  1  0  -0.267736  0  3.06877  0  0  -0.236918  0  3.332483  0  0  -0.242388  0  3.34413  0  0  -0.289837  -0.233054  0  3.324747  0
N  N84  1  0.36272904  0.85917087  0.59602993  1  0  -0.28766  0  3.251325  0  0  -0.221532  0  3.515396  0  0  -0.234566  0  3.529657  0  0  -0.304776  -0.212494  0  3.50582  0
N  N85  1  0.63726978  0.14082937  0.40397073  1  0  -0.28767  0  3.251334  0  0  -0.221556  0  3.515429  0  0  -0.234585  0  3.529687  0  0  -0.30479  -0.212517  0  3.505854  0
O  O86  1  0.90225838  0.93493337  0.57238861  1  0  -0.670948  0  2.076305  0  0  -0.587164  0  2.349749  0  0  -0.619873  0  2.336917  0  0  -0.334125  -0.564424  0  2.357524  0
O  O87  1  0.09774305  0.06506589  0.42761166  1  0  -0.670871  0  2.076228  0  0  -0.587129  0  2.34973  0  0  -0.619833  0  2.336886  0  0  -0.3341  -0.564388  0  2.357504  0
O  O88  1  0.96739300  0.76457250  0.69047089  1  0  -0.583955  0  1.925947  0  0  -0.540967  0  2.156405  0  0  -0.56311  0  2.146062  0  0  -0.305868  -0.525176  0  2.162693  0
O  O89  1  0.03260574  0.23542675  0.30952894  1  0  -0.583909  0  1.925912  0  0  -0.540922  0  2.156367  0  0  -0.563067  0  2.146026  0  0  -0.305861  -0.525132  0  2.162654  0
O  O90  1  0.50207896  0.11908950  0.65810161  1  0  -0.636939  0  1.947532  0  0  -0.582942  0  2.194941  0  0  -0.610428  0  2.186756  0  0  -0.339895  -0.563492  0  2.199733  0
O  O91  1  0.49792247  0.88090976  0.34189545  1  0  -0.636926  0  1.947518  0  0  -0.582937  0  2.194958  0  0  -0.610425  0  2.186773  0  0  -0.339878  -0.563486  0  2.199754  0
O  O92  1  0.74739111  0.02133236  0.76160322  1  0  -0.602795  0  1.965173  0  0  -0.560755  0  2.20254  0  0  -0.585047  0  2.195207  0  0  -0.31511  -0.543138  0  2.206594  0
O  O93  1  0.25260779  0.97866888  0.23839745  1  0  -0.602787  0  1.965143  0  0  -0.560773  0  2.202519  0  0  -0.585066  0  2.195191  0  0  -0.315101  -0.543153  0  2.206572  0
