# generated using pymatgen
data_CaH10C8S2N2O9
_symmetry_space_group_name_H-M   'P 1'
_cell_length_a   7.01536989
_cell_length_b   12.91854796
_cell_length_c   16.39730000
_cell_angle_alpha   109.27165642
_cell_angle_beta   90.00000000
_cell_angle_gamma   90.00000000
_symmetry_Int_Tables_number   1
_chemical_formula_structural   CaH10C8S2N2O9
_chemical_formula_sum   'Ca4 H40 C32 S8 N8 O36'
_cell_volume   1402.78852951
_cell_formula_units_Z   4
loop_
 _symmetry_equiv_pos_site_id
 _symmetry_equiv_pos_as_xyz
  1  'x, y, z'
loop_
 _atom_site_type_symbol
 _atom_site_label
 _atom_site_symmetry_multiplicity
 _atom_site_fract_x
 _atom_site_fract_y
 _atom_site_fract_z
 _atom_site_occupancy
 _atom_site_hle17_bader_spin_density
 _atom_site_hle17_ddec_charge
 _atom_site_hle17_ddec_spin_density
 _atom_site_hle17_ddec_sum_bond_order
 _atom_site_hle17_magmom
 _atom_site_hse06_10hf_bader_spin_density
 _atom_site_hse06_10hf_ddec_charge
 _atom_site_hse06_10hf_ddec_spin_density
 _atom_site_hse06_10hf_ddec_sum_bond_order
 _atom_site_hse06_10hf_magmom
 _atom_site_hse06_bader_spin_density
 _atom_site_hse06_ddec_charge
 _atom_site_hse06_ddec_spin_density
 _atom_site_hse06_ddec_sum_bond_order
 _atom_site_hse06_magmom
 _atom_site_pbe_bader_charge
 _atom_site_pbe_bader_spin_density
 _atom_site_pbe_cm5_charge
 _atom_site_pbe_ddec_charge
 _atom_site_pbe_ddec_spin_density
 _atom_site_pbe_ddec_sum_bond_order
 _atom_site_pbe_magmom
Ca  Ca0  1  0.22364608  0.47825322  0.27502848  1  0  1.567655  0  1.106183  0  0  1.436034  0  1.453576  0  0  1.479551  0  1.409032  0  1.645813  0  0.923033  1.403295  0  1.485246  0
Ca  Ca1  1  0.72364966  0.52175181  0.22497246  1  0  1.567705  0  1.106075  0  0  1.436056  0  1.453522  0  0  1.479573  0  1.408978  0  1.645756  0  0.923006  1.403319  0  1.485193  0
Ca  Ca2  1  0.77635536  0.52174771  0.72497201  1  0  1.56766  0  1.106151  0  0  1.436059  0  1.453518  0  0  1.479575  0  1.408971  0  1.645786  0  0.923023  1.403319  0  1.48519  0
Ca  Ca3  1  0.27635464  0.47824748  0.77502699  1  0  1.567691  0  1.106082  0  0  1.436069  0  1.45349  0  0  1.479586  0  1.408944  0  1.645778  0  0.923028  1.403332  0  1.485159  0
H  H4  1  0.70524720  0.18503034  0.10980955  1  0  0.163224  0  0.943938  0  0  0.171738  0  1.002468  0  0  0.176471  0  1.000898  0  0.143048  0  0.117643  0.168417  0  1.0037  0
H  H5  1  0.20523936  0.81497634  0.39018999  1  0  0.163166  0  0.943929  0  0  0.17168  0  1.002468  0  0  0.176411  0  1.000898  0  0.143105  0  0.117599  0.168359  0  1.003699  0
H  H6  1  0.29474711  0.81496813  0.89018664  1  0  0.163226  0  0.943924  0  0  0.171759  0  1.002422  0  0  0.17649  0  1.000849  0  0.143001  0  0.117639  0.168438  0  1.003655  0
H  H7  1  0.79475923  0.18502624  0.60980544  1  0  0.163197  0  0.943873  0  0  0.171738  0  1.002368  0  0  0.176473  0  1.000797  0  0.143033  0  0.117622  0.168418  0  1.003599  0
H  H8  1  0.75580619  0.99148081  0.08971358  1  0  0.143995  0  0.932748  0  0  0.164048  0  0.989545  0  0  0.166444  0  0.988457  0  0.077634  0  0.10392  0.162313  0  0.990341  0
H  H9  1  0.25580262  0.00852259  0.41028572  1  0  0.144024  0  0.932724  0  0  0.164089  0  0.989524  0  0  0.166488  0  0.988433  0  0.077788  0  0.103926  0.162356  0  0.990313  0
H  H10  1  0.24418812  0.00851767  0.91028505  1  0  0.14401  0  0.932687  0  0  0.164051  0  0.989511  0  0  0.166446  0  0.988424  0  0.0777  0  0.103934  0.162316  0  0.990307  0
H  H11  1  0.74418742  0.99147917  0.58971498  1  0  0.144019  0  0.93269  0  0  0.16406  0  0.989511  0  0  0.166459  0  0.988419  0  0.077698  0  0.103915  0.162325  0  0.990308  0
H  H12  1  0.54167778  0.91443800  0.05642578  1  0  0.134655  0  0.933602  0  0  0.153344  0  0.997379  0  0  0.155377  0  0.997124  0  0.057943  0  0.10061  0.151853  0  0.997611  0
H  H13  1  0.04167706  0.08556868  0.44357559  1  0  0.1347  0  0.933503  0  0  0.153361  0  0.997351  0  0  0.155395  0  0.997096  0  0.058244  0  0.100598  0.151871  0  0.997582  0
H  H14  1  0.45831653  0.08556048  0.94357346  1  0  0.134707  0  0.933634  0  0  0.153383  0  0.997422  0  0  0.155417  0  0.997166  0  0.057995  0  0.100618  0.151892  0  0.997654  0
H  H15  1  0.95831440  0.91443390  0.55642654  1  0  0.134667  0  0.933679  0  0  0.153362  0  0.99744  0  0  0.155395  0  0.997187  0  0.058348  0  0.100603  0.151872  0  0.99767  0
H  H16  1  0.62135854  0.94426583  0.16386895  1  0  0.156344  0  0.927925  0  0  0.172033  0  0.992232  0  0  0.175374  0  0.989913  0  0.112128  0  0.105949  0.169601  0  0.993926  0
H  H17  1  0.12135640  0.05573838  0.33612995  1  0  0.156252  0  0.927953  0  0  0.172004  0  0.992197  0  0  0.175347  0  0.989879  0  0.111887  0  0.105958  0.169572  0  0.993891  0
H  H18  1  0.37863720  0.05573510  0.83613093  1  0  0.156258  0  0.92802  0  0  0.171997  0  0.992268  0  0  0.175338  0  0.989948  0  0.112074  0  0.105942  0.169565  0  0.993962  0
H  H19  1  0.87863507  0.94426337  0.66387075  1  0  0.156325  0  0.927989  0  0  0.172047  0  0.99225  0  0  0.17539  0  0.989928  0  0.111987  0  0.105971  0.169615  0  0.993944  0
H  H20  1  0.71950305  0.32872288  0.52843315  1  0  0.169411  0  0.94669  0  0  0.176349  0  1.007651  0  0  0.181143  0  1.005448  0  0.111246  0  0.122493  0.172954  0  1.009424  0
H  H21  1  0.21950518  0.67127478  0.97156343  1  0  0.169357  0  0.946677  0  0  0.176308  0  1.007613  0  0  0.18111  0  1.005396  0  0.111224  0  0.122463  0.172901  0  1.009401  0
H  H22  1  0.28049982  0.67127806  0.47156734  1  0  0.169435  0  0.94664  0  0  0.17639  0  1.007575  0  0  0.181183  0  1.005371  0  0.11129  0  0.122511  0.172995  0  1.009348  0
H  H23  1  0.78049912  0.32872288  0.02843315  1  0  0.169388  0  0.946674  0  0  0.176339  0  1.007624  0  0  0.181133  0  1.00542  0  0.111273  0  0.122483  0.172944  0  1.009396  0
H  H24  1  0.77104986  0.17467990  0.39250112  1  0  0.148782  0  0.942401  0  0  0.169002  0  0.998488  0  0  0.170947  0  0.998082  0  0.092188  0  0.106091  0.167562  0  0.998847  0
H  H25  1  0.27105912  0.82531940  0.10749650  1  0  0.148783  0  0.942368  0  0  0.168999  0  0.998448  0  0  0.170945  0  0.998042  0  0.092588  0  0.106096  0.167559  0  0.99881  0
H  H26  1  0.22895443  0.82532350  0.60749879  1  0  0.148704  0  0.942491  0  0  0.168954  0  0.998561  0  0  0.170901  0  0.998155  0  0.092233  0  0.106064  0.167514  0  0.99892  0
H  H27  1  0.72895230  0.17467826  0.89250252  1  0  0.148731  0  0.942439  0  0  0.168945  0  0.998531  0  0  0.17089  0  0.998125  0  0.092203  0  0.106098  0.167506  0  0.998886  0
H  H28  1  0.61736873  0.18260551  0.30794529  1  0  0.132317  0  0.938279  0  0  0.151856  0  0.999089  0  0  0.153348  0  0.999175  0  0.057008  0  0.099727  0.150741  0  0.999081  0
H  H29  1  0.11737799  0.81739379  0.19205294  1  0  0.132291  0  0.93827  0  0  0.151823  0  0.999078  0  0  0.153314  0  0.999163  0  0.057068  0  0.099713  0.150714  0  0.999065  0
H  H30  1  0.38263271  0.81739707  0.69205501  1  0  0.132242  0  0.93828  0  0  0.151798  0  0.999087  0  0  0.153289  0  0.999173  0  0.057014  0  0.09972  0.15068  0  0.999082  0
H  H31  1  0.88263058  0.18260387  0.80794608  1  0  0.132244  0  0.938308  0  0  0.151778  0  0.999133  0  0  0.153269  0  0.999218  0  0.057043  0  0.099699  0.150665  0  0.999124  0
H  H32  1  0.56298956  0.09037899  0.36393443  1  0  0.145633  0  0.923993  0  0  0.163112  0  0.985784  0  0  0.165836  0  0.983727  0  0.058169  0  0.106704  0.161073  0  0.987338  0
H  H33  1  0.06299597  0.90962031  0.13606320  1  0  0.145531  0  0.92405  0  0  0.163017  0  0.985811  0  0  0.165741  0  0.983754  0  0.058215  0  0.106659  0.160977  0  0.987367  0
H  H34  1  0.43701616  0.90962441  0.63606548  1  0  0.145538  0  0.924009  0  0  0.16305  0  0.985785  0  0  0.165777  0  0.983724  0  0.058236  0  0.106677  0.161008  0  0.987343  0
H  H35  1  0.93701260  0.09037735  0.86393583  1  0  0.145544  0  0.924054  0  0  0.16305  0  0.985812  0  0  0.165777  0  0.983752  0  0.058255  0  0.106688  0.16101  0  0.98737  0
H  H36  1  0.38747351  0.65677251  0.19183422  1  0  0.449597  0  0.806136  0  0  0.424673  0  0.869762  0  0  0.433275  0  0.858074  0  0.652061  0  0.331905  0.418515  0  0.876555  0
H  H37  1  0.88747423  0.34322924  0.30816709  1  0  0.449631  0  0.806079  0  0  0.424689  0  0.869745  0  0  0.433291  0  0.858064  0  0.652075  0  0.331903  0.418528  0  0.876545  0
H  H38  1  0.61252936  0.34322842  0.80816809  1  0  0.449604  0  0.806057  0  0  0.42465  0  0.86976  0  0  0.433252  0  0.858113  0  0.651965  0  0.331874  0.418489  0  0.876562  0
H  H39  1  0.11252864  0.65677005  0.69183297  1  0  0.449508  0  0.806156  0  0  0.42456  0  0.869846  0  0  0.433162  0  0.858231  0  0.652088  0  0.331862  0.418399  0  0.876647  0
H  H40  1  0.35168067  0.53354141  0.13216375  1  0  0.421429  0  0.877802  0  0  0.385449  0  0.954404  0  0  0.396487  0  0.9384  0  0.632182  0  0.308791  0.377641  0  0.965708  0
H  H41  1  0.85167854  0.46645953  0.36783735  1  0  0.421412  0  0.877813  0  0  0.38543  0  0.95443  0  0  0.396469  0  0.938425  0  0.632164  0  0.308785  0.377622  0  0.965733  0
H  H42  1  0.64832219  0.46645789  0.86783692  1  0  0.421347  0  0.877928  0  0  0.385366  0  0.954525  0  0  0.396408  0  0.938517  0  0.63218  0  0.308736  0.377558  0  0.965829  0
H  H43  1  0.14832147  0.53354059  0.63216354  1  0  0.42137  0  0.877879  0  0  0.385385  0  0.954496  0  0  0.396425  0  0.938491  0  0.632179  0  0.308768  0.377577  0  0.965801  0
C  C44  1  0.50068636  0.08040494  0.13634228  1  0  0.44052  0  3.701327  0  0  0.425134  0  3.975306  0  0  0.445767  0  3.985296  0  0.417384  0  0.114672  0.411169  0  3.968314  0
C  C45  1  0.00068136  0.91960174  0.36365665  1  0  0.440655  0  3.701119  0  0  0.42528  0  3.975119  0  0  0.445916  0  3.985105  0  0.417486  0  0.114736  0.411313  0  3.96813  0
C  C46  1  0.49930653  0.91959436  0.86365351  1  0  0.440459  0  3.701403  0  0  0.425102  0  3.975355  0  0  0.445729  0  3.985351  0  0.417407  0  0.114652  0.411137  0  3.968362  0
C  C47  1  0.99931153  0.08040002  0.63634527  1  0  0.440704  0  3.701229  0  0  0.425303  0  3.975245  0  0  0.445933  0  3.985236  0  0.417355  0  0.114712  0.411336  0  3.968256  0
C  C48  1  0.56233386  0.17890470  0.13348918  1  0  -0.434095  0  3.681853  0  0  -0.458466  0  3.944041  0  0  -0.475804  0  3.955245  0  0.011941  0  -0.127326  -0.44712  0  3.936678  0
C  C49  1  0.06233028  0.82110197  0.36651036  1  0  -0.434058  0  3.68159  0  0  -0.458475  0  3.943802  0  0  -0.47581  0  3.955007  0  0.011874  0  -0.12733  -0.447132  0  3.936436  0
C  C50  1  0.43766331  0.82109623  0.86651131  1  0  -0.43401  0  3.68179  0  0  -0.458404  0  3.943961  0  0  -0.475731  0  3.955165  0  0.011989  0  -0.127277  -0.447058  0  3.936596  0
C  C51  1  0.93766688  0.17889814  0.63348869  1  0  -0.434101  0  3.681595  0  0  -0.458525  0  3.943791  0  0  -0.475861  0  3.955  0  0.012024  0  -0.127335  -0.44718  0  3.936429  0
C  C52  1  0.61241960  0.97729672  0.11017138  1  0  -0.395359  0  3.673669  0  0  -0.476602  0  3.912904  0  0  -0.481862  0  3.91732  0  -0.032938  0  -0.237303  -0.472682  0  3.909742  0
C  C53  1  0.11241745  0.02270914  0.38982855  1  0  -0.395322  0  3.67344  0  0  -0.476617  0  3.912678  0  0  -0.481875  0  3.917083  0  -0.033192  0  -0.237249  -0.472696  0  3.909515  0
C  C54  1  0.38757472  0.02270340  0.88982767  1  0  -0.395339  0  3.6737  0  0  -0.476611  0  3.912894  0  0  -0.481876  0  3.917331  0  -0.033054  0  -0.237314  -0.472691  0  3.909732  0
C  C55  1  0.88757401  0.97729262  0.61017337  1  0  -0.395428  0  3.673632  0  0  -0.476677  0  3.912833  0  0  -0.481946  0  3.917268  0  -0.033342  0  -0.237293  -0.472757  0  3.909671  0
C  C56  1  0.45367957  0.27805147  0.17181777  1  0  0.673645  0  3.882013  0  0  0.630414  0  4.169826  0  0  0.666216  0  4.162857  0  1.281191  0  0.236752  0.606162  0  4.173833  0
C  C57  1  0.95368457  0.72195192  0.32818275  1  0  0.67341  0  3.882177  0  0  0.630272  0  4.169873  0  0  0.666063  0  4.16292  0  1.281742  0  0.236653  0.60603  0  4.173862  0
C  C58  1  0.54631332  0.72194864  0.82818128  1  0  0.673577  0  3.882075  0  0  0.630368  0  4.169851  0  0  0.666161  0  4.162894  0  1.28117  0  0.236735  0.606117  0  4.173855  0
C  C59  1  0.04631687  0.27804737  0.67181670  1  0  0.673438  0  3.881988  0  0  0.630291  0  4.169697  0  0  0.666082  0  4.162743  0  1.2817  0  0.236684  0.606037  0  4.173703  0
C  C60  1  0.43950641  0.39838868  0.57375320  1  0  0.682965  0  3.841262  0  0  0.637211  0  4.131757  0  0  0.67316  0  4.124545  0  1.315532  0  0.245741  0.612884  0  4.13597  0
C  C61  1  0.93950998  0.60161061  0.92624747  1  0  0.682887  0  3.84131  0  0  0.637135  0  4.131795  0  0  0.673081  0  4.124585  0  1.315503  0  0.245802  0.61281  0  4.136004  0
C  C62  1  0.56049789  0.60161225  0.42624790  1  0  0.682947  0  3.841206  0  0  0.637147  0  4.131759  0  0  0.673093  0  4.124551  0  1.314975  0  0.245702  0.612821  0  4.135968  0
C  C63  1  0.06049717  0.39839032  0.07375302  1  0  0.682822  0  3.841381  0  0  0.637126  0  4.131797  0  0  0.673075  0  4.124584  0  1.314976  0  0.245698  0.612801  0  4.136005  0
C  C64  1  0.57026216  0.32913700  0.51104832  1  0  -0.411625  0  3.6703  0  0  -0.441547  0  3.940263  0  0  -0.457632  0  3.951916  0  0.113878  0  -0.121352  -0.430993  0  3.932614  0
C  C65  1  0.07026429  0.67086394  0.98895156  1  0  -0.411533  0  3.670371  0  0  -0.441397  0  3.940323  0  0  -0.457484  0  3.95197  0  0.11378  0  -0.121293  -0.430836  0  3.93268  0
C  C66  1  0.42974213  0.67086476  0.48895299  1  0  -0.411612  0  3.670204  0  0  -0.44151  0  3.940193  0  0  -0.457594  0  3.951849  0  0.11391  0  -0.121314  -0.430958  0  3.932544  0
C  C67  1  0.92974000  0.32913618  0.01104750  1  0  -0.411543  0  3.670271  0  0  -0.441456  0  3.940244  0  0  -0.457538  0  3.9519  0  0.113926  0  -0.121293  -0.430904  0  3.932594  0
C  C68  1  0.50904942  0.25730057  0.43536077  1  0  0.439094  0  3.677226  0  0  0.423147  0  3.950884  0  0  0.442193  0  3.961297  0  0.331889  0  0.112337  0.410185  0  3.943704  0
C  C69  1  0.00905868  0.74269873  0.06463929  1  0  0.439146  0  3.67714  0  0  0.423069  0  3.950931  0  0  0.442118  0  3.961342  0  0.331848  0  0.112275  0.41011  0  3.943748  0
C  C70  1  0.49095344  0.74270037  0.56464094  1  0  0.439093  0  3.677026  0  0  0.423076  0  3.950814  0  0  0.442118  0  3.961231  0  0.331895  0  0.112319  0.410117  0  3.943631  0
C  C71  1  0.99095274  0.25729811  0.93536013  1  0  0.439084  0  3.677136  0  0  0.423011  0  3.950968  0  0  0.44205  0  3.961389  0  0.331751  0  0.112289  0.410051  0  3.943788  0
C  C72  1  0.62262861  0.17171631  0.37167233  1  0  -0.382301  0  3.666719  0  0  -0.461043  0  3.900952  0  0  -0.464925  0  3.905338  0  0.005401  0  -0.235238  -0.458047  0  3.897892  0
C  C73  1  0.12263787  0.82828299  0.12832590  1  0  -0.382126  0  3.666661  0  0  -0.460833  0  3.900911  0  0  -0.464713  0  3.905295  0  0.004924  0  -0.235128  -0.45784  0  3.897844  0
C  C74  1  0.37737426  0.82828709  0.62832819  1  0  -0.382006  0  3.66663  0  0  -0.4608  0  3.900859  0  0  -0.464682  0  3.905247  0  0.005265  0  -0.235158  -0.457797  0  3.8978  0
C  C75  1  0.87737213  0.17171221  0.87167187  1  0  -0.382005  0  3.666712  0  0  -0.460715  0  3.900924  0  0  -0.464595  0  3.905311  0  0.005381  0  -0.235144  -0.45772  0  3.89786  0
S  S76  1  0.15771086  0.16301249  0.17102095  1  0  1.420409  0  5.564182  0  0  1.309822  0  6.108843  0  0  1.364311  0  6.084391  0  3.470078  0  0.643572  1.272334  0  6.124727  0
S  S77  1  0.65770730  0.83699009  0.32897813  1  0  1.42074  0  5.564084  0  0  1.310172  0  6.10872  0  0  1.364666  0  6.084254  0  3.470334  0  0.643655  1.272685  0  6.124611  0
S  S78  1  0.84228488  0.83698927  0.82897853  1  0  1.42049  0  5.564159  0  0  1.309895  0  6.108818  0  0  1.364388  0  6.084358  0  3.469902  0  0.643626  1.272407  0  6.124703  0
S  S79  1  0.34228559  0.16300675  0.67102312  1  0  1.420487  0  5.56438  0  0  1.309897  0  6.109028  0  0  1.364387  0  6.084571  0  3.470638  0  0.643496  1.272407  0  6.124917  0
S  S80  1  0.19056871  0.36464191  0.45532351  1  0  1.452418  0  5.551425  0  0  1.331181  0  6.093395  0  0  1.386434  0  6.066846  0  3.525502  0  0.664287  1.293106  0  6.11078  0
S  S81  1  0.69057228  0.63536148  0.04467701  1  0  1.452509  0  5.55131  0  0  1.331309  0  6.093246  0  0  1.386567  0  6.066684  0  3.525504  0  0.664321  1.293236  0  6.110634  0
S  S82  1  0.80943558  0.63535902  0.54467698  1  0  1.452364  0  5.551721  0  0  1.331119  0  6.093673  0  0  1.386366  0  6.067129  0  3.525503  0  0.664271  1.293043  0  6.111056  0
S  S83  1  0.30943201  0.36464109  0.95532268  1  0  1.452179  0  5.551767  0  0  1.330922  0  6.093745  0  0  1.386169  0  6.067207  0  3.525501  0  0.664219  1.292849  0  6.111124  0
N  N84  1  0.27309323  0.27490091  0.20092786  1  0  -0.777166  0  3.021052  0  0  -0.72471  0  3.325109  0  0  -0.754329  0  3.324015  0  -1.469872  0  -0.438504  -0.704234  0  3.325171  0
N  N85  1  0.77309537  0.72510495  0.29907696  1  0  -0.777152  0  3.020937  0  0  -0.72471  0  3.324941  0  0  -0.754324  0  3.32384  0  -1.470031  0  -0.438485  -0.704239  0  3.325004  0
N  N86  1  0.72690251  0.72510003  0.79907202  1  0  -0.777196  0  3.021007  0  0  -0.724746  0  3.325052  0  0  -0.75436  0  3.323957  0  -1.469686  0  -0.438568  -0.704271  0  3.325116  0
N  N87  1  0.22690464  0.27489435  0.70092432  1  0  -0.777175  0  3.021036  0  0  -0.724723  0  3.325046  0  0  -0.754335  0  3.323948  0  -1.469864  0  -0.438525  -0.704244  0  3.32511  0
N  N88  1  0.25668069  0.41270726  0.55262354  1  0  -0.696415  0  2.97936  0  0  -0.638802  0  3.26422  0  0  -0.666877  0  3.261937  0  -1.443135  0  -0.360802  -0.619733  0  3.265423  0
N  N89  1  0.75668569  0.58729122  0.94737570  1  0  -0.69644  0  2.979328  0  0  -0.638831  0  3.26416  0  0  -0.666912  0  3.261887  0  -1.443071  0  -0.360832  -0.619761  0  3.265356  0
N  N90  1  0.74332360  0.58729204  0.44737713  1  0  -0.696468  0  2.979375  0  0  -0.638793  0  3.264202  0  0  -0.666862  0  3.261917  0  -1.442588  0  -0.360791  -0.619724  0  3.265403  0
N  N91  1  0.24332145  0.41270890  0.05262275  1  0  -0.696308  0  2.979381  0  0  -0.638714  0  3.264216  0  0  -0.666786  0  3.261934  0  -1.442578  0  -0.360783  -0.619649  0  3.265426  0
O  O92  1  0.02689238  0.15891725  0.23754831  1  0  -0.600301  0  1.909191  0  0  -0.561069  0  2.151679  0  0  -0.580525  0  2.137791  0  -1.310146  0  -0.301178  -0.547577  0  2.16089  0
O  O93  1  0.52689025  0.84108287  0.26246050  1  0  -0.600325  0  1.909568  0  0  -0.561074  0  2.152032  0  0  -0.580526  0  2.138131  0  -1.310125  0  -0.30109  -0.547586  0  2.161248  0
O  O94  1  0.97310478  0.84108287  0.76245258  1  0  -0.600334  0  1.909231  0  0  -0.561079  0  2.151683  0  0  -0.580536  0  2.137794  0  -1.31009  0  -0.301201  -0.547588  0  2.160895  0
O  O95  1  0.47310691  0.15891315  0.73753992  1  0  -0.600239  0  1.909602  0  0  -0.560962  0  2.152057  0  0  -0.580415  0  2.138166  0  -1.310668  0  -0.301046  -0.547473  0  2.161271  0
O  O96  1  0.08700753  0.13270083  0.08375837  1  0  -0.598587  0  1.895415  0  0  -0.556558  0  2.125685  0  0  -0.57921  0  2.115725  0  -1.29431  0  -0.302794  -0.540747  0  2.131993  0
O  O97  1  0.58701253  0.86730749  0.41624831  1  0  -0.59878  0  1.89521  0  0  -0.556763  0  2.125463  0  0  -0.579424  0  2.115505  0  -1.294337  0  -0.302906  -0.540952  0  2.131772  0
O  O98  1  0.91298251  0.86730175  0.91624133  1  0  -0.598566  0  1.895503  0  0  -0.556514  0  2.125741  0  0  -0.579169  0  2.115784  0  -1.294199  0  -0.302735  -0.540702  0  2.132049  0
O  O99  1  0.41297181  0.13268443  0.58375044  1  0  -0.598638  0  1.895253  0  0  -0.55663  0  2.125534  0  0  -0.579296  0  2.115589  0  -1.294239  0  -0.302777  -0.540818  0  2.131842  0
O  O100  1  0.32416110  0.06819631  0.16870588  1  0  -0.418123  0  2.159385  0  0  -0.340304  0  2.387317  0  0  -0.362506  0  2.3832  0  -1.080889  0  -0.160853  -0.325015  0  2.389799  0
O  O101  1  0.82415612  0.93181119  0.33129631  1  0  -0.418257  0  2.159412  0  0  -0.340448  0  2.387351  0  0  -0.362651  0  2.383224  0  -1.081082  0  -0.160942  -0.325159  0  2.389836  0
O  O102  1  0.67583037  0.93180381  0.83129257  1  0  -0.418164  0  2.159455  0  0  -0.340383  0  2.387411  0  0  -0.362582  0  2.383295  0  -1.080987  0  -0.160903  -0.325094  0  2.389894  0
O  O103  1  0.17582965  0.06819057  0.66870927  1  0  -0.418225  0  2.159496  0  0  -0.340426  0  2.38746  0  0  -0.362623  0  2.383338  0  -1.081007  0  -0.16091  -0.325134  0  2.389941  0
O  O104  1  0.99713773  0.32655144  0.44791328  1  0  -0.601115  0  1.957305  0  0  -0.555765  0  2.205571  0  0  -0.576076  0  2.191631  0  -1.314614  0  -0.289573  -0.541661  0  2.214818  0
O  O105  1  0.49714128  0.67345114  0.05208702  1  0  -0.601101  0  1.957326  0  0  -0.555816  0  2.205634  0  0  -0.576128  0  2.191692  0  -1.314585  0  -0.289599  -0.541711  0  2.21488  0
O  O106  1  0.00286799  0.67344868  0.55208882  1  0  -0.60111  0  1.957536  0  0  -0.555755  0  2.205798  0  0  -0.576065  0  2.191861  0  -1.314706  0  -0.289569  -0.541649  0  2.215044  0
O  O107  1  0.50286586  0.32655226  0.94791106  1  0  -0.601017  0  1.957427  0  0  -0.55566  0  2.205696  0  0  -0.575968  0  2.191758  0  -1.314631  0  -0.289561  -0.541558  0  2.214942  0
O  O108  1  0.24072572  0.43753946  0.40763979  1  0  -0.69534  0  2.043091  0  0  -0.638594  0  2.314306  0  0  -0.664034  0  2.301769  0  -1.33549  0  -0.342811  -0.620508  0  2.322295  0
O  O109  1  0.74072359  0.56246065  0.09236110  1  0  -0.695366  0  2.043088  0  0  -0.638629  0  2.314301  0  0  -0.664069  0  2.301761  0  -1.335439  0  -0.342822  -0.620543  0  2.322289  0
O  O110  1  0.75927429  0.56246065  0.59236049  1  0  -0.695308  0  2.04311  0  0  -0.63857  0  2.31433  0  0  -0.66401  0  2.301795  0  -1.335474  0  -0.342802  -0.620485  0  2.322319  0
O  O111  1  0.25927500  0.43753864  0.90763835  1  0  -0.695245  0  2.043198  0  0  -0.638507  0  2.31445  0  0  -0.66395  0  2.301921  0  -1.335486  0  -0.34277  -0.620422  0  2.322436  0
O  O112  1  0.31903949  0.25324223  0.41128402  1  0  -0.407982  0  2.191993  0  0  -0.330014  0  2.426548  0  0  -0.35158  0  2.422402  0  -1.102709  0  -0.150765  -0.315105  0  2.429036  0
O  O113  1  0.81904448  0.74675789  0.08871686  1  0  -0.408106  0  2.191912  0  0  -0.330076  0  2.426447  0  0  -0.351654  0  2.422316  0  -1.102665  0  -0.150751  -0.315168  0  2.428936  0
O  O114  1  0.68096338  0.74675871  0.58871707  1  0  -0.408015  0  2.191971  0  0  -0.330055  0  2.426591  0  0  -0.351618  0  2.422447  0  -1.102753  0  -0.150805  -0.315147  0  2.429079  0
O  O115  1  0.18096266  0.25324223  0.91128402  1  0  -0.408043  0  2.192044  0  0  -0.330023  0  2.426632  0  0  -0.351586  0  2.422492  0  -1.102741  0  -0.150788  -0.315114  0  2.42912  0
O  O116  1  0.52555319  0.37278401  0.18575326  1  0  -0.702637  0  1.988246  0  0  -0.638191  0  2.238376  0  0  -0.664872  0  2.226257  0  -1.222018  0  -0.382022  -0.61905  0  2.245953  0
O  O117  1  0.02555674  0.62722103  0.31424769  1  0  -0.70253  0  1.988325  0  0  -0.63812  0  2.238417  0  0  -0.664799  0  2.226305  0  -1.222561  0  -0.382004  -0.618984  0  2.245988  0
O  O118  1  0.47444398  0.62721693  0.81424845  1  0  -0.702611  0  1.988292  0  0  -0.638185  0  2.238413  0  0  -0.664866  0  2.2263  0  -1.222055  0  -0.382017  -0.619044  0  2.245987  0
O  O119  1  0.97444612  0.37277909  0.68574954  1  0  -0.702553  0  1.988276  0  0  -0.638139  0  2.238358  0  0  -0.664818  0  2.226246  0  -1.222539  0  -0.382002  -0.618998  0  2.245932  0
O  O120  1  0.49013809  0.44312224  0.65227174  1  0  -0.721584  0  2.027828  0  0  -0.657862  0  2.28419  0  0  -0.686059  0  2.272948  0  -1.21806  0  -0.389342  -0.637568  0  2.290981  0
O  O121  1  0.99014024  0.55687460  0.84772646  1  0  -0.721576  0  2.027756  0  0  -0.657882  0  2.284137  0  0  -0.686085  0  2.272909  0  -1.218055  0  -0.389393  -0.637585  0  2.290919  0
O  O122  1  0.50986478  0.55687788  0.34772854  1  0  -0.721548  0  2.027793  0  0  -0.657818  0  2.284187  0  0  -0.686013  0  2.272946  0  -1.217983  0  -0.38931  -0.637524  0  2.290976  0
O  O123  1  0.00986406  0.44312470  0.15227360  1  0  -0.721567  0  2.027834  0  0  -0.657852  0  2.284157  0  0  -0.686052  0  2.272924  0  -1.218043  0  -0.389338  -0.637556  0  2.290945  0
O  O124  1  0.38977275  0.58103929  0.19137645  1  0  -0.899478  0  1.908438  0  0  -0.845018  0  2.118605  0  0  -0.866046  0  2.088417  0  -1.287993  0  -0.604343  -0.829763  0  2.138016  0
O  O125  1  0.88977204  0.41896164  0.30862465  1  0  -0.899496  0  1.908386  0  0  -0.845045  0  2.118595  0  0  -0.866065  0  2.088377  0  -1.288011  0  -0.604342  -0.82979  0  2.13801  0
O  O126  1  0.61023012  0.41896000  0.80862423  1  0  -0.899388  0  1.908424  0  0  -0.844936  0  2.118618  0  0  -0.865949  0  2.088417  0  -1.287884  0  -0.604264  -0.829681  0  2.138031  0
O  O127  1  0.11022797  0.58103847  0.69137562  1  0  -0.899314  0  1.908442  0  0  -0.844854  0  2.118632  0  0  -0.865876  0  2.088484  0  -1.288029  0  -0.604291  -0.829598  0  2.138044  0
