# generated using pymatgen
data_ZnH21C25(NO3)3
_symmetry_space_group_name_H-M   'P 1'
_cell_length_a   9.75880606
_cell_length_b   10.64505899
_cell_length_c   12.06390000
_cell_angle_alpha   87.86664652
_cell_angle_beta   84.65235910
_cell_angle_gamma   69.44841298
_symmetry_Int_Tables_number   1
_chemical_formula_structural   ZnH21C25(NO3)3
_chemical_formula_sum   'Zn2 H42 C50 N6 O18'
_cell_volume   1168.35350921
_cell_formula_units_Z   2
loop_
 _symmetry_equiv_pos_site_id
 _symmetry_equiv_pos_as_xyz
  1  'x, y, z'
loop_
 _atom_site_type_symbol
 _atom_site_label
 _atom_site_symmetry_multiplicity
 _atom_site_fract_x
 _atom_site_fract_y
 _atom_site_fract_z
 _atom_site_occupancy
 _atom_site_hle17_bader_spin_density
 _atom_site_hle17_ddec_charge
 _atom_site_hle17_ddec_spin_density
 _atom_site_hle17_ddec_sum_bond_order
 _atom_site_hle17_magmom
 _atom_site_hse06_10hf_bader_spin_density
 _atom_site_hse06_10hf_ddec_charge
 _atom_site_hse06_10hf_ddec_spin_density
 _atom_site_hse06_10hf_ddec_sum_bond_order
 _atom_site_hse06_10hf_magmom
 _atom_site_hse06_bader_spin_density
 _atom_site_hse06_ddec_charge
 _atom_site_hse06_ddec_spin_density
 _atom_site_hse06_ddec_sum_bond_order
 _atom_site_hse06_magmom
 _atom_site_pbe_bader_charge
 _atom_site_pbe_bader_spin_density
 _atom_site_pbe_cm5_charge
 _atom_site_pbe_ddec_charge
 _atom_site_pbe_ddec_spin_density
 _atom_site_pbe_ddec_sum_bond_order
 _atom_site_pbe_magmom
Zn  Zn0  1  0.32915104  0.80496788  0.96128142  1  0  1.118497  0  1.750202  0  0  0.945632  0  2.21416  0  0  0.993679  0  2.154191  0  1.319154  0  0.682449  0.910358  0  2.257353  0
Zn  Zn1  1  0.67085066  0.19503075  0.03871825  1  0  1.118498  0  1.750213  0  0  0.945616  0  2.214188  0  0  0.993664  0  2.154219  0  1.319169  0  0.682447  0.91034  0  2.257381  0
H  H2  1  0.77502934  0.79183313  0.98795736  1  0  0.111081  0  0.951695  0  0  0.118654  0  1.019206  0  0  0.122827  0  1.015241  0  0.127931  0  0.106767  0.115651  0  1.02221  0
H  H3  1  0.22497197  0.20816651  0.01203982  1  0  0.111089  0  0.951696  0  0  0.118688  0  1.019175  0  0  0.122867  0  1.015205  0  0.127897  0  0.106765  0.115683  0  1.022183  0
H  H4  1  0.74391834  0.47624300  0.21197394  1  0  0.122258  0  0.964702  0  0  0.130015  0  1.029776  0  0  0.134201  0  1.026287  0  0.103834  0  0.109401  0.126904  0  1.032356  0
H  H5  1  0.25608362  0.52375764  0.78802481  1  0  0.122253  0  0.964663  0  0  0.129985  0  1.029767  0  0  0.134171  0  1.026277  0  0.10381  0  0.109395  0.126878  0  1.032346  0
H  H6  1  0.15586369  0.53990319  0.14645888  1  0  0.134456  0  0.938952  0  0  0.142146  0  1.000339  0  0  0.1467  0  0.996462  0  0.135667  0  0.113009  0.13895  0  1.00278  0
H  H7  1  0.84413647  0.46009946  0.85353995  1  0  0.134438  0  0.938971  0  0  0.142127  0  1.000361  0  0  0.146681  0  0.996483  0  0.13573  0  0.113003  0.138931  0  1.002801  0
H  H8  1  0.86513466  0.57279926  0.39892103  1  0  0.10881  0  0.955468  0  0  0.119534  0  1.01453  0  0  0.121966  0  1.01499  0  0.066348  0  0.102635  0.11787  0  1.014041  0
H  H9  1  0.13486833  0.42720139  0.60107765  1  0  0.108791  0  0.955493  0  0  0.119512  0  1.014556  0  0  0.121947  0  1.015008  0  0.066316  0  0.102637  0.117848  0  1.014067  0
H  H10  1  0.76980854  0.52024019  0.58769639  1  0  0.101963  0  0.982668  0  0  0.107072  0  1.051656  0  0  0.110074  0  1.050608  0  0.096453  0  0.100262  0.104866  0  1.052564  0
H  H11  1  0.23019201  0.47976145  0.41230078  1  0  0.101942  0  0.982629  0  0  0.107018  0  1.051658  0  0  0.110017  0  1.050613  0  0.096444  0  0.100264  0.104812  0  1.052564  0
H  H12  1  0.64660786  0.35940875  0.79394594  1  0  0.423789  0  0.84835  0  0  0.389137  0  0.933813  0  0  0.402416  0  0.918252  0  0.672452  0  0.312709  0.379846  0  0.944687  0
H  H13  1  0.35339345  0.64059089  0.20605289  1  0  0.423695  0  0.848451  0  0  0.389132  0  0.933781  0  0  0.40241  0  0.918222  0  0.672437  0  0.312749  0.379839  0  0.944657  0
H  H14  1  0.95242483  0.09915371  0.51207259  1  0  0.096424  0  0.981511  0  0  0.107523  0  1.044139  0  0  0.111306  0  1.040926  0  0.050458  0  0.097355  0.104972  0  1.045901  0
H  H15  1  0.04757404  0.90084693  0.48792556  1  0  0.096383  0  0.981576  0  0  0.107505  0  1.044171  0  0  0.111306  0  1.040937  0  0.050068  0  0.097352  0.104956  0  1.045932  0
H  H16  1  0.08619665  0.03456349  0.32236236  1  0  0.314493  0  0.940963  0  0  0.300837  0  1.001854  0  0  0.30732  0  0.996618  0  0.474053  0  0.290815  0.296204  0  1.005701  0
H  H17  1  0.91380325  0.96543715  0.67763572  1  0  0.314446  0  0.941035  0  0  0.300842  0  1.001848  0  0  0.307326  0  0.99661  0  0.474326  0  0.290831  0.296209  0  1.005696  0
H  H18  1  0.07578256  0.15914697  0.22535669  1  0  0.323414  0  0.915109  0  0  0.304091  0  0.986189  0  0  0.311441  0  0.979753  0  0.467514  0  0.298314  0.29876  0  0.990952  0
H  H19  1  0.92421695  0.84085468  0.77464304  1  0  0.323377  0  0.91511  0  0  0.304085  0  0.986159  0  0  0.311436  0  0.979723  0  0.467535  0  0.298311  0.298753  0  0.990925  0
H  H20  1  0.12836833  0.96412287  0.78901335  1  0  0.089119  0  0.94536  0  0  0.095191  0  1.012469  0  0  0.098389  0  1.009362  0  0.134695  0  0.118753  0.09269  0  1.015041  0
H  H21  1  0.87163272  0.03587476  0.21098806  1  0  0.08916  0  0.945329  0  0  0.095217  0  1.012455  0  0  0.098418  0  1.009342  0  0.134723  0  0.118752  0.092716  0  1.01503  0
H  H22  1  0.14896639  0.11057087  0.62601220  1  0  0.101804  0  0.977837  0  0  0.110725  0  1.042791  0  0  0.113229  0  1.042979  0  0.101736  0  0.103411  0.108976  0  1.042591  0
H  H23  1  0.85103427  0.88942777  0.37399003  1  0  0.101805  0  0.977809  0  0  0.110715  0  1.042776  0  0  0.11322  0  1.042966  0  0.10171  0  0.103396  0.108966  0  1.042575  0
H  H24  1  0.56278348  0.09923297  0.73767457  1  0  0.117895  0  0.948268  0  0  0.126315  0  1.010783  0  0  0.12964  0  1.009906  0  0.102248  0  0.111948  0.123927  0  1.011575  0
H  H25  1  0.43721757  0.90076466  0.26232849  1  0  0.117892  0  0.948273  0  0  0.126307  0  1.01079  0  0  0.129634  0  1.009911  0  0.10222  0  0.111928  0.12392  0  1.011579  0
H  H26  1  0.52060049  0.96129266  0.89687764  1  0  0.100863  0  0.936666  0  0  0.107421  0  1.002454  0  0  0.110523  0  0.999081  0  0.175566  0  0.124507  0.104998  0  1.005224  0
H  H27  1  0.47939850  0.03870497  0.10312558  1  0  0.100844  0  0.936713  0  0  0.107402  0  1.002526  0  0  0.110507  0  0.999147  0  0.175598  0  0.124486  0.104979  0  1.005294  0
H  H28  1  0.26259503  0.11003713  0.45950017  1  0  0.105132  0  0.968621  0  0  0.114501  0  1.031634  0  0  0.117355  0  1.031505  0  0.108176  0  0.105589  0.112861  0  1.030839  0
H  H29  1  0.73740384  0.88996351  0.54050461  1  0  0.105104  0  0.968663  0  0  0.114494  0  1.031648  0  0  0.117352  0  1.031515  0  0.108199  0  0.105607  0.112854  0  1.030853  0
H  H30  1  0.33064671  0.21445497  0.28718850  1  0  0.086044  0  0.928732  0  0  0.093197  0  0.992519  0  0  0.096189  0  0.989881  0  0.106132  0  0.119018  0.090728  0  0.995027  0
H  H31  1  0.66934869  0.78554667  0.71281568  1  0  0.086119  0  0.928583  0  0  0.093232  0  0.99244  0  0  0.096223  0  0.989806  0  0.106072  0  0.119024  0.090765  0  0.99494  0
H  H32  1  0.59832603  0.36283490  0.44870393  1  0  0.078037  0  0.941146  0  0  0.086948  0  1.004197  0  0  0.088524  0  1.004251  0  0.087623  0  0.114185  0.086059  0  1.003261  0
H  H33  1  0.40167143  0.63716675  0.55129927  1  0  0.077988  0  0.941212  0  0  0.086916  0  1.004245  0  0  0.088492  0  1.004301  0  0.087516  0  0.114163  0.086029  0  1.003307  0
H  H34  1  0.52587708  0.27941038  0.63259398  1  0  0.109784  0  0.967432  0  0  0.117764  0  1.030923  0  0  0.120777  0  1.030241  0  0.102181  0  0.107855  0.115562  0  1.031684  0
H  H35  1  0.47412565  0.72058826  0.36741058  1  0  0.109746  0  0.967496  0  0  0.117737  0  1.030983  0  0  0.12075  0  1.030299  0  0.102991  0  0.107815  0.115534  0  1.031747  0
H  H36  1  0.14764955  0.02949199  0.07380906  1  0  0.423949  0  0.882264  0  0  0.392686  0  0.947432  0  0  0.403638  0  0.931499  0  0.650725  0  0.286768  0.384838  0  0.958848  0
H  H37  1  0.85235382  0.97050765  0.92618962  1  0  0.423937  0  0.882276  0  0  0.392654  0  0.947474  0  0  0.403607  0  0.93154  0  0.650657  0  0.28676  0.384806  0  0.958887  0
H  H38  1  0.21506317  0.91056657  0.15923634  1  0  0.41594  0  0.885888  0  0  0.386613  0  0.947511  0  0  0.397167  0  0.931998  0  0.632093  0  0.28933  0.378996  0  0.958772  0
H  H39  1  0.78493673  0.08943408  0.84076340  1  0  0.415872  0  0.885971  0  0  0.386551  0  0.947585  0  0  0.397106  0  0.932071  0  0.632083  0  0.289285  0.378934  0  0.958845  0
H  H40  1  0.43089435  0.56399259  0.85161825  1  0  0.427329  0  0.871513  0  0  0.399669  0  0.928474  0  0  0.409948  0  0.91351  0  0.630097  0  0.290303  0.392356  0  0.939135  0
H  H41  1  0.56910735  0.43600604  0.14838059  1  0  0.42734  0  0.871501  0  0  0.399677  0  0.928467  0  0  0.409956  0  0.913503  0  0.63011  0  0.290305  0.392365  0  0.939127  0
H  H42  1  0.45565864  0.67294319  0.76208113  1  0  0.381698  0  0.943487  0  0  0.338153  0  1.027154  0  0  0.349854  0  1.010629  0  0.632601  0  0.275028  0.329844  0  1.038867  0
H  H43  1  0.54434061  0.32705645  0.23791869  1  0  0.381736  0  0.94343  0  0  0.338193  0  1.027094  0  0  0.349896  0  1.010567  0  0.633175  0  0.275062  0.329886  0  1.038805  0
C  C44  1  0.06662487  0.75044744  0.00482653  1  0  0.659129  0  3.894461  0  0  0.607824  0  4.185439  0  0  0.642303  0  4.178199  0  1.580469  0  0.210173  0.584269  0  4.189794  0
C  C45  1  0.93337606  0.24955321  0.99517231  1  0  0.658984  0  3.894678  0  0  0.607784  0  4.185506  0  0  0.642261  0  4.178266  0  1.580449  0  0.210149  0.584226  0  4.18986  0
C  C46  1  0.97442380  0.67597205  0.06224441  1  0  -0.056012  0  3.7648  0  0  -0.029  0  4.001947  0  0  -0.038189  0  4.026761  0  -0.052327  0  -0.019553  -0.023453  0  3.986039  0
C  C47  1  0.02557648  0.32402759  0.93775451  1  0  -0.055999  0  3.764937  0  0  -0.029015  0  4.002047  0  0  -0.038203  0  4.02686  0  -0.052337  0  -0.019564  -0.023466  0  3.986136  0
C  C48  1  0.82619370  0.71039508  0.04453168  1  0  -0.076504  0  3.698109  0  0  -0.119583  0  3.953259  0  0  -0.116996  0  3.972387  0  0.011362  0  -0.082901  -0.121954  0  3.941868  0
C  C49  1  0.17380620  0.28960556  0.95546723  1  0  -0.076625  0  3.698042  0  0  -0.119699  0  3.95319  0  0  -0.117114  0  3.972318  0  0.011429  0  -0.082945  -0.122071  0  3.941795  0
C  C50  1  0.74270318  0.63936591  0.09890478  1  0  -0.058554  0  3.776821  0  0  -0.03167  0  4.013975  0  0  -0.040541  0  4.038249  0  -0.06029  0  -0.02116  -0.026113  0  3.997684  0
C  C51  1  0.25729955  0.36063273  0.90109398  1  0  -0.058418  0  3.776601  0  0  -0.031586  0  4.013851  0  0  -0.04046  0  4.038125  0  -0.06046  0  -0.021091  -0.026024  0  3.997553  0
C  C52  1  0.58431920  0.67426750  0.07878366  1  0  0.666388  0  3.88764  0  0  0.613072  0  4.179507  0  0  0.647757  0  4.171719  0  1.564039  0  0.217436  0.589674  0  4.183653  0
C  C53  1  0.41568249  0.32573114  0.92121518  1  0  0.66651  0  3.887501  0  0  0.613152  0  4.179436  0  0  0.647838  0  4.171647  0  1.56421  0  0.217461  0.589752  0  4.183581  0
C  C54  1  0.80734016  0.53377023  0.17134706  1  0  -0.164197  0  3.703737  0  0  -0.200434  0  3.955229  0  0  -0.201072  0  3.973179  0  -0.053678  0  -0.089342  -0.198886  0  3.942643  0
C  C55  1  0.19266012  0.46622941  0.82865186  1  0  -0.164239  0  3.703698  0  0  -0.200439  0  3.95522  0  0  -0.201073  0  3.973168  0  -0.053646  0  -0.089342  -0.198898  0  3.942638  0
C  C56  1  0.95564676  0.49938131  0.18688113  1  0  0.256061  0  3.793862  0  0  0.250092  0  4.061668  0  0  0.256964  0  4.078401  0  0.437813  0  0.080263  0.244686  0  4.050198  0
C  C57  1  0.04435237  0.50062134  0.81312109  1  0  0.256025  0  3.79392  0  0  0.250068  0  4.061727  0  0  0.256939  0  4.07846  0  0.438132  0  0.080233  0.244661  0  4.050259  0
C  C58  1  0.03996602  0.56889254  0.13362986  1  0  -0.147989  0  3.67711  0  0  -0.187271  0  3.933615  0  0  -0.187191  0  3.950837  0  0.024213  0  -0.084903  -0.185834  0  3.920785  0
C  C59  1  0.96003323  0.43110710  0.86636913  1  0  -0.147921  0  3.67708  0  0  -0.187203  0  3.93358  0  0  -0.187122  0  3.9508  0  0.024156  0  -0.08487  -0.185762  0  3.920745  0
C  C60  1  0.96304742  0.36602528  0.35160428  1  0  0.182713  0  3.740276  0  0  0.172658  0  3.996393  0  0  0.18038  0  4.01206  0  0.43586  0  0.085487  0.167209  0  3.985579  0
C  C61  1  0.03694798  0.63397636  0.64839742  1  0  0.182743  0  3.74039  0  0  0.172637  0  3.99654  0  0  0.180359  0  4.012208  0  0.435874  0  0.085474  0.167188  0  3.985726  0
C  C62  1  0.88307705  0.46939672  0.42434451  1  0  -0.173019  0  3.806545  0  0  -0.193865  0  4.064429  0  0  -0.197583  0  4.084352  0  -0.016763  0  -0.104808  -0.191404  0  4.05092  0
C  C63  1  0.11691964  0.53060693  0.57565786  1  0  -0.173039  0  3.806585  0  0  -0.19386  0  4.064462  0  0  -0.197577  0  4.084383  0  -0.016693  0  -0.104808  -0.191399  0  4.05095  0
C  C64  1  0.82992670  0.44027995  0.52962295  1  0  -0.082695  0  3.774657  0  0  -0.113942  0  4.040263  0  0  -0.112873  0  4.059467  0  -0.028202  0  -0.104641  -0.114216  0  4.027159  0
C  C65  1  0.17007243  0.55972270  0.47037595  1  0  -0.082636  0  3.774501  0  0  -0.113857  0  4.040099  0  0  -0.112793  0  4.059314  0  -0.028095  0  -0.104622  -0.114131  0  4.026994  0
C  C66  1  0.85700843  0.30635407  0.56161172  1  0  -0.09511  0  3.8605  0  0  -0.080333  0  4.110405  0  0  -0.0881  0  4.133576  0  -0.016709  0  -0.03932  -0.075163  0  4.094156  0
C  C67  1  0.14299006  0.69364757  0.43838560  1  0  -0.095102  0  3.860487  0  0  -0.080278  0  4.110376  0  0  -0.088044  0  4.133551  0  -0.016667  0  -0.039308  -0.075108  0  4.094127  0
C  C68  1  0.79504307  0.27384125  0.67081369  1  0  0.655047  0  3.823521  0  0  0.604077  0  4.122192  0  0  0.638261  0  4.11239  0  1.498394  0  0.231955  0.580965  0  4.128395  0
C  C69  1  0.20495477  0.72615939  0.32918288  1  0  0.655137  0  3.823423  0  0  0.604066  0  4.122234  0  0  0.638248  0  4.112433  0  1.498214  0  0.231921  0.580953  0  4.128438  0
C  C70  1  0.93708746  0.20232449  0.48745006  1  0  -0.208776  0  3.75558  0  0  -0.236126  0  4.010782  0  0  -0.238824  0  4.029931  0  -0.016862  0  -0.110353  -0.233658  0  3.995377  0
C  C71  1  0.06291141  0.79767615  0.51254561  1  0  -0.208887  0  3.755744  0  0  -0.236283  0  4.010947  0  0  -0.238995  0  4.030088  0  -0.016999  0  -0.110451  -0.233814  0  3.995542  0
C  C72  1  0.99189146  0.22923809  0.38119259  1  0  0.224014  0  3.884498  0  0  0.214638  0  4.137765  0  0  0.221511  0  4.159135  0  0.452392  0  0.090934  0.209695  0  4.122536  0
C  C73  1  0.00810806  0.77076356  0.61880466  1  0  0.224055  0  3.884428  0  0  0.214746  0  4.137643  0  0  0.22162  0  4.159016  0  0.452467  0  0.090999  0.209801  0  4.122415  0
C  C74  1  0.22174799  0.99810447  0.77370942  1  0  0.142598  0  3.684438  0  0  0.110658  0  3.935095  0  0  0.117681  0  3.953361  0  0.448436  0  0.053877  0.106141  0  3.922521  0
C  C75  1  0.77825062  0.00189416  0.22629214  1  0  0.142457  0  3.684306  0  0  0.110509  0  3.935001  0  0  0.117534  0  3.953268  0  0.44822  0  0.053835  0.105992  0  3.922427  0
C  C76  1  0.23545148  0.07805705  0.68283756  1  0  -0.154146  0  3.689735  0  0  -0.169982  0  3.933279  0  0  -0.177871  0  3.95531  0  -0.019377  0  -0.080592  -0.164916  0  3.918661  0
C  C77  1  0.76454713  0.92194159  0.31716400  1  0  -0.154073  0  3.689615  0  0  -0.16989  0  3.933162  0  0  -0.177777  0  3.955193  0  -0.019098  0  -0.080549  -0.164823  0  3.918544  0
C  C78  1  0.36089210  0.11458293  0.66509761  1  0  0.097205  0  3.75748  0  0  0.107329  0  3.988043  0  0  0.111724  0  4.009745  0  -0.034313  0  0.015088  0.104337  0  3.973696  0
C  C79  1  0.63910792  0.88541471  0.33490554  1  0  0.097196  0  3.757626  0  0  0.107291  0  3.988174  0  0  0.111686  0  4.009877  0  -0.034486  0  0.015062  0.104301  0  3.973828  0
C  C80  1  0.46258623  0.07522985  0.74576331  1  0  -0.150823  0  3.689735  0  0  -0.169747  0  3.942984  0  0  -0.177971  0  3.964314  0  0.053962  0  -0.075726  -0.164186  0  3.928493  0
C  C81  1  0.53741418  0.92476678  0.25423984  1  0  -0.150813  0  3.689704  0  0  -0.169702  0  3.942947  0  0  -0.177925  0  3.964275  0  0.053924  0  -0.075644  -0.164142  0  3.928456  0
C  C82  1  0.44064363  0.99648921  0.83511768  1  0  0.144678  0  3.66528  0  0  0.110153  0  3.921449  0  0  0.117993  0  3.938548  0  0.422609  0  0.056792  0.105218  0  3.909508  0
C  C83  1  0.55935395  0.00350942  0.16488561  1  0  0.144731  0  3.66513  0  0  0.110163  0  3.921334  0  0  0.118002  0  3.938435  0  0.422633  0  0.056789  0.10523  0  3.909392  0
C  C84  1  0.39116301  0.18297753  0.56203110  1  0  0.086731  0  3.764016  0  0  0.100294  0  3.991585  0  0  0.10348  0  4.013032  0  -0.063893  0  0.011023  0.098242  0  3.977378  0
C  C85  1  0.60883739  0.81701910  0.43796956  1  0  0.08671  0  3.764063  0  0  0.100312  0  3.991587  0  0  0.103498  0  4.013035  0  -0.063637  0  0.011033  0.098258  0  3.977381  0
C  C86  1  0.33439682  0.16797269  0.46278749  1  0  -0.154471  0  3.69942  0  0  -0.173659  0  3.948335  0  0  -0.180923  0  3.970335  0  -0.019829  0  -0.080598  -0.168674  0  3.932693  0
C  C87  1  0.66560487  0.83202594  0.53721300  1  0  -0.15441  0  3.699418  0  0  -0.173618  0  3.948304  0  0  -0.180884  0  3.970298  0  -0.019813  0  -0.080599  -0.168633  0  3.932661  0
C  C88  1  0.37506011  0.22401709  0.36486625  1  0  0.128633  0  3.715989  0  0  0.098203  0  3.974983  0  0  0.104503  0  3.991691  0  0.497825  0  0.049943  0.093589  0  3.964389  0
C  C89  1  0.62493761  0.77598656  0.63513604  1  0  0.128579  0  3.715802  0  0  0.09816  0  3.974837  0  0  0.104459  0  3.991547  0  0.497306  0  0.049946  0.093547  0  3.964242  0
C  C90  1  0.52239613  0.30755799  0.45523027  1  0  0.12243  0  3.722722  0  0  0.09405  0  3.975732  0  0  0.099512  0  3.994624  0  0.487929  0  0.048444  0.090943  0  3.961501  0
C  C91  1  0.47760210  0.69244165  0.54477211  1  0  0.122419  0  3.722759  0  0  0.094019  0  3.975774  0  0  0.099482  0  3.994665  0  0.488025  0  0.048461  0.090911  0  3.961543  0
C  C92  1  0.48417334  0.25852541  0.55743469  1  0  -0.155822  0  3.694572  0  0  -0.172069  0  3.938716  0  0  -0.179572  0  3.960722  0  -0.03352  0  -0.081192  -0.167705  0  3.924182  0
C  C93  1  0.51582771  0.74147223  0.44256838  1  0  -0.155744  0  3.694627  0  0  -0.172011  0  3.938751  0  0  -0.179514  0  3.960758  0  -0.034439  0  -0.081148  -0.167646  0  3.924217  0
N  N94  1  0.07585032  0.13210094  0.30722705  1  0  -0.658004  0  3.147278  0  0  -0.625604  0  3.384767  0  0  -0.644966  0  3.384958  0  -1.252999  0  -0.601371  -0.612013  0  3.384801  0
N  N95  1  0.92415022  0.86790070  0.69277095  1  0  -0.65789  0  3.147318  0  0  -0.625582  0  3.384715  0  0  -0.644948  0  3.384906  0  -1.253307  0  -0.601369  -0.611991  0  3.384753  0
N  N96  1  0.32445313  0.95520384  0.84728423  1  0  -0.328488  0  3.273053  0  0  -0.245369  0  3.545597  0  0  -0.265394  0  3.561586  0  -1.259967  0  -0.323857  -0.231421  0  3.533958  0
N  N97  1  0.67554548  0.04479479  0.15271733  1  0  -0.328477  0  3.272925  0  0  -0.245322  0  3.545453  0  0  -0.265351  0  3.561448  0  -1.25993  0  -0.323848  -0.231374  0  3.533814  0
N  N98  1  0.47034857  0.28967178  0.36001606  1  0  -0.29627  0  3.167848  0  0  -0.233236  0  3.411016  0  0  -0.246545  0  3.425882  0  -1.215587  0  -0.302115  -0.224202  0  3.400937  0
N  N99  1  0.52965030  0.71032886  0.63998541  1  0  -0.296295  0  3.167843  0  0  -0.233254  0  3.411006  0  0  -0.246565  0  3.425875  0  -1.2152  0  -0.302144  -0.22422  0  3.400928  0
O  O100  1  0.20011245  0.71049541  0.03046781  1  0  -0.643073  0  2.080057  0  0  -0.57122  0  2.350513  0  0  -0.600708  0  2.336663  0  -1.161487  0  -0.322298  -0.55078  0  2.360476  0
O  O101  1  0.79988744  0.28950524  0.96953110  1  0  -0.643041  0  2.080088  0  0  -0.571218  0  2.350475  0  0  -0.600703  0  2.336626  0  -1.161505  0  -0.322318  -0.550794  0  2.360479  0
O  O102  1  0.01358170  0.84449653  0.93663171  1  0  -0.650211  0  1.973062  0  0  -0.594445  0  2.20189  0  0  -0.617991  0  2.189629  0  -1.200317  0  -0.320969  -0.577592  0  2.209927  0
O  O103  1  0.98642102  0.15550210  0.06336457  1  0  -0.650107  0  1.973109  0  0  -0.594384  0  2.201885  0  0  -0.617944  0  2.189655  0  -1.200322  0  -0.320932  -0.577531  0  2.209925  0
O  O104  1  0.50996708  0.61113302  0.13254835  1  0  -0.652437  0  2.017901  0  0  -0.590423  0  2.242675  0  0  -0.614561  0  2.229312  0  -1.205095  0  -0.315511  -0.573248  0  2.251742  0
O  O105  1  0.49003526  0.38886662  0.86744958  1  0  -0.652578  0  2.017793  0  0  -0.590505  0  2.242585  0  0  -0.614651  0  2.229237  0  -1.205125  0  -0.315549  -0.57333  0  2.251655  0
O  O106  1  0.53277466  0.76721300  0.00803447  1  0  -0.639051  0  2.082269  0  0  -0.567811  0  2.349372  0  0  -0.596984  0  2.336347  0  -1.169963  0  -0.314188  -0.54675  0  2.357713  0
O  O107  1  0.46722562  0.23278664  0.99196444  1  0  -0.639076  0  2.082251  0  0  -0.56779  0  2.349348  0  0  -0.596966  0  2.336325  0  -1.169944  0  -0.314163  -0.54673  0  2.357688  0
O  O108  1  0.02756349  0.38677281  0.24946208  1  0  -0.280413  0  2.363132  0  0  -0.208741  0  2.584413  0  0  -0.226652  0  2.588032  0  -1.100276  0  -0.147845  -0.195885  0  2.581621  0
O  O109  1  0.97243577  0.61322683  0.75053774  1  0  -0.280374  0  2.363231  0  0  -0.208717  0  2.584543  0  0  -0.226629  0  2.588165  0  -1.100659  0  -0.147837  -0.19586  0  2.58175  0
O  O110  1  0.70363373  0.38069603  0.72549537  1  0  -0.540402  0  2.125507  0  0  -0.487149  0  2.350744  0  0  -0.508695  0  2.334701  0  -1.183833  0  -0.32028  -0.472373  0  2.361102  0
O  O111  1  0.29636784  0.61930562  0.27450338  1  0  -0.540363  0  2.125568  0  0  -0.487129  0  2.350732  0  0  -0.508673  0  2.334691  0  -1.183814  0  -0.320302  -0.472359  0  2.361102  0
O  O112  1  0.82230744  0.15668395  0.70638664  1  0  -0.599607  0  1.99736  0  0  -0.544377  0  2.216044  0  0  -0.565396  0  2.205353  0  -1.186544  0  -0.293867  -0.530317  0  2.223499  0
O  O113  1  0.17768873  0.84331569  0.29360927  1  0  -0.599657  0  1.997318  0  0  -0.544378  0  2.216043  0  0  -0.565395  0  2.205357  0  -1.1864  0  -0.29385  -0.530318  0  2.223497  0
O  O114  1  0.24061688  0.95713613  0.09238771  1  0  -0.840209  0  1.87969  0  0  -0.784358  0  2.07998  0  0  -0.805379  0  2.045861  0  -1.269454  0  -0.58441  -0.769573  0  2.104417  0
O  O115  1  0.75938585  0.04286250  0.90761271  1  0  -0.840122  0  1.87977  0  0  -0.784275  0  2.080112  0  0  -0.805279  0  2.045952  0  -1.269415  0  -0.584353  -0.769488  0  2.104549  0
O  O116  1  0.39579280  0.66072542  0.83213475  1  0  -0.852097  0  1.93638  0  0  -0.786459  0  2.151077  0  0  -0.808263  0  2.115057  0  -1.271463  0  -0.590046  -0.770868  0  2.176356  0
O  O117  1  0.60420851  0.33927422  0.16786574  1  0  -0.852137  0  1.936335  0  0  -0.786512  0  2.151059  0  0  -0.808319  0  2.115038  0  -1.27213  0  -0.590073  -0.770911  0  2.176317  0
