# generated using pymatgen
data_Cd3H36C56(NO6)2
_symmetry_space_group_name_H-M   'P 1'
_cell_length_a   9.22265193
_cell_length_b   13.54083845
_cell_length_c   14.13362581
_cell_angle_alpha   63.20850127
_cell_angle_beta   90.82069649
_cell_angle_gamma   73.93744312
_symmetry_Int_Tables_number   1
_chemical_formula_structural   Cd3H36C56(NO6)2
_chemical_formula_sum   'Cd3 H36 C56 N2 O12'
_cell_volume   1494.03816001
_cell_formula_units_Z   1
loop_
 _symmetry_equiv_pos_site_id
 _symmetry_equiv_pos_as_xyz
  1  'x, y, z'
loop_
 _atom_site_type_symbol
 _atom_site_label
 _atom_site_symmetry_multiplicity
 _atom_site_fract_x
 _atom_site_fract_y
 _atom_site_fract_z
 _atom_site_occupancy
 _atom_site_pbe_bader_charge
 _atom_site_pbe_bader_spin_density
 _atom_site_pbe_cm5_charge
 _atom_site_pbe_ddec_charge
 _atom_site_pbe_ddec_spin_density
 _atom_site_pbe_ddec_sum_bond_order
 _atom_site_pbe_magmom
Cd  Cd0  1  0.40225208  0.88358915  0.08590555  1  1.289867  0  0.779547  0.946225  0  2.146299  0
Cd  Cd1  1  0.59775158  0.11640528  0.91409868  1  1.289787  0  0.779549  0.946204  0  2.146315  0
Cd  Cd2  1  0.99999551  0.00000399  0.99999805  1  1.382417  0  0.792037  1.093711  0  2.180012  0
H  H3  1  0.92413888  0.31639685  0.40060038  1  0.048654  0  0.10797  0.090016  0  0.959054  0
H  H4  1  0.07586472  0.68360544  0.59939549  1  0.048595  0  0.107973  0.090082  0  0.958997  0
H  H5  1  0.30715411  0.10083004  0.45580251  1  0.0798  0  0.099161  0.103288  0  1.013273  0
H  H6  1  0.69284588  0.89917312  0.54419368  1  0.079774  0  0.099151  0.10327  0  1.013268  0
H  H7  1  0.37841595  0.99145251  0.35184861  1  0.108683  0  0.103099  0.107536  0  1.008519  0
H  H8  1  0.62158123  0.00853931  0.64815885  1  0.10874  0  0.103127  0.107569  0  1.008491  0
H  H9  1  0.95963095  0.20431583  0.12995560  1  0.081146  0  0.104036  0.110845  0  0.997908  0
H  H10  1  0.04037156  0.79567599  0.87004551  1  0.081103  0  0.104019  0.110918  0  0.997818  0
H  H11  1  0.88795713  0.31578003  0.23244849  1  0.039707  0  0.097958  0.10054  0  1.001137  0
H  H12  1  0.11204752  0.68421702  0.76754753  1  0.039459  0  0.097967  0.100541  0  1.00108  0
H  H13  1  0.93882930  0.13839984  0.56213654  1  0.058866  0  0.102997  0.108093  0  0.992611  0
H  H14  1  0.06117464  0.86160157  0.43785830  1  0.058655  0  0.102968  0.108075  0  0.992503  0
H  H15  1  0.04145275  0.01943821  0.75722352  1  0.100432  0  0.10143  0.100909  0  1.044754  0
H  H16  1  0.95854213  0.98056409  0.24277019  1  0.100387  0  0.101423  0.100877  0  1.044807  0
H  H17  1  0.40769631  0.16718350  0.71124120  1  0.129146  0  0.103329  0.112431  0  1.031832  0
H  H18  1  0.59230046  0.83281443  0.28876008  1  0.129098  0  0.10336  0.112452  0  1.031733  0
H  H19  1  0.30305148  0.28975150  0.51700103  1  0.082816  0  0.101065  0.107088  0  1.009857  0
H  H20  1  0.69695326  0.71024816  0.48300023  1  0.082938  0  0.101066  0.107074  0  1.009911  0
H  H21  1  0.90523299  0.49735065  0.40190011  1  0.066383  0  0.101967  0.106482  0  0.993062  0
H  H22  1  0.09477105  0.50264552  0.59810478  1  0.066282  0  0.101978  0.106509  0  0.993074  0
H  H23  1  0.95631520  0.68664255  0.30420229  1  0.098139  0  0.09886  0.099905  0  1.048842  0
H  H24  1  0.04367799  0.31335886  0.69580029  1  0.098192  0  0.098898  0.099982  0  1.048806  0
H  H25  1  0.34212678  0.52327195  0.20038866  1  0.069104  0  0.097325  0.098371  0  1.015142  0
H  H26  1  0.65786819  0.47673819  0.79960732  1  0.069107  0  0.097305  0.098328  0  1.015208  0
H  H27  1  0.28241355  0.33570859  0.28858281  1  0.087842  0  0.097468  0.100252  0  1.018225  0
H  H28  1  0.71758972  0.66429718  0.71141367  1  0.087815  0  0.097482  0.100259  0  1.01836  0
H  H29  1  0.77309920  0.78706495  0.11252645  1  0.114679  0  0.11774  0.094691  0  1.02335  0
H  H30  1  0.22690848  0.21293034  0.88748025  1  0.114854  0  0.117717  0.094687  0  1.023283  0
H  H31  1  0.97319249  0.65006054  0.07849575  1  0.090752  0  0.108484  0.113777  0  1.02649  0
H  H32  1  0.02681405  0.34993737  0.92150628  1  0.090822  0  0.108485  0.113712  0  1.026502  0
H  H33  1  0.61579578  0.56646673  0.95686784  1  0.061755  0  0.105606  0.111141  0  1.002744  0
H  H34  1  0.38420783  0.43353817  0.04312760  1  0.061626  0  0.105577  0.111097  0  1.002781  0
H  H35  1  0.42682770  0.70976016  0.99764614  1  0.111961  0  0.117908  0.094073  0  0.989178  0
H  H36  1  0.57317669  0.29024037  0.00235545  1  0.111895  0  0.117935  0.094166  0  0.989182  0
H  H37  1  0.87543013  0.46832868  0.95630506  1  0.052236  0  0.103373  0.097962  0  1.022229  0
H  H38  1  0.12457421  0.53167709  0.04369001  1  0.05224  0  0.10337  0.097922  0  1.022252  0
C  C39  1  0.04977247  0.29101873  0.40680320  1  0.012345  0  -0.069505  -0.113688  0  3.915839  0
C  C40  1  0.95023111  0.70898094  0.59319239  1  0.012384  0  -0.069582  -0.113992  0  3.915946  0
C  C41  1  0.09337178  0.21669558  0.35029935  1  0.002757  0  -0.001993  0.101937  0  3.941706  0
C  C42  1  0.90662961  0.78330671  0.64969439  1  0.003205  0  -0.001933  0.102047  0  3.941789  0
C  C43  1  0.23090684  0.12444839  0.38393286  1  -0.073068  0  -0.09597  -0.148085  0  3.993922  0
C  C44  1  0.76909354  0.87555390  0.61606583  1  -0.073137  0  -0.095965  -0.148096  0  3.994207  0
C  C45  1  0.27098002  0.06260797  0.32654208  1  -0.023381  0  -0.084493  -0.08457  0  3.973853  0
C  C46  1  0.72902142  0.93738647  0.67345931  1  -0.02333  0  -0.08453  -0.084593  0  3.974061  0
C  C47  1  0.17390837  0.09190089  0.23425160  1  -0.048375  0  -0.02188  -0.041434  0  3.973261  0
C  C48  1  0.82609167  0.90809442  0.76575224  1  -0.048416  0  -0.021838  -0.04143  0  3.973405  0
C  C49  1  0.03527178  0.18321503  0.20104347  1  -0.027692  0  -0.083786  -0.081918  0  3.981154  0
C  C50  1  0.96472823  0.81678028  0.79895825  1  -0.027988  0  -0.083825  -0.082124  0  3.981267  0
C  C51  1  0.99571045  0.24442437  0.25873602  1  -0.08525  0  -0.096179  -0.149066  0  3.997779  0
C  C52  1  0.00429201  0.75557530  0.74125745  1  -0.085022  0  -0.096178  -0.148962  0  3.997783  0
C  C53  1  0.21748724  0.02783425  0.17073176  1  1.568082  0  0.204659  0.581528  0  4.204671  0
C  C54  1  0.78250916  0.97216193  0.82927027  1  1.568326  0  0.204679  0.581644  0  4.204783  0
C  C55  1  0.11401244  0.22238142  0.52610475  1  -0.087039  0  -0.000224  0.102612  0  3.948708  0
C  C56  1  0.88598897  0.77762086  0.47389041  1  -0.087127  0  -0.000197  0.102676  0  3.948641  0
C  C57  1  0.04132382  0.14543506  0.59472737  1  0.038475  0  -0.090168  -0.141417  0  3.974131  0
C  C58  1  0.95867686  0.85456636  0.40526745  1  0.038765  0  -0.090109  -0.141378  0  3.97398  0
C  C59  1  0.09823674  0.07830565  0.70369794  1  -0.040052  0  -0.079284  -0.063128  0  3.964396  0
C  C60  1  0.90175707  0.92169403  0.29629832  1  -0.039903  0  -0.079347  -0.063164  0  3.964348  0
C  C61  1  0.22931281  0.08674322  0.74694167  1  -0.076514  0  -0.024547  -0.052032  0  3.990826  0
C  C62  1  0.77067815  0.91325821  0.25305666  1  -0.076799  0  -0.024489  -0.051944  0  3.990702  0
C  C63  1  0.30349685  0.16252701  0.67880364  1  -0.047421  0  -0.082721  -0.085482  0  3.969671  0
C  C64  1  0.69650243  0.83747004  0.32119661  1  -0.047231  0  -0.082729  -0.085494  0  3.969477  0
C  C65  1  0.24569768  0.22998851  0.56931517  1  -0.047432  0  -0.095682  -0.149201  0  3.98553  0
C  C66  1  0.75430305  0.77001029  0.43068432  1  -0.047557  0  -0.095674  -0.14917  0  3.985556  0
C  C67  1  0.28320853  0.01783581  0.86460410  1  1.521291  0  0.20889  0.592676  0  4.156576  0
C  C68  1  0.71678391  0.98216474  0.13539673  1  1.521247  0  0.208885  0.59258  0  4.156662  0
C  C69  1  0.08864566  0.40405818  0.35029603  1  -0.084571  0  -0.005172  0.094943  0  3.948268  0
C  C70  1  0.91135801  0.59594148  0.64970664  1  -0.084917  0  -0.005167  0.095014  0  3.94815  0
C  C71  1  0.99986980  0.50309386  0.35617839  1  0.020079  0  -0.092478  -0.141383  0  3.983493  0
C  C72  1  0.00013094  0.49690494  0.64382252  1  0.02037  0  -0.09249  -0.141395  0  3.98348  0
C  C73  1  0.02895171  0.60889714  0.30275013  1  -0.082971  0  -0.086099  -0.092067  0  3.987323  0
C  C74  1  0.97104474  0.39110428  0.69725247  1  -0.083011  0  -0.086162  -0.092281  0  3.987297  0
C  C75  1  0.15099002  0.61684612  0.24476308  1  -0.04155  0  -0.022336  -0.039138  0  3.975077  0
C  C76  1  0.84899990  0.38315792  0.75523623  1  -0.041937  0  -0.022334  -0.038944  0  3.974833  0
C  C77  1  0.24506781  0.51674104  0.24348001  1  -0.115054  0  -0.092981  -0.106986  0  4.016691  0
C  C78  1  0.75492937  0.48326386  0.75652108  1  -0.114619  0  -0.092923  -0.106925  0  4.016765  0
C  C79  1  0.21244401  0.41188607  0.29403901  1  -0.023679  0  -0.097382  -0.144976  0  4.001781  0
C  C80  1  0.78755423  0.58811883  0.70596066  1  -0.023744  0  -0.097398  -0.145007  0  4.001854  0
C  C81  1  0.17561974  0.73230617  0.17804164  1  1.601231  0  0.208323  0.597124  0  4.197063  0
C  C82  1  0.82436588  0.26769788  0.82196119  1  1.601331  0  0.208263  0.596815  0  4.197235  0
C  C83  1  0.74242692  0.73602273  0.07903732  1  0.520062  0  0.04995  0.109624  0  3.934182  0
C  C84  1  0.25758221  0.26397169  0.92097047  1  0.519823  0  0.050006  0.109535  0  3.934192  0
C  C85  1  0.85432724  0.65887431  0.05895158  1  -0.062607  0  -0.073298  -0.14675  0  3.899118  0
C  C86  1  0.14567821  0.34112360  0.94104973  1  -0.062577  0  -0.073285  -0.146549  0  3.899021  0
C  C87  1  0.81256787  0.59469415  0.01451114  1  0.051259  0  0.009106  0.144789  0  4.02998  0
C  C88  1  0.18743396  0.40530726  0.98548865  1  0.050963  0  0.009081  0.144673  0  4.029927  0
C  C89  1  0.65502246  0.61356287  0.99201479  1  -0.051348  0  -0.08707  -0.188557  0  3.950948  0
C  C90  1  0.34498227  0.38643941  0.00798463  1  -0.051007  0  -0.087055  -0.188481  0  3.950859  0
C  C91  1  0.54961050  0.69272554  0.01413544  1  0.477854  0  0.044101  0.096116  0  3.96904  0
C  C92  1  0.45039535  0.30727411  0.98586795  1  0.477727  0  0.044048  0.095989  0  3.969235  0
C  C93  1  0.92343208  0.51210951  0.99126140  1  0.004133  0  -0.075018  -0.109327  0  3.951148  0
C  C94  1  0.07657263  0.48789277  0.00873590  1  -0.039998  0  -0.075044  -0.109324  0  3.951161  0
N  N95  1  0.59230276  0.75310956  0.05731556  1  -1.223156  0  -0.329113  -0.235507  0  3.492124  0
N  N96  1  0.40770565  0.24688660  0.94269148  1  -1.222934  0  -0.329121  -0.2355  0  3.492382  0
O  O97  1  0.33472228  0.93622787  0.21141681  1  -1.137469  0  -0.325378  -0.539331  0  2.257986  0
O  O98  1  0.66528209  0.06376743  0.78858634  1  -1.137587  0  -0.325374  -0.539367  0  2.258135  0
O  O99  1  0.13827920  0.06948622  0.07884596  1  -1.194297  0  -0.334608  -0.604494  0  2.336111  0
O  O100  1  0.86171795  0.93050037  0.92116236  1  -1.194347  0  -0.334656  -0.604609  0  2.336114  0
O  O101  1  0.21784938  0.94397588  0.92326253  1  -1.173223  0  -0.336415  -0.597213  0  2.289569  0
O  O102  1  0.78213914  0.05603165  0.07673880  1  -1.173129  0  -0.336426  -0.597167  0  2.289478  0
O  O103  1  0.39352021  0.03179190  0.90774596  1  -1.175745  0  -0.323625  -0.570293  0  2.354966  0
O  O104  1  0.60648405  0.96820080  0.09225053  1  -1.175808  0  -0.323626  -0.57028  0  2.355171  0
O  O105  1  0.05785274  0.82250594  0.14499615  1  -1.169235  0  -0.32657  -0.567095  0  2.291881  0
O  O106  1  0.94213531  0.17749723  0.85499999  1  -1.168964  0  -0.326523  -0.566967  0  2.291748  0
O  O107  1  0.31010703  0.72918284  0.15806983  1  -1.167555  0  -0.336392  -0.578628  0  2.299664  0
O  O108  1  0.68988551  0.27082294  0.84193510  1  -1.1677  0  -0.336353  -0.578471  0  2.299885  0
