# generated using pymatgen
data_ZnH5C14NO5
_symmetry_space_group_name_H-M   'P 1'
_cell_length_a   14.02416840
_cell_length_b   14.84925045
_cell_length_c   16.19620839
_cell_angle_alpha   89.63076506
_cell_angle_beta   90.45588454
_cell_angle_gamma   99.48252702
_symmetry_Int_Tables_number   1
_chemical_formula_structural   ZnH5C14NO5
_chemical_formula_sum   'Zn2 H10 C28 N2 O10'
_cell_volume   3326.59715413
_cell_formula_units_Z   2
loop_
 _symmetry_equiv_pos_site_id
 _symmetry_equiv_pos_as_xyz
  1  'x, y, z'
loop_
 _atom_site_type_symbol
 _atom_site_label
 _atom_site_symmetry_multiplicity
 _atom_site_fract_x
 _atom_site_fract_y
 _atom_site_fract_z
 _atom_site_occupancy
 _atom_site_pbe_bader_charge
 _atom_site_pbe_bader_spin_density
 _atom_site_pbe_cm5_charge
 _atom_site_pbe_ddec_charge
 _atom_site_pbe_ddec_spin_density
 _atom_site_pbe_ddec_sum_bond_order
 _atom_site_pbe_magmom
Zn  Zn0  1  0.49456817  0.40457320  0.50026440  1  1.32157  0  0.681772  0.890794  0  2.417518  0
Zn  Zn1  1  0.50543943  0.59545080  0.49975169  1  1.323469  0  0.681861  0.890951  0  2.417108  0
H  H2  1  0.49843240  0.35479546  0.07807768  1  0.084117  0  0.109522  0.112779  0  0.983759  0
H  H3  1  0.61404510  0.09839109  0.59414836  1  0.106421  0  0.13322  0.138156  0  0.952943  0
H  H4  1  0.50156923  0.64515763  0.92193737  1  0.077746  0  0.10948  0.112659  0  0.983819  0
H  H5  1  0.49887786  0.35436150  0.92447841  1  0.087188  0  0.110001  0.113247  0  0.983766  0
H  H6  1  0.50113360  0.64559995  0.07553232  1  0.087619  0  0.109873  0.113229  0  0.983524  0
H  H7  1  0.39050961  0.07048711  0.40624434  1  0.126239  0  0.132469  0.137013  0  0.955793  0
H  H8  1  0.60946297  0.92953774  0.59373027  1  0.126964  0  0.132455  0.136916  0  0.955896  0
H  H9  1  0.00068445  0.33071446  0.49984645  1  0.612892  0  0.338244  0.36674  0  0.875643  0
H  H10  1  0.99931569  0.66926180  0.50015371  1  0.612586  0  0.338344  0.366774  0  0.875542  0
H  H11  1  0.38593110  0.90162977  0.40581516  1  0.106217  0  0.133337  0.138447  0  0.952989  0
C  C12  1  0.49997575  0.50069685  0.33924321  1  1.704565  0  0.217761  0.671821  0  4.234328  0
C  C13  1  0.43544459  0.94511969  0.44657895  1  0.004551  0  -0.050369  -0.086739  0  3.917855  0
C  C14  1  0.50322005  0.18951537  0.50066488  1  0.895692  0  0.249257  0.292243  0  3.907837  0
C  C15  1  0.49676233  0.81051309  0.49930172  1  0.894076  0  0.249235  0.29226  0  3.907025  0
C  C16  1  0.31152715  0.47025145  0.49883076  1  1.65614  0  0.214881  0.654723  0  4.253833  0
C  C17  1  0.68847293  0.52974725  0.50117797  1  1.655606  0  0.214931  0.654863  0  4.253527  0
C  C18  1  0.79230829  0.53686376  0.50128168  1  0.134396  0  -0.029748  -0.125015  0  3.930935  0
C  C19  1  0.20769780  0.46313233  0.49872214  1  0.133746  0  -0.029676  -0.125027  0  3.931145  0
C  C20  1  0.97954336  0.53910254  0.50011691  1  0.595362  0  0.075282  0.205265  0  4.140123  0
C  C21  1  0.02046166  0.46086359  0.49988699  1  0.688193  0  0.075323  0.205639  0  4.140197  0
C  C22  1  0.12044836  0.46272554  0.49917361  1  -0.394705  0  -0.050619  -0.121937  0  4.166347  0
C  C23  1  0.50004284  0.49933824  0.66077351  1  1.704058  0  0.217844  0.671655  0  4.234289  0
C  C24  1  0.87955858  0.53725764  0.50083149  1  -0.395349  0  -0.050673  -0.122017  0  4.166476  0
C  C25  1  0.49943362  0.41787155  0.95793317  1  -0.089017  0  -0.078545  -0.118463  0  3.959971  0
C  C26  1  0.50058170  0.58208727  0.04207511  1  -0.088822  0  -0.078161  -0.118425  0  3.959834  0
C  C27  1  0.50027177  0.49969975  0.91279146  1  0.12128  0  0.00484  0.13479  0  4.105853  0
C  C28  1  0.49973123  0.50026222  0.08722233  1  0.1204  0  0.00473  0.134782  0  4.105537  0
C  C29  1  0.50085845  0.58182795  0.95646377  1  0.038404  0  -0.077895  -0.118895  0  3.960049  0
C  C30  1  0.49914442  0.41812858  0.04354942  1  0.031549  0  -0.077932  -0.119116  0  3.9596  0
C  C31  1  0.50035762  0.49938865  0.82533591  1  -0.577795  0  -0.035028  -0.059511  0  4.106344  0
C  C32  1  0.49965452  0.50060481  0.17467658  1  -0.577096  0  -0.035007  -0.059405  0  4.106256  0
C  C33  1  0.49975494  0.50084442  0.24995463  1  0.206744  0  -0.045518  -0.17698  0  3.961853  0
C  C34  1  0.50026358  0.49917636  0.75006336  1  0.207044  0  -0.045521  -0.176855  0  3.961859  0
C  C35  1  0.43791304  0.03891686  0.44683523  1  0.028462  0  -0.049775  -0.087224  0  3.919072  0
C  C36  1  0.56206533  0.96110881  0.55312952  1  0.029275  0  -0.049642  -0.087208  0  3.919351  0
C  C37  1  0.50233383  0.09364913  0.50027252  1  0.090556  0  0.027367  0.062298  0  4.081487  0
C  C38  1  0.49764413  0.90637857  0.49969037  1  0.079382  0  0.027374  0.062535  0  4.081718  0
C  C39  1  0.56453202  0.05490390  0.55338395  1  -0.007106  0  -0.050267  -0.086271  0  3.917326  0
N  N40  1  0.49797266  0.73259835  0.49933866  1  -1.145774  0  -0.256062  -0.257419  0  3.084424  0
N  N41  1  0.50201786  0.26742678  0.50064959  1  -1.14643  0  -0.255977  -0.257258  0  3.085029  0
O  O42  1  0.49434990  0.42297522  0.37445320  1  -1.138886  0  -0.31703  -0.550103  0  2.253677  0
O  O43  1  0.04033254  0.62234844  0.49943526  1  -1.090446  0  -0.351746  -0.434699  0  2.228576  0
O  O44  1  0.50566082  0.57707332  0.62557148  1  -1.138535  0  -0.317308  -0.550228  0  2.253034  0
O  O45  1  0.50574540  0.57819463  0.37402750  1  -1.135398  0  -0.318287  -0.549691  0  2.253064  0
O  O46  1  0.49428242  0.42185426  0.62598179  1  -1.13453  0  -0.31816  -0.549506  0  2.253388  0
O  O47  1  0.34641835  0.39618059  0.49910738  1  -1.133421  0  -0.320582  -0.547848  0  2.23686  0
O  O48  1  0.65359511  0.60383059  0.50090754  1  -1.133032  0  -0.320546  -0.547938  0  2.236618  0
O  O49  1  0.35815639  0.55153886  0.49871202  1  -1.138019  0  -0.313839  -0.545992  0  2.266044  0
O  O50  1  0.64184837  0.44846267  0.50128746  1  -1.137642  0  -0.31383  -0.545992  0  2.266202  0
O  O51  1  0.95966545  0.37762301  0.50056800  1  -1.090507  0  -0.351658  -0.434818  0  2.228945  0
