# generated using pymatgen
data_CdMo2H14C6S4(NO4)2
_symmetry_space_group_name_H-M   'P 1'
_cell_length_a   8.61327327
_cell_length_b   9.99480197
_cell_length_c   10.17262570
_cell_angle_alpha   90.00014850
_cell_angle_beta   89.99997016
_cell_angle_gamma   104.99805769
_symmetry_Int_Tables_number   1
_chemical_formula_structural   CdMo2H14C6S4(NO4)2
_chemical_formula_sum   'Cd2 Mo4 H28 C12 S8 N4 O16'
_cell_volume   845.90814786
_cell_formula_units_Z   2
loop_
 _symmetry_equiv_pos_site_id
 _symmetry_equiv_pos_as_xyz
  1  'x, y, z'
loop_
 _atom_site_type_symbol
 _atom_site_label
 _atom_site_symmetry_multiplicity
 _atom_site_fract_x
 _atom_site_fract_y
 _atom_site_fract_z
 _atom_site_occupancy
 _atom_site_hle17_bader_spin_density
 _atom_site_hle17_ddec_charge
 _atom_site_hle17_ddec_spin_density
 _atom_site_hle17_ddec_sum_bond_order
 _atom_site_hle17_magmom
 _atom_site_hse06_10hf_bader_spin_density
 _atom_site_hse06_10hf_ddec_charge
 _atom_site_hse06_10hf_ddec_spin_density
 _atom_site_hse06_10hf_ddec_sum_bond_order
 _atom_site_hse06_10hf_magmom
 _atom_site_hse06_bader_spin_density
 _atom_site_hse06_ddec_charge
 _atom_site_hse06_ddec_spin_density
 _atom_site_hse06_ddec_sum_bond_order
 _atom_site_hse06_magmom
 _atom_site_pbe_bader_spin_density
 _atom_site_pbe_cm5_charge
 _atom_site_pbe_ddec_charge
 _atom_site_pbe_ddec_spin_density
 _atom_site_pbe_ddec_sum_bond_order
 _atom_site_pbe_magmom
Cd  Cd0  1  0.01537775  0.82560300  0.86486820  1  0  1.005434  0  1.822771  0  0  0.853735  0  2.260946  0  0  0.900811  0  2.217582  0  0  0.637311  0.820523  0  2.290475  0
Cd  Cd1  1  0.98462421  0.17439273  0.36486450  1  0  1.005372  0  1.822868  0  0  0.85365  0  2.261067  0  0  0.900729  0  2.217703  0  0  0.637277  0.820438  0  2.290595  0
Mo  Mo2  1  0.44181756  0.81362864  0.87318453  1  0  1.262183  0  4.266679  0  0  1.24958  0  4.82016  0  0  1.308005  0  4.823673  0  0  1.076092  1.210649  0  4.81706  0
Mo  Mo3  1  0.55818541  0.18637436  0.37318301  1  0  1.262244  0  4.266611  0  0  1.249653  0  4.820088  0  0  1.308083  0  4.823595  0  0  1.076138  1.210719  0  4.816993  0
Mo  Mo4  1  0.60910175  0.61011861  0.92954432  1  0  1.254164  0  4.26058  0  0  1.248226  0  4.807949  0  0  1.305866  0  4.810876  0  0  1.07791  1.209467  0  4.805507  0
Mo  Mo5  1  0.39089944  0.38988247  0.42954437  1  0  1.254231  0  4.26053  0  0  1.248282  0  4.807912  0  0  1.305929  0  4.810827  0  0  1.07793  1.209519  0  4.80548  0
H  H6  1  0.50873330  0.22930415  0.79984382  1  0  0.097678  0  0.938093  0  0  0.112162  0  0.992597  0  0  0.114778  0  0.991002  0  0  0.108456  0.110273  0  0.993643  0
H  H7  1  0.49125921  0.77069865  0.29984380  1  0  0.097659  0  0.938126  0  0  0.11217  0  0.992552  0  0  0.114799  0  0.99096  0  0  0.108462  0.110269  0  0.993615  0
H  H8  1  0.54915056  0.03224597  0.68754611  1  0  0.286993  0  0.930178  0  0  0.275575  0  0.994786  0  0  0.282638  0  0.98995  0  0  0.271331  0.270372  0  0.998687  0
H  H9  1  0.45085005  0.96775652  0.18754365  1  0  0.286955  0  0.930221  0  0  0.275539  0  0.994834  0  0  0.282601  0  0.989999  0  0  0.271301  0.270335  0  0.998734  0
H  H10  1  0.59676085  0.49089179  0.17982426  1  0  0.306881  0  0.906745  0  0  0.296202  0  0.967367  0  0  0.302967  0  0.962885  0  0  0.290184  0.291541  0  0.97043  0
H  H11  1  0.40323945  0.50910965  0.67982306  1  0  0.306904  0  0.906735  0  0  0.29622  0  0.967367  0  0  0.302987  0  0.962885  0  0  0.290199  0.291563  0  0.970428  0
H  H12  1  0.65294497  0.38817231  0.07025556  1  0  0.322246  0  0.894577  0  0  0.307074  0  0.958591  0  0  0.315463  0  0.951887  0  0  0.295293  0.301259  0  0.963262  0
H  H13  1  0.34705446  0.61182986  0.57025562  1  0  0.32228  0  0.894548  0  0  0.307078  0  0.9586  0  0  0.315467  0  0.951904  0  0  0.295298  0.301263  0  0.963272  0
H  H14  1  0.82432869  0.00286643  0.90961847  1  0  0.419385  0  0.886921  0  0  0.388831  0  0.95385  0  0  0.399216  0  0.93904  0  0  0.291487  0.381543  0  0.964259  0
H  H15  1  0.17566957  0.99713252  0.40961817  1  0  0.419512  0  0.886696  0  0  0.38898  0  0.953592  0  0  0.399382  0  0.938743  0  0  0.291459  0.38168  0  0.964023  0
H  H16  1  0.22780901  0.12339111  0.86085356  1  0  0.108967  0  0.947072  0  0  0.126193  0  1.004272  0  0  0.127517  0  1.004213  0  0  0.103732  0.125299  0  1.004292  0
H  H17  1  0.77218776  0.87660668  0.36085270  1  0  0.108963  0  0.947087  0  0  0.126192  0  1.004283  0  0  0.127516  0  1.004221  0  0  0.103733  0.125297  0  1.004303  0
H  H18  1  0.33832894  0.18866622  0.00466071  1  0  0.114822  0  0.939643  0  0  0.135696  0  0.99192  0  0  0.137448  0  0.99114  0  0  0.092976  0.134486  0  0.992344  0
H  H19  1  0.66166583  0.81133577  0.50465917  1  0  0.114803  0  0.939573  0  0  0.135658  0  0.991879  0  0  0.137409  0  0.991099  0  0  0.092968  0.134449  0  0.9923  0
H  H20  1  0.86828177  0.50215316  0.22852649  1  0  0.089668  0  0.929304  0  0  0.102136  0  0.985092  0  0  0.104667  0  0.98363  0  0  0.110789  0.10024  0  0.986468  0
H  H21  1  0.13171621  0.49784841  0.72852440  1  0  0.089666  0  0.929314  0  0  0.102148  0  0.985078  0  0  0.104679  0  0.983617  0  0  0.110794  0.100254  0  0.986451  0
H  H22  1  0.93175111  0.40597421  0.01860612  1  0  0.121292  0  0.921847  0  0  0.138776  0  0.974972  0  0  0.140639  0  0.973646  0  0  0.107239  0.137479  0  0.975797  0
H  H23  1  0.06824823  0.59402368  0.51860331  1  0  0.121237  0  0.921899  0  0  0.138758  0  0.974985  0  0  0.14062  0  0.973656  0  0  0.107238  0.137461  0  0.975812  0
H  H24  1  0.07220421  0.56966008  0.04309577  1  0  0.105098  0  0.940822  0  0  0.122631  0  1.002081  0  0  0.1233  0  1.002579  0  0  0.095828  0.122022  0  1.001974  0
H  H25  1  0.92779513  0.43033787  0.54309414  1  0  0.105121  0  0.940762  0  0  0.122644  0  1.002039  0  0  0.123311  0  1.002534  0  0  0.095836  0.122037  0  1.001935  0
H  H26  1  0.97369727  0.10021751  0.82812141  1  0  0.444274  0  0.854437  0  0  0.409839  0  0.923294  0  0  0.421731  0  0.906079  0  0  0.291242  0.401537  0  0.935218  0
H  H27  1  0.02630298  0.89978018  0.32812191  1  0  0.444213  0  0.854525  0  0  0.409781  0  0.923378  0  0  0.421668  0  0.906171  0  0  0.291245  0.40148  0  0.935302  0
H  H28  1  0.35234510  0.00363459  0.70149728  1  0  0.316738  0  0.884513  0  0  0.305605  0  0.943355  0  0  0.313623  0  0.936897  0  0  0.297231  0.299888  0  0.948029  0
H  H29  1  0.64765342  0.99636483  0.20149382  1  0  0.316773  0  0.884442  0  0  0.305641  0  0.943284  0  0  0.313657  0  0.936827  0  0  0.297256  0.299923  0  0.947958  0
H  H30  1  0.05205218  0.92921794  0.58588529  1  0  0.439688  0  0.832771  0  0  0.413256  0  0.89712  0  0  0.423516  0  0.881988  0  0  0.303709  0.405877  0  0.907969  0
H  H31  1  0.94794709  0.07077599  0.08587938  1  0  0.439638  0  0.832716  0  0  0.413212  0  0.897145  0  0  0.423472  0  0.882015  0  0  0.303687  0.405834  0  0.907991  0
H  H32  1  0.17038933  0.83529102  0.60811244  1  0  0.425731  0  0.872785  0  0  0.389319  0  0.950756  0  0  0.40197  0  0.932122  0  0  0.292885  0.38061  0  0.963494  0
H  H33  1  0.82961350  0.16470711  0.10811076  1  0  0.425779  0  0.872649  0  0  0.389358  0  0.950689  0  0  0.402008  0  0.932057  0  0  0.292897  0.380651  0  0.963426  0
C  C34  1  0.47816308  0.12783465  0.84906403  1  0  0.047992  0  3.627166  0  0  0.027748  0  3.871455  0  0  0.027108  0  3.882389  0  0  -0.009561  0.028205  0  3.863692  0
C  C35  1  0.52183439  0.87216931  0.34906130  1  0  0.047967  0  3.6273  0  0  0.027817  0  3.871398  0  0  0.027122  0  3.882429  0  0  -0.009548  0.028277  0  3.863635  0
C  C36  1  0.61246132  0.11726634  0.94180405  1  0  0.654322  0  3.776635  0  0  0.603786  0  4.073652  0  0  0.637135  0  4.066108  0  0  0.223203  0.581511  0  4.077828  0
C  C37  1  0.38753903  0.88273581  0.44180534  1  0  0.654264  0  3.776943  0  0  0.603782  0  4.073869  0  0  0.637127  0  4.066356  0  0  0.223245  0.581513  0  4.078027  0
C  C38  1  0.32316649  0.11032115  0.92686008  1  0  -0.119321  0  3.571642  0  0  -0.160678  0  3.827548  0  0  -0.157977  0  3.836676  0  0  -0.15372  -0.162581  0  3.821148  0
C  C39  1  0.67683123  0.88967993  0.42685831  1  0  -0.119267  0  3.571532  0  0  -0.160627  0  3.827385  0  0  -0.157911  0  3.83653  0  0  -0.153723  -0.162532  0  3.820988  0
C  C40  1  0.83900405  0.54795151  0.13675281  1  0  0.055149  0  3.607827  0  0  0.035196  0  3.851878  0  0  0.034586  0  3.862716  0  0  -0.00885  0.035509  0  3.844792  0
C  C41  1  0.16099709  0.45204877  0.63675255  1  0  0.055178  0  3.607825  0  0  0.035213  0  3.85189  0  0  0.034599  0  3.862727  0  0  -0.008853  0.03553  0  3.8448  0
C  C42  1  0.86724812  0.70436016  0.15240677  1  0  0.64476  0  3.846831  0  0  0.60045  0  4.148316  0  0  0.63376  0  4.14037  0  0  0.2048  0.577972  0  4.15289  0
C  C43  1  0.13275566  0.29564120  0.65240712  1  0  0.644622  0  3.846892  0  0  0.600325  0  4.148366  0  0  0.633637  0  4.140419  0  0  0.20471  0.577844  0  4.152947  0
C  C44  1  0.94507231  0.51779437  0.02579614  1  0  -0.12673  0  3.57624  0  0  -0.169482  0  3.838051  0  0  -0.166275  0  3.847832  0  0  -0.149004  -0.171591  0  3.831312  0
C  C45  1  0.05492672  0.48220250  0.52579405  1  0  -0.126703  0  3.576221  0  0  -0.169453  0  3.837999  0  0  -0.166255  0  3.847809  0  0  -0.148995  -0.171562  0  3.831264  0
S  S46  1  0.42312142  0.68004007  0.06148046  1  0  -0.522404  0  1.995886  0  0  -0.569777  0  2.372386  0  0  -0.585295  0  2.37219  0  0  -0.37923  -0.55888  0  2.372165  0
S  S47  1  0.57688211  0.31996415  0.56147773  1  0  -0.522425  0  1.995833  0  0  -0.569795  0  2.372327  0  0  -0.585307  0  2.372124  0  0  -0.379225  -0.558896  0  2.372112  0
S  S48  1  0.66235387  0.77299094  0.75979089  1  0  -0.617961  0  2.069404  0  0  -0.649435  0  2.45698  0  0  -0.668512  0  2.454429  0  0  -0.399711  -0.636354  0  2.458783  0
S  S49  1  0.33764877  0.22701071  0.25979056  1  0  -0.617982  0  2.069471  0  0  -0.64947  0  2.457071  0  0  -0.668549  0  2.454524  0  0  -0.399705  -0.636383  0  2.458873  0
S  S50  1  0.26730926  0.93870098  0.00567222  1  0  -0.371521  0  2.199838  0  0  -0.337061  0  2.569516  0  0  -0.35567  0  2.564063  0  0  -0.192307  -0.323963  0  2.573065  0
S  S51  1  0.73269015  0.06130102  0.50566877  1  0  -0.371525  0  2.19986  0  0  -0.337074  0  2.569527  0  0  -0.355678  0  2.56407  0  0  -0.19229  -0.323975  0  2.573079  0
S  S52  1  0.88120384  0.57194879  0.86644546  1  0  -0.324861  0  2.218406  0  0  -0.290136  0  2.588449  0  0  -0.310954  0  2.584485  0  0  -0.172153  -0.276126  0  2.591089  0
S  S53  1  0.11879642  0.42804901  0.36644376  1  0  -0.324856  0  2.21844  0  0  -0.290136  0  2.588497  0  0  -0.310952  0  2.584532  0  0  -0.172156  -0.27612  0  2.591134  0
N  N54  1  0.45615912  0.01218623  0.75469101  1  0  -0.601595  0  3.142962  0  0  -0.568528  0  3.379207  0  0  -0.587679  0  3.384126  0  0  -0.635176  -0.555791  0  3.376328  0
N  N55  1  0.54384151  0.98781645  0.25468856  1  0  -0.601565  0  3.143019  0  0  -0.568552  0  3.379277  0  0  -0.587686  0  3.384217  0  0  -0.635194  -0.555814  0  3.376394  0
N  N56  1  0.66899396  0.48977907  0.09967483  1  0  -0.601405  0  3.145022  0  0  -0.5649  0  3.381017  0  0  -0.583571  0  3.384439  0  0  -0.638639  -0.552449  0  3.378707  0
N  N57  1  0.33100602  0.51022111  0.59967465  1  0  -0.601485  0  3.145024  0  0  -0.564954  0  3.381034  0  0  -0.583626  0  3.38445  0  0  -0.638656  -0.552522  0  3.378764  0
O  O58  1  0.28380367  0.72698622  0.77964027  1  0  -0.593424  0  1.763997  0  0  -0.569444  0  2.054478  0  0  -0.59922  0  2.059551  0  0  -0.502369  -0.55006  0  2.050913  0
O  O59  1  0.71620098  0.27301446  0.27963595  1  0  -0.593506  0  1.764028  0  0  -0.569495  0  2.054471  0  0  -0.599273  0  2.059543  0  0  -0.50241  -0.550107  0  2.050906  0
O  O60  1  0.49426741  0.46377614  0.85782521  1  0  -0.548342  0  1.622966  0  0  -0.525175  0  1.876153  0  0  -0.551867  0  1.87871  0  0  -0.494009  -0.507995  0  1.874245  0
O  O61  1  0.50573262  0.53622474  0.35782558  1  0  -0.548371  0  1.622938  0  0  -0.5252  0  1.876108  0  0  -0.551904  0  1.878688  0  0  -0.494021  -0.508013  0  1.874198  0
O  O62  1  0.69732014  0.21981894  0.00096546  1  0  -0.568329  0  1.993433  0  0  -0.508832  0  2.208773  0  0  -0.532699  0  2.200637  0  0  -0.282698  -0.492243  0  2.213428  0
O  O63  1  0.30268695  0.78018926  0.50096695  1  0  -0.568227  0  1.99365  0  0  -0.508781  0  2.208992  0  0  -0.532639  0  2.200866  0  0  -0.282723  -0.492177  0  2.213626  0
O  O64  1  0.62793759  0.99225475  0.95683568  1  0  -0.62779  0  2.165322  0  0  -0.565496  0  2.408462  0  0  -0.595601  0  2.404935  0  0  -0.331472  -0.544776  0  2.410497  0
O  O65  1  0.37206231  0.00775365  0.45683380  1  0  -0.627857  0  2.165306  0  0  -0.565639  0  2.408427  0  0  -0.595772  0  2.404977  0  0  -0.331484  -0.544918  0  2.410461  0
O  O66  1  0.96495152  0.76665314  0.23687568  1  0  -0.598676  0  1.961041  0  0  -0.554792  0  2.18234  0  0  -0.57731  0  2.171086  0  0  -0.318321  -0.539212  0  2.189403  0
O  O67  1  0.03505397  0.23334638  0.73687985  1  0  -0.598653  0  1.960967  0  0  -0.554786  0  2.182278  0  0  -0.577304  0  2.171023  0  0  -0.318272  -0.539202  0  2.18934  0
O  O68  1  0.78997998  0.76009758  0.06850915  1  0  -0.638034  0  2.068549  0  0  -0.585029  0  2.320435  0  0  -0.615365  0  2.316377  0  0  -0.339287  -0.563634  0  2.321723  0
O  O69  1  0.21002262  0.23990355  0.56850834  1  0  -0.637947  0  2.068591  0  0  -0.584909  0  2.320399  0  0  -0.615261  0  2.316386  0  0  -0.339255  -0.563513  0  2.321691  0
O  O70  1  0.94293818  0.02676147  0.89873141  1  0  -0.839003  0  1.95258  0  0  -0.763767  0  2.148955  0  0  -0.789028  0  2.115986  0  0  -0.577808  -0.745752  0  2.171449  0
O  O71  1  0.05706177  0.97323538  0.39873110  1  0  -0.839001  0  1.952604  0  0  -0.763772  0  2.148959  0  0  -0.789028  0  2.115998  0  0  -0.577795  -0.74575  0  2.171458  0
O  O72  1  0.10517520  0.88943281  0.65578556  1  0  -0.824043  0  1.925665  0  0  -0.759484  0  2.142615  0  0  -0.779697  0  2.104757  0  0  -0.58737  -0.744865  0  2.168468  0
O  O73  1  0.89482136  0.11055613  0.15578470  1  0  -0.824032  0  1.925524  0  0  -0.759464  0  2.14258  0  0  -0.779677  0  2.104723  0  0  -0.587381  -0.744845  0  2.168428  0
