# generated using pymatgen
data_ZnH16C12N2O9
_symmetry_space_group_name_H-M   'P 1'
_cell_length_a   4.92793179
_cell_length_b   4.92791523
_cell_length_c   29.70105673
_cell_angle_alpha   89.99909235
_cell_angle_beta   89.99908166
_cell_angle_gamma   88.33968312
_symmetry_Int_Tables_number   1
_chemical_formula_structural   ZnH16C12N2O9
_chemical_formula_sum   'Zn2 H32 C24 N4 O18'
_cell_volume   720.97042282
_cell_formula_units_Z   2
loop_
 _symmetry_equiv_pos_site_id
 _symmetry_equiv_pos_as_xyz
  1  'x, y, z'
loop_
 _atom_site_type_symbol
 _atom_site_label
 _atom_site_symmetry_multiplicity
 _atom_site_fract_x
 _atom_site_fract_y
 _atom_site_fract_z
 _atom_site_occupancy
 _atom_site_hle17_bader_spin_density
 _atom_site_hle17_ddec_charge
 _atom_site_hle17_ddec_spin_density
 _atom_site_hle17_ddec_sum_bond_order
 _atom_site_hle17_magmom
 _atom_site_hse06_10hf_bader_spin_density
 _atom_site_hse06_10hf_ddec_charge
 _atom_site_hse06_10hf_ddec_spin_density
 _atom_site_hse06_10hf_ddec_sum_bond_order
 _atom_site_hse06_10hf_magmom
 _atom_site_hse06_bader_spin_density
 _atom_site_hse06_ddec_charge
 _atom_site_hse06_ddec_spin_density
 _atom_site_hse06_ddec_sum_bond_order
 _atom_site_hse06_magmom
 _atom_site_pbe_bader_spin_density
 _atom_site_pbe_cm5_charge
 _atom_site_pbe_ddec_charge
 _atom_site_pbe_ddec_spin_density
 _atom_site_pbe_ddec_sum_bond_order
 _atom_site_pbe_magmom
Zn  Zn0  1  0.23854322  0.76145981  0.75000013  1  0  1.254066  0  1.595669  0  0  1.081936  0  2.051178  0  0  1.12991  0  1.987829  0  0  0.695585  1.047836  0  2.095269  0
Zn  Zn1  1  0.76146062  0.23854369  0.24999978  1  0  1.254075  0  1.59561  0  0  1.081968  0  2.051105  0  0  1.129934  0  1.987763  0  0  0.695586  1.047873  0  2.095192  0
H  H2  1  0.40800687  0.19928749  0.80010299  1  0  0.444118  0  0.853695  0  0  0.407928  0  0.924084  0  0  0.41917  0  0.908118  0  0  0.299429  0.399992  0  0.935328  0
H  H3  1  0.59200255  0.80069805  0.30010211  1  0  0.444028  0  0.853805  0  0  0.407864  0  0.924155  0  0  0.419103  0  0.908192  0  0  0.299437  0.399931  0  0.9354  0
H  H4  1  0.80071993  0.59199146  0.69989760  1  0  0.444046  0  0.853807  0  0  0.407864  0  0.924175  0  0  0.419108  0  0.908212  0  0  0.299404  0.399928  0  0.935421  0
H  H5  1  0.19929626  0.40802063  0.19989678  1  0  0.444097  0  0.853716  0  0  0.407933  0  0.924065  0  0  0.419172  0  0.908101  0  0  0.299404  0.4  0  0.935312  0
H  H6  1  0.56905022  0.90966451  0.81649163  1  0  0.456205  0  0.81501  0  0  0.427324  0  0.879809  0  0  0.437116  0  0.865511  0  0  0.319697  0.420374  0  0.889972  0
H  H7  1  0.43095445  0.09031823  0.31649075  1  0  0.456317  0  0.814881  0  0  0.42743  0  0.879669  0  0  0.437225  0  0.865365  0  0  0.319713  0.42048  0  0.889828  0
H  H8  1  0.09033685  0.43094515  0.68350854  1  0  0.456355  0  0.814766  0  0  0.427417  0  0.879712  0  0  0.43722  0  0.865397  0  0  0.319708  0.420462  0  0.889876  0
H  H9  1  0.90967597  0.56907030  0.18350755  1  0  0.456187  0  0.814992  0  0  0.427293  0  0.879848  0  0  0.437087  0  0.865546  0  0  0.319639  0.420342  0  0.89001  0
H  H10  1  0.96612236  0.22932007  0.73538917  1  0  0.438611  0  0.868718  0  0  0.407144  0  0.931939  0  0  0.418053  0  0.916238  0  0  0.295044  0.399445  0  0.942999  0
H  H11  1  0.03389381  0.77067949  0.23538888  1  0  0.438624  0  0.868698  0  0  0.40715  0  0.931932  0  0  0.418058  0  0.916232  0  0  0.295017  0.399453  0  0.942989  0
H  H12  1  0.77067670  0.03387982  0.76461079  1  0  0.438585  0  0.868772  0  0  0.40711  0  0.932005  0  0  0.418019  0  0.916305  0  0  0.295012  0.399411  0  0.943065  0
H  H13  1  0.22933275  0.96611825  0.26460895  1  0  0.438543  0  0.868825  0  0  0.407083  0  0.932034  0  0  0.417991  0  0.916335  0  0  0.294985  0.399387  0  0.943091  0
H  H14  1  0.07590951  0.06825661  0.84903058  1  0  0.104428  0  0.93187  0  0  0.118768  0  0.993172  0  0  0.12109  0  0.991381  0  0  0.119898  0.117047  0  0.994611  0
H  H15  1  0.92410515  0.93174763  0.34902760  1  0  0.104371  0  0.931872  0  0  0.118694  0  0.993183  0  0  0.121027  0  0.991367  0  0  0.119858  0.116973  0  0.994624  0
H  H16  1  0.93173582  0.92408425  0.65096872  1  0  0.104375  0  0.931797  0  0  0.1187  0  0.99317  0  0  0.121026  0  0.991374  0  0  0.119874  0.116974  0  0.994603  0
H  H17  1  0.06826413  0.07593835  0.15097056  1  0  0.104429  0  0.931773  0  0  0.118685  0  0.993132  0  0  0.121016  0  0.99131  0  0  0.119871  0.116969  0  0.994574  0
H  H18  1  0.25928653  0.30995913  0.88028182  1  0  0.088084  0  0.943501  0  0  0.097831  0  1.014448  0  0  0.099075  0  1.0134  0  0  0.108837  0.09695  0  1.015196  0
H  H19  1  0.74071053  0.69003409  0.38028289  1  0  0.088071  0  0.943509  0  0  0.097818  0  1.014416  0  0  0.099061  0  1.013371  0  0  0.108824  0.096938  0  1.015162  0
H  H20  1  0.69003231  0.74069789  0.61971976  1  0  0.088049  0  0.943538  0  0  0.097802  0  1.014509  0  0  0.099047  0  1.013462  0  0  0.108797  0.096917  0  1.015255  0
H  H21  1  0.30997435  0.25931821  0.11971501  1  0  0.088116  0  0.943509  0  0  0.097847  0  1.014424  0  0  0.099093  0  1.013387  0  0  0.108825  0.096973  0  1.015176  0
H  H22  1  0.39839232  0.07358150  0.93842355  1  0  0.099167  0  0.942232  0  0  0.111232  0  1.001352  0  0  0.11459  0  0.998864  0  0  0.108829  0.108812  0  1.00315  0
H  H23  1  0.60158891  0.92639879  0.43842086  1  0  0.09919  0  0.942331  0  0  0.111212  0  1.001497  0  0  0.114569  0  0.999009  0  0  0.108841  0.108793  0  1.003297  0
H  H24  1  0.92639897  0.60159379  0.56157854  1  0  0.099161  0  0.942265  0  0  0.111211  0  1.001417  0  0  0.11457  0  0.998924  0  0  0.108815  0.108791  0  1.003217  0
H  H25  1  0.07358134  0.39844835  0.06158090  1  0  0.099131  0  0.942318  0  0  0.111119  0  1.001525  0  0  0.114472  0  0.999041  0  0  0.108767  0.108701  0  1.003326  0
H  H26  1  0.06506325  0.06510298  0.00000423  1  0  0.095741  0  0.953753  0  0  0.106351  0  1.015269  0  0  0.109404  0  1.014277  0  0  0.103164  0.103961  0  1.016401  0
H  H27  1  0.93490954  0.93491538  0.49999898  1  0  0.095671  0  0.953868  0  0  0.106293  0  1.015366  0  0  0.109366  0  1.014344  0  0  0.10314  0.1039  0  1.016503  0
H  H28  1  0.76484041  0.76481993  0.00000099  1  0  0.095219  0  0.980573  0  0  0.10009  0  1.054948  0  0  0.104127  0  1.051296  0  0  0.103225  0.09719  0  1.057522  0
H  H29  1  0.23517559  0.23516088  0.50000021  1  0  0.095249  0  0.980497  0  0  0.100109  0  1.054874  0  0  0.104149  0  1.051229  0  0  0.103238  0.097208  0  1.057451  0
H  H30  1  0.80887998  0.06696124  0.90948940  1  0  0.293579  0  0.929591  0  0  0.275621  0  0.997435  0  0  0.283415  0  0.99131  0  0  0.302212  0.270155  0  1.001709  0
H  H31  1  0.19111180  0.93301618  0.40948872  1  0  0.293627  0  0.929556  0  0  0.275647  0  0.997404  0  0  0.283438  0  0.99128  0  0  0.302248  0.270183  0  1.001681  0
H  H32  1  0.93300905  0.19110920  0.59051057  1  0  0.29356  0  0.929704  0  0  0.275522  0  0.997584  0  0  0.283317  0  0.991459  0  0  0.302228  0.270055  0  1.001862  0
H  H33  1  0.06698793  0.80890547  0.09051314  1  0  0.293606  0  0.929609  0  0  0.275396  0  0.997703  0  0  0.283189  0  0.991579  0  0  0.302162  0.269931  0  1.001978  0
C  C34  1  0.02248132  0.48028526  0.82741784  1  0  0.689531  0  3.836103  0  0  0.638164  0  4.141862  0  0  0.671259  0  4.133373  0  0  0.214703  0.615539  0  4.147213  0
C  C35  1  0.97751821  0.51971336  0.32741764  1  0  0.689572  0  3.836027  0  0  0.638186  0  4.141769  0  0  0.671277  0  4.133284  0  0  0.214705  0.615566  0  4.147121  0
C  C36  1  0.51971784  0.97750197  0.67258385  1  0  0.689434  0  3.836096  0  0  0.638146  0  4.141796  0  0  0.671246  0  4.1333  0  0  0.214638  0.615518  0  4.147148  0
C  C37  1  0.48028651  0.02251278  0.17258183  1  0  0.689468  0  3.836369  0  0  0.63813  0  4.141999  0  0  0.671216  0  4.133523  0  0  0.214668  0.615517  0  4.147351  0
C  C38  1  0.06115082  0.26975723  0.86480340  1  0  -0.103165  0  3.675159  0  0  -0.161276  0  3.93182  0  0  -0.160125  0  3.937762  0  0  -0.063657  -0.162035  0  3.927853  0
C  C39  1  0.93885074  0.73023672  0.36480315  1  0  -0.103077  0  3.675206  0  0  -0.161089  0  3.9317  0  0  -0.159937  0  3.937639  0  0  -0.063559  -0.16186  0  3.927763  0
C  C40  1  0.73022864  0.93883904  0.63519594  1  0  -0.102951  0  3.675176  0  0  -0.161105  0  3.931847  0  0  -0.159957  0  3.93779  0  0  -0.063566  -0.161856  0  3.927881  0
C  C41  1  0.26977342  0.06117431  0.13519463  1  0  -0.1032  0  3.675303  0  0  -0.161079  0  3.931526  0  0  -0.159925  0  3.937465  0  0  -0.063583  -0.161873  0  3.927608  0
C  C42  1  0.79736850  0.47242397  0.92640154  1  0  0.538548  0  3.847421  0  0  0.489197  0  4.136591  0  0  0.518373  0  4.136564  0  0  0.238113  0.469584  0  4.136029  0
C  C43  1  0.20263949  0.52756743  0.42640198  1  0  0.538326  0  3.847706  0  0  0.489021  0  4.136838  0  0  0.518192  0  4.136809  0  0  0.23804  0.46942  0  4.136265  0
C  C44  1  0.52754768  0.20262274  0.57359718  1  0  0.538325  0  3.847632  0  0  0.488959  0  4.136827  0  0  0.51812  0  4.136824  0  0  0.238003  0.469355  0  4.136251  0
C  C45  1  0.47243909  0.79737549  0.07359541  1  0  0.538283  0  3.847757  0  0  0.488874  0  4.136968  0  0  0.518038  0  4.136978  0  0  0.237954  0.469273  0  4.136392  0
C  C46  1  0.60027374  0.42984016  0.96399767  1  0  -0.067755  0  3.76669  0  0  -0.041659  0  4.000845  0  0  -0.049675  0  4.023714  0  0  -0.014497  -0.036624  0  3.985426  0
C  C47  1  0.39970971  0.57014435  0.46399139  1  0  -0.067727  0  3.766242  0  0  -0.041625  0  4.000357  0  0  -0.049644  0  4.023227  0  0  -0.014464  -0.036593  0  3.984938  0
C  C48  1  0.57012830  0.39972731  0.53600455  1  0  -0.06773  0  3.766305  0  0  -0.041645  0  4.00048  0  0  -0.049658  0  4.023351  0  0  -0.014528  -0.036611  0  3.985055  0
C  C49  1  0.42985544  0.60030006  0.03600857  1  0  -0.067746  0  3.765919  0  0  -0.041598  0  4.000064  0  0  -0.049647  0  4.022981  0  0  -0.014499  -0.036563  0  3.984646  0
C  C50  1  0.40731906  0.22597447  0.96496509  1  0  -0.054519  0  3.692529  0  0  -0.083503  0  3.946215  0  0  -0.080924  0  3.964366  0  0  -0.076384  -0.084819  0  3.933657  0
C  C51  1  0.59267352  0.77403777  0.46496060  1  0  -0.054589  0  3.692263  0  0  -0.083538  0  3.945949  0  0  -0.080966  0  3.964113  0  0  -0.076428  -0.084855  0  3.933394  0
C  C52  1  0.77402088  0.59267167  0.53503950  1  0  -0.054576  0  3.69205  0  0  -0.083552  0  3.945755  0  0  -0.080976  0  3.963913  0  0  -0.076355  -0.084866  0  3.933194  0
C  C53  1  0.22594376  0.40733273  0.03504069  1  0  -0.054384  0  3.691966  0  0  -0.083317  0  3.945634  0  0  -0.080729  0  3.9638  0  0  -0.07622  -0.084638  0  3.933085  0
C  C54  1  0.21910848  0.21911949  0.00000221  1  0  -0.060479  0  3.732104  0  0  -0.073666  0  3.989576  0  0  -0.078761  0  4.011691  0  0  -0.086972  -0.070406  0  3.974515  0
C  C55  1  0.78088443  0.78089341  0.49999933  1  0  -0.060215  0  3.731904  0  0  -0.073406  0  3.98938  0  0  -0.078511  0  4.011489  0  0  -0.086837  -0.070147  0  3.97432  0
C  C56  1  0.61120956  0.61117756  0.99999740  1  0  -0.068383  0  3.729346  0  0  -0.10467  0  3.975075  0  0  -0.102617  0  3.994592  0  0  -0.074569  -0.105685  0  3.96162  0
C  C57  1  0.38880252  0.38880050  0.49999986  1  0  -0.068513  0  3.72934  0  0  -0.10476  0  3.975068  0  0  -0.102728  0  3.994589  0  0  -0.074659  -0.105774  0  3.961612  0
N  N58  1  0.84987727  0.25935840  0.89853488  1  0  -0.414854  0  3.324754  0  0  -0.359342  0  3.576789  0  0  -0.38067  0  3.585595  0  0  -0.422576  -0.344699  0  3.570341  0
N  N59  1  0.15011644  0.74062368  0.39853291  1  0  -0.414917  0  3.325005  0  0  -0.359378  0  3.577014  0  0  -0.380704  0  3.585832  0  0  -0.422613  -0.34474  0  3.570563  0
N  N60  1  0.74061947  0.15010365  0.60146555  1  0  -0.41489  0  3.324938  0  0  -0.359221  0  3.57703  0  0  -0.380548  0  3.585856  0  0  -0.422543  -0.344584  0  3.570571  0
N  N61  1  0.25937964  0.84990607  0.10146579  1  0  -0.414822  0  3.324889  0  0  -0.359111  0  3.577049  0  0  -0.380425  0  3.585848  0  0  -0.422525  -0.344463  0  3.570603  0
O  O62  1  0.23406474  0.48729645  0.80073754  1  0  -0.705952  0  2.084147  0  0  -0.620248  0  2.347152  0  0  -0.651271  0  2.331319  0  0  -0.328149  -0.598541  0  2.357556  0
O  O63  1  0.76593494  0.51270192  0.30073788  1  0  -0.705978  0  2.084186  0  0  -0.620284  0  2.347196  0  0  -0.651301  0  2.331361  0  0  -0.328172  -0.598579  0  2.357602  0
O  O64  1  0.51270490  0.76592873  0.69926477  1  0  -0.705859  0  2.084403  0  0  -0.620175  0  2.347368  0  0  -0.6512  0  2.331535  0  0  -0.328082  -0.598469  0  2.357774  0
O  O65  1  0.48729947  0.23409032  0.19926130  1  0  -0.705839  0  2.084332  0  0  -0.620211  0  2.347332  0  0  -0.651225  0  2.331496  0  0  -0.328118  -0.598509  0  2.357732  0
O  O66  1  0.81423964  0.62478247  0.82346586  1  0  -0.597337  0  1.973651  0  0  -0.550282  0  2.20473  0  0  -0.572369  0  2.194514  0  0  -0.311733  -0.535013  0  2.211538  0
O  O67  1  0.18575411  0.37520870  0.32346450  1  0  -0.597399  0  1.97362  0  0  -0.55033  0  2.204708  0  0  -0.572419  0  2.194496  0  0  -0.311715  -0.535057  0  2.211513  0
O  O68  1  0.37522500  0.18576146  0.67653705  1  0  -0.597392  0  1.973379  0  0  -0.550384  0  2.204526  0  0  -0.572478  0  2.194307  0  0  -0.311727  -0.535107  0  2.211323  0
O  O69  1  0.62478530  0.81426479  0.17653475  1  0  -0.597362  0  1.973625  0  0  -0.550346  0  2.20474  0  0  -0.572439  0  2.194535  0  0  -0.311726  -0.535073  0  2.211538  0
O  O70  1  0.90727389  0.69600537  0.92142450  1  0  -0.562971  0  1.936021  0  0  -0.515364  0  2.159893  0  0  -0.536396  0  2.154136  0  0  -0.304175  -0.500885  0  2.163438  0
O  O71  1  0.09273262  0.30398038  0.42142381  1  0  -0.562797  0  1.935763  0  0  -0.515292  0  2.159707  0  0  -0.536321  0  2.153953  0  0  -0.304181  -0.500816  0  2.163251  0
O  O72  1  0.30397542  0.09270637  0.57857575  1  0  -0.562755  0  1.935956  0  0  -0.515154  0  2.159852  0  0  -0.536177  0  2.154106  0  0  -0.304112  -0.500681  0  2.163394  0
O  O73  1  0.69602450  0.90728452  0.07857676  1  0  -0.562884  0  1.935757  0  0  -0.515232  0  2.159666  0  0  -0.536255  0  2.153914  0  0  -0.30415  -0.500757  0  2.163209  0
O  O74  1  0.48947105  0.01559916  0.79143793  1  0  -0.853847  0  1.970807  0  0  -0.780815  0  2.184814  0  0  -0.804595  0  2.150049  0  0  -0.553925  -0.764045  0  2.208949  0
O  O75  1  0.51054534  0.98437429  0.29143545  1  0  -0.853817  0  1.970774  0  0  -0.780863  0  2.184794  0  0  -0.804642  0  2.150034  0  0  -0.553976  -0.764092  0  2.208927  0
O  O76  1  0.98440421  0.51051942  0.70856268  1  0  -0.853897  0  1.970663  0  0  -0.780836  0  2.184667  0  0  -0.804632  0  2.149886  0  0  -0.553924  -0.764054  0  2.208814  0
O  O77  1  0.01561389  0.48947368  0.20856307  1  0  -0.853781  0  1.970786  0  0  -0.780759  0  2.184797  0  0  -0.804539  0  2.150039  0  0  -0.553828  -0.763997  0  2.20892  0
O  O78  1  0.95232950  0.04766126  0.74999908  1  0  -0.899897  0  1.982496  0  0  -0.831474  0  2.228114  0  0  -0.854269  0  2.189181  0  0  -0.603736  -0.815374  0  2.254991  0
O  O79  1  0.04767815  0.95233589  0.24999914  1  0  -0.899909  0  1.982572  0  0  -0.831475  0  2.228168  0  0  -0.854275  0  2.189241  0  0  -0.603678  -0.815368  0  2.255027  0
