# generated using pymatgen
data_AlH20C23NO5
_symmetry_space_group_name_H-M   'P 1'
_cell_length_a   6.70578959
_cell_length_b   24.85005609
_cell_length_c   29.12206808
_cell_angle_alpha   90.39973833
_cell_angle_beta   88.28788827
_cell_angle_gamma   93.90152390
_symmetry_Int_Tables_number   1
_chemical_formula_structural   AlH20C23NO5
_chemical_formula_sum   'Al4 H80 C92 N4 O20'
_cell_volume   4839.41187962
_cell_formula_units_Z   4
loop_
 _symmetry_equiv_pos_site_id
 _symmetry_equiv_pos_as_xyz
  1  'x, y, z'
loop_
 _atom_site_type_symbol
 _atom_site_label
 _atom_site_symmetry_multiplicity
 _atom_site_fract_x
 _atom_site_fract_y
 _atom_site_fract_z
 _atom_site_occupancy
 _atom_site_pbe_bader_charge
 _atom_site_pbe_bader_spin_density
 _atom_site_pbe_cm5_charge
 _atom_site_pbe_ddec_charge
 _atom_site_pbe_ddec_spin_density
 _atom_site_pbe_ddec_sum_bond_order
 _atom_site_pbe_magmom
Al  Al0  1  0.80656186  0.74994111  0.74634395  1  2.50016  0  0.40199  1.637227  0  2.573158  0
Al  Al1  1  0.19921046  0.25231218  0.25062949  1  2.501792  0  0.39995  1.635498  0  2.575948  0
Al  Al2  1  0.30748459  0.74851832  0.74647055  1  2.501464  0  0.397757  1.646587  0  2.579245  0
Al  Al3  1  0.69819863  0.25104683  0.25034317  1  2.502654  0  0.398238  1.64044  0  2.579836  0
H  H4  1  0.74186373  0.66668437  0.62542369  1  0.111215  0  0.112982  0.115869  0  1.00179  0
H  H5  1  0.24094938  0.32776884  0.37774065  1  0.099015  0  0.110777  0.116497  0  0.990634  0
H  H6  1  0.72772014  0.60172659  0.55921615  1  0.141759  0  0.106721  0.105056  0  1.016411  0
H  H7  1  0.24934349  0.39067511  0.44539668  1  0.093754  0  0.107698  0.10616  0  1.015835  0
H  H8  1  0.30655377  0.55069689  0.59293056  1  0.102503  0  0.106569  0.10555  0  1.016727  0
H  H9  1  0.70241544  0.45403903  0.40295207  1  0.10858  0  0.107604  0.106532  0  1.016163  0
H  H10  1  0.70616031  0.55309589  0.90289008  1  0.06924  0  0.099517  0.097197  0  1.012633  0
H  H11  1  0.29642746  0.44461735  0.09373918  1  0.058018  0  0.098339  0.095562  0  1.01554  0
H  H12  1  0.31604699  0.60424946  0.93298322  1  0.058569  0  0.100084  0.098924  0  1.008653  0
H  H13  1  0.68262618  0.39591748  0.06514067  1  0.061097  0  0.099414  0.096601  0  1.012083  0
H  H14  1  0.32970491  0.66609347  0.86601762  1  0.09394  0  0.10817  0.112212  0  1.002585  0
H  H15  1  0.67019347  0.33304269  0.13152409  1  0.106489  0  0.112419  0.118507  0  0.990735  0
H  H16  1  0.30618254  0.51246553  0.94891226  1  0.077519  0  0.099042  0.095701  0  1.01431  0
H  H17  1  0.69437798  0.48676885  0.04862337  1  0.081097  0  0.10005  0.097229  0  1.01432  0
H  H18  1  0.29856079  0.44915680  0.01380245  1  0.072544  0  0.100554  0.098848  0  1.011039  0
H  H19  1  0.70174677  0.54994750  0.98364574  1  0.072811  0  0.099415  0.096469  0  1.011009  0
H  H20  1  0.65775202  0.21092450  0.38532253  1  0.088898  0  0.106218  0.10968  0  0.993897  0
H  H21  1  0.30111365  0.88585725  0.68653145  1  0.092209  0  0.108335  0.110327  0  0.99527  0
H  H22  1  0.67496278  0.16327282  0.45819610  1  0.077956  0  0.100763  0.104667  0  1.049299  0
H  H23  1  0.26845957  0.96313602  0.63734941  1  0.069162  0  0.100505  0.10645  0  1.051427  0
H  H24  1  0.23000490  0.04396820  0.41154289  1  0.040744  0  0.098802  0.100806  0  1.039316  0
H  H25  1  0.78790642  0.92030074  0.55838644  1  0.071572  0  0.099202  0.101753  0  1.040117  0
H  H26  1  0.17551718  0.03353062  0.48094056  1  0.042903  0  0.096168  0.095  0  1.064643  0
H  H27  1  0.80595947  0.01923021  0.55688475  1  0.061354  0  0.094429  0.095503  0  1.125461  0
H  H28  1  0.73601433  0.18170247  0.12899738  1  0.098802  0  0.110273  0.113031  0  0.997292  0
H  H29  1  0.29263587  0.88022335  0.82784070  1  0.058493  0  0.104501  0.10445  0  1.00466  0
H  H30  1  0.77101664  0.12046381  0.06146629  1  0.076725  0  0.102019  0.105261  0  0.997067  0
H  H31  1  0.26518019  0.94820745  0.89004450  1  0.052283  0  0.103408  0.105826  0  0.997201  0
H  H32  1  0.17489769  0.00897173  0.32995838  1  0.005606  0  0.085854  0.112182  0  1.000628  0
H  H33  1  0.97785941  0.02333221  0.36951041  1  0.027737  0  0.084886  0.109758  0  1.010148  0
H  H34  1  0.94066224  0.02655731  0.30976140  1  0.010599  0  0.087588  0.113842  0  1.006287  0
H  H35  1  0.99740387  0.11965055  0.34285108  1  0.047677  0  0.097373  0.099215  0  0.963748  0
H  H36  1  0.17291745  0.10541138  0.29990806  1  0.038137  0  0.092749  0.087298  0  1.034294  0
H  H37  1  0.74246198  0.76056429  0.61400002  1  0.016867  0  0.087055  0.114957  0  1.022811  0
H  H38  1  0.78277733  0.78666295  0.55747478  1  0.019051  0  0.082198  0.106437  0  1.006613  0
H  H39  1  0.98454479  0.76197249  0.58772173  1  0.038624  0  0.08688  0.116911  0  1.000107  0
H  H40  1  0.00731843  0.86274252  0.58856264  1  0.013193  0  0.088434  0.08286  0  1.004584  0
H  H41  1  0.97142085  0.83621280  0.64457825  1  0.075323  0  0.100164  0.109825  0  0.987367  0
H  H42  1  0.19800585  0.02905470  0.61914380  1  0.012059  0  0.090822  0.119642  0  1.013878  0
H  H43  1  0.03717034  0.05859363  0.58224173  1  0.007218  0  0.089665  0.119459  0  1.022567  0
H  H44  1  0.94198096  0.00474622  0.61876593  1  0.036746  0  0.089884  0.122881  0  1.002296  0
H  H45  1  0.00686655  0.97619430  0.53311276  1  -0.005934  0  0.092053  0.086373  0  1.017773  0
H  H46  1  0.13003341  0.93888814  0.57362924  1  0.030774  0  0.091376  0.085239  0  1.037132  0
H  H47  1  0.76343552  0.17262470  0.52133089  1  0.010159  0  0.085109  0.108641  0  1.019874  0
H  H48  1  0.87307258  0.13313085  0.56254822  1  0.039707  0  0.085862  0.112684  0  1.011872  0
H  H49  1  0.02648050  0.16608991  0.51890836  1  0.041815  0  0.088678  0.118888  0  0.994152  0
H  H50  1  0.97846415  0.06910622  0.50302976  1  0.035233  0  0.088324  0.081512  0  1.053728  0
H  H51  1  0.87397601  0.10474454  0.45904338  1  0.039053  0  0.090729  0.087663  0  1.005794  0
H  H52  1  0.17427257  0.05170959  0.08984670  1  0.066116  0  0.100113  0.102687  0  1.014596  0
H  H53  1  0.79930381  0.89421248  0.94772824  1  0.063225  0  0.099943  0.103102  0  1.01181  0
H  H54  1  0.13862388  0.04011298  0.20288085  1  0.046488  0  0.082091  0.104757  0  1.00699  0
H  H55  1  0.20956511  0.10275334  0.22944620  1  0.020187  0  0.086008  0.111122  0  1.029958  0
H  H56  1  0.95281319  0.08000551  0.22812273  1  0.023356  0  0.089298  0.117942  0  0.994787  0
H  H57  1  0.02252230  0.15086634  0.16992194  1  0.085161  0  0.101479  0.112061  0  0.998402  0
H  H58  1  0.96450300  0.08849571  0.14198318  1  0.029291  0  0.086271  0.07694  0  1.020443  0
H  H59  1  0.70262947  0.75947644  0.93805857  1  0.013776  0  0.080858  0.104868  0  1.008624  0
H  H60  1  0.69173532  0.73838389  0.87958465  1  0.014959  0  0.08467  0.114176  0  1.018729  0
H  H61  1  0.91208069  0.73121304  0.91047453  1  0.035018  0  0.083112  0.113633  0  1.014643  0
H  H62  1  0.95452117  0.81077077  0.85748335  1  0.063315  0  0.095827  0.101173  0  1.001377  0
H  H63  1  0.97703362  0.83075428  0.91560595  1  0.008261  0  0.088955  0.08349  0  0.984415  0
H  H64  1  0.83191784  0.95759333  0.09224582  1  0.044675  0  0.083047  0.108833  0  1.004714  0
H  H65  1  0.75042686  0.01852902  0.11631342  1  0.00062  0  0.082156  0.109432  0  1.039883  0
H  H66  1  0.71342416  0.95755342  0.14783894  1  0.022155  0  0.085328  0.11165  0  0.999996  0
H  H67  1  0.39359769  0.98160774  0.11342011  1  0.039061  0  0.089315  0.08351  0  1.003219  0
H  H68  1  0.46995469  0.92006844  0.09050721  1  0.010517  0  0.089815  0.08282  0  0.978488  0
H  H69  1  0.87899446  0.05963978  0.90372254  1  0.032051  0  0.083762  0.110712  0  1.00378  0
H  H70  1  0.79315567  0.99767307  0.87793879  1  0.058438  0  0.082142  0.110481  0  1.029726  0
H  H71  1  0.77923506  0.05907576  0.84768180  1  0.058787  0  0.084634  0.110672  0  1.001968  0
H  H72  1  0.44225690  0.02760391  0.87985970  1  0.021281  0  0.08945  0.081364  0  1.00417  0
H  H73  1  0.52461727  0.08977074  0.90445089  1  0.021598  0  0.090441  0.083978  0  0.978364  0
H  H74  1  0.52166759  0.90722351  0.01213161  1  0.03321  0  0.09619  0.09724  0  1.014342  0
H  H75  1  0.51115634  0.10213033  0.98192717  1  0.065038  0  0.097437  0.100069  0  1.011503  0
H  H76  1  0.32575074  0.61877943  0.65700580  1  0.070079  0  0.111609  0.117126  0  0.989289  0
H  H77  1  0.68919160  0.38896769  0.33688659  1  0.093728  0  0.108271  0.110365  0  0.994189  0
H  H78  1  0.71846775  0.61750763  0.83768926  1  0.082735  0  0.106987  0.107577  0  0.999821  0
H  H79  1  0.28505520  0.37885877  0.15820223  1  0.092833  0  0.110461  0.115417  0  0.991834  0
H  H80  1  0.54262525  0.68121881  0.76236406  1  0.646142  0  0.350078  0.426547  0  0.859749  0
H  H81  1  0.46670504  0.31913667  0.26854108  1  0.599791  0  0.349312  0.42628  0  0.860407  0
H  H82  1  0.07326108  0.81528805  0.76648400  1  0.620749  0  0.349309  0.423256  0  0.865935  0
H  H83  1  0.93263203  0.18684241  0.27228260  1  0.628472  0  0.348136  0.422427  0  0.86867  0
C  C84  1  0.57429981  0.81687363  0.68756084  1  1.55784  0  0.27117  0.651491  0  4.087367  0
C  C85  1  0.42910074  0.19005610  0.31549344  1  1.547654  0  0.266852  0.651196  0  4.078841  0
C  C86  1  0.56726515  0.81228723  0.81122262  1  1.541644  0  0.265891  0.650416  0  4.081799  0
C  C87  1  0.43391230  0.18883063  0.18747580  1  1.555874  0  0.271161  0.649376  0  4.084887  0
C  C88  1  0.03757347  0.68288398  0.80782974  1  1.55986  0  0.265613  0.642667  0  4.096034  0
C  C89  1  0.96577861  0.31431072  0.18814115  1  1.553608  0  0.268088  0.638647  0  4.105376  0
C  C90  1  0.04287745  0.68627542  0.68352612  1  1.565623  0  0.271207  0.637593  0  4.099319  0
C  C91  1  0.96239184  0.31734548  0.31298181  1  1.578586  0  0.264925  0.637898  0  4.102367  0
C  C92  1  0.86544991  0.64153854  0.61756598  1  -0.006907  0  -0.074866  -0.082561  0  3.966439  0
C  C93  1  0.12334234  0.35540201  0.38376574  1  -0.037145  0  -0.079295  -0.087848  0  3.966192  0
C  C94  1  0.85703902  0.60527144  0.58107601  1  -0.075948  0  -0.079902  -0.105893  0  3.956907  0
C  C95  1  0.12851218  0.39040837  0.42119129  1  -0.034795  0  -0.080885  -0.106843  0  3.960731  0
C  C96  1  0.01621576  0.57224183  0.57214189  1  -0.041304  0  -0.002824  0.019194  0  3.991479  0
C  C97  1  0.97713939  0.42642769  0.42806733  1  0.009406  0  -0.003221  0.020467  0  3.985763  0
C  C98  1  0.18491616  0.57678846  0.59989093  1  -0.024463  0  -0.080322  -0.108174  0  3.959218  0
C  C99  1  0.81862377  0.42591457  0.39742277  1  -0.034603  0  -0.079966  -0.1066  0  3.960206  0
C  C100  1  0.19504859  0.61429434  0.63555966  1  -0.012251  0  -0.076737  -0.08341  0  3.958667  0
C  C101  1  0.81180695  0.38990114  0.36067657  1  -0.025121  0  -0.079477  -0.086204  0  3.974924  0
C  C102  1  0.03496932  0.64666055  0.64476725  1  -0.023616  0  -0.00781  -0.03851  0  3.961876  0
C  C103  1  0.96500639  0.35485042  0.35327119  1  -0.043896  0  -0.010272  -0.034962  0  3.963639  0
C  C104  1  0.98550805  0.46455731  0.46688289  1  0.924171  0  0.242835  0.249843  0  3.974932  0
C  C105  1  0.00467006  0.53297760  0.53422527  1  0.952314  0  0.243512  0.249171  0  3.977709  0
C  C106  1  0.84882207  0.61411576  0.85868015  1  0.013732  0  -0.07999  -0.08201  0  3.990936  0
C  C107  1  0.15405835  0.38314982  0.13757149  1  -0.011481  0  -0.079222  -0.08079  0  3.977617  0
C  C108  1  0.84201716  0.57863540  0.89551148  1  -0.074589  0  -0.090801  -0.136728  0  3.983859  0
C  C109  1  0.15997791  0.41932250  0.10122399  1  -0.055883  0  -0.092241  -0.139952  0  3.98898  0
C  C110  1  0.01044455  0.57385903  0.92254263  1  0.005429  0  -0.002394  0.079105  0  4.001229  0
C  C111  1  0.99022282  0.42500442  0.07480904  1  -0.052058  0  -0.003859  0.07625  0  4.002352  0
C  C112  1  0.18604132  0.60604592  0.91151546  1  -0.07231  0  -0.091157  -0.137666  0  3.987599  0
C  C113  1  0.81385527  0.39327427  0.08606980  1  -0.004007  0  -0.091913  -0.137098  0  3.987793  0
C  C114  1  0.19402251  0.64096960  0.87437590  1  -0.055305  0  -0.081868  -0.086829  0  3.986601  0
C  C115  1  0.80652268  0.35764111  0.12270388  1  -0.025207  0  -0.079351  -0.081702  0  3.976188  0
C  C116  1  0.02549505  0.64526724  0.84755409  1  -0.009137  0  -0.017433  -0.053757  0  3.98626  0
C  C117  1  0.97671876  0.35227140  0.14872345  1  -0.041236  0  -0.016992  -0.051917  0  3.983644  0
C  C118  1  0.17267465  0.50766484  0.97124482  1  -0.093712  0  -0.09151  -0.126318  0  4.000132  0
C  C119  1  0.82795101  0.49158214  0.02632466  1  -0.043548  0  -0.091864  -0.12787  0  3.996075  0
C  C120  1  0.16841271  0.47194935  0.00784444  1  -0.036067  0  -0.091156  -0.125577  0  3.99407  0
C  C121  1  0.83205570  0.52723919  0.98967614  1  -0.058479  0  -0.090993  -0.123585  0  3.995482  0
C  C122  1  0.99585825  0.46314437  0.03616423  1  -0.042703  0  -0.007744  0.06577  0  4.003786  0
C  C123  1  0.00465520  0.53602842  0.96138428  1  -0.03315  0  -0.00974  0.061594  0  4.012863  0
C  C124  1  0.56005921  0.17474422  0.39189463  1  -0.04575  0  -0.089449  -0.091524  0  4.033755  0
C  C125  1  0.41212338  0.89485034  0.65906369  1  -0.050019  0  -0.085889  -0.086419  0  4.029859  0
C  C126  1  0.57419424  0.14662919  0.43251341  1  -0.072978  0  -0.098822  -0.1512  0  4.009847  0
C  C127  1  0.39121028  0.93797171  0.63003622  1  -0.017837  0  -0.099751  -0.15547  0  4.011219  0
C  C128  1  0.46031686  0.09762219  0.44008618  1  -0.004564  0  -0.003928  0.089754  0  3.994735  0
C  C129  1  0.52491443  0.94824760  0.59239461  1  -0.013213  0  -0.001757  0.090783  0  3.973096  0
C  C130  1  0.31920111  0.08191349  0.40679770  1  -0.024506  0  -0.095113  -0.195983  0  3.927214  0
C  C131  1  0.68538609  0.91464820  0.58791720  1  -0.109591  0  -0.0937  -0.198922  0  3.930352  0
C  C132  1  0.28959134  0.11196493  0.36736848  1  -0.024309  0  0.000829  0.115822  0  3.913201  0
C  C133  1  0.71852282  0.87321806  0.61869681  1  0.001156  0  0.002257  0.121958  0  3.911768  0
C  C134  1  0.42102354  0.15805234  0.35879486  1  -0.030259  0  -0.021257  -0.110707  0  3.947125  0
C  C135  1  0.57365390  0.86217091  0.65418278  1  -0.03442  0  -0.01716  -0.108206  0  3.945792  0
C  C136  1  0.31693645  0.03130539  0.49790439  1  -0.135031  0  -0.099074  -0.194993  0  3.986228  0
C  C137  1  0.66612551  0.02229715  0.54011391  1  -0.048907  0  -0.103226  -0.208368  0  4.002782  0
C  C138  1  0.31749046  0.99856285  0.53659409  1  -0.015251  0  -0.012518  0.086076  0  3.962757  0
C  C139  1  0.66285068  0.06019654  0.50483571  1  -0.023021  0  -0.012354  0.081031  0  3.919398  0
C  C140  1  0.50118322  0.99017434  0.55688199  1  0.012291  0  -0.010392  0.021655  0  3.966569  0
C  C141  1  0.48336847  0.06334339  0.48088747  1  0.026963  0  -0.011054  0.013981  0  3.97284  0
C  C142  1  0.61252589  0.15337632  0.11962726  1  -0.038019  0  -0.081501  -0.080788  0  4.010004  0
C  C143  1  0.40470887  0.88403360  0.85418638  1  -0.041007  0  -0.084922  -0.080621  0  4.016235  0
C  C144  1  0.63214497  0.11906506  0.08207147  1  -0.057568  0  -0.095994  -0.154927  0  4.01036  0
C  C145  1  0.39023694  0.92232190  0.88882312  1  0.002208  0  -0.094553  -0.149796  0  4.003481  0
C  C146  1  0.47576551  0.08094313  0.07174313  1  -0.053216  0  -0.001956  0.095758  0  4.015428  0
C  C147  1  0.53511050  0.92708353  0.92267760  1  -0.056958  0  0.000533  0.100815  0  4.010815  0
C  C148  1  0.29791838  0.08065654  0.09834280  1  -0.055412  0  -0.093801  -0.206051  0  3.954878  0
C  C149  1  0.68793264  0.89122478  0.92104083  1  -0.065577  0  -0.094473  -0.209777  0  3.952058  0
C  C150  1  0.27172664  0.11593859  0.13540388  1  -0.010466  0  0.004051  0.127816  0  3.913456  0
C  C151  1  0.70697663  0.85240691  0.88632682  1  -0.029896  0  0.004415  0.127832  0  3.906948  0
C  C152  1  0.43571970  0.15199940  0.14676391  1  -0.013804  0  -0.017744  -0.111848  0  3.932097  0
C  C153  1  0.56270832  0.84959900  0.85163715  1  0.037915  0  -0.021338  -0.117149  0  3.927239  0
C  C154  1  0.50443964  0.98555966  0.04311717  1  0.002081  0  -0.012044  0.071565  0  3.946483  0
C  C155  1  0.52659160  0.02375510  0.95080604  1  0.014978  0  -0.011726  0.072172  0  3.942189  0
C  C156  1  0.51894951  0.95042945  0.00562853  1  -0.060439  0  -0.096258  -0.192496  0  3.99811  0
C  C157  1  0.51262657  0.05888477  0.98835474  1  -0.05614  0  -0.096132  -0.194288  0  3.998264  0
C  C158  1  0.52622740  0.96794915  0.95990092  1  -0.001182  0  -0.012153  0.012153  0  3.982455  0
C  C159  1  0.49770719  0.04111417  0.03395870  1  -0.10231  0  -0.00994  0.01708  0  3.982871  0
C  C160  1  0.12432360  0.09459580  0.33509055  1  -0.00907  0  -0.163231  -0.151221  0  3.981474  0
C  C161  1  0.05092192  0.03507181  0.33646305  1  -0.027559  0  -0.243246  -0.348218  0  3.987426  0
C  C162  1  0.89872791  0.84048685  0.61162547  1  -0.005031  0  -0.162404  -0.152964  0  3.965872  0
C  C163  1  0.84876259  0.78419592  0.59143432  1  -0.051799  0  -0.24259  -0.343861  0  3.956303  0
C  C164  1  0.12294763  0.97923524  0.55896585  1  0.035335  0  -0.167094  -0.169496  0  3.997251  0
C  C165  1  0.07040257  0.01983715  0.59707327  1  -0.052881  0  -0.243047  -0.358274  0  3.930233  0
C  C166  1  0.85514288  0.09399777  0.49550498  1  -0.03627  0  -0.167537  -0.156995  0  3.981581  0
C  C167  1  0.88052670  0.14447457  0.52609347  1  -0.0866  0  -0.240013  -0.345801  0  3.953361  0
C  C168  1  0.07669041  0.11094072  0.16275590  1  0.0057  0  -0.164935  -0.159689  0  3.965148  0
C  C169  1  0.09544242  0.08162050  0.20841352  1  -0.094378  0  -0.240426  -0.338851  0  3.94981  0
C  C170  1  0.87107925  0.81403258  0.89022908  1  0.008106  0  -0.163438  -0.151645  0  3.964498  0
C  C171  1  0.78934959  0.75750014  0.90551263  1  -0.046101  0  -0.244886  -0.344058  0  3.949359  0
C  C172  1  0.50831258  0.96382998  0.09143231  1  0.019144  0  -0.161478  -0.140343  0  3.982527  0
C  C173  1  0.71305068  0.97494920  0.11324200  1  -0.070861  0  -0.242813  -0.34411  0  3.950817  0
C  C174  1  0.55356550  0.04672534  0.90287079  1  -0.013921  0  -0.160785  -0.139695  0  3.986155  0
C  C175  1  0.76358409  0.04043129  0.88182971  1  -0.12474  0  -0.244474  -0.347454  0  3.962986  0
N  N176  1  0.14249154  0.49554419  0.53160490  1  -0.526776  0  -0.154497  -0.146463  0  3.21431  0
N  N177  1  0.84427248  0.50099880  0.47026565  1  -0.542856  0  -0.154325  -0.147013  0  3.21881  0
N  N178  1  0.13294423  0.46085149  0.49729968  1  -0.54445  0  -0.154223  -0.147421  0  3.217064  0
N  N179  1  0.85423921  0.53583652  0.50441780  1  -0.557058  0  -0.153272  -0.145517  0  3.217082  0
O  O180  1  0.40082071  0.80101294  0.79188833  1  -1.268086  0  -0.242903  -0.614036  0  2.356215  0
O  O181  1  0.59991960  0.19841739  0.20721479  1  -1.262909  0  -0.235347  -0.592279  0  2.344248  0
O  O182  1  0.73846879  0.80424720  0.70409300  1  -1.257374  0  -0.230266  -0.583587  0  2.342311  0
O  O183  1  0.26730337  0.19887151  0.29564576  1  -1.256318  0  -0.237915  -0.605155  0  2.354193  0
O  O184  1  0.87941889  0.70647759  0.69530724  1  -1.255144  0  -0.230496  -0.581927  0  2.358139  0
O  O185  1  0.12924330  0.29875709  0.30124661  1  -1.26059  0  -0.239058  -0.601918  0  2.354495  0
O  O186  1  0.73504357  0.79536039  0.79770458  1  -1.261851  0  -0.237515  -0.602678  0  2.365911  0
O  O187  1  0.26977143  0.20818522  0.20010533  1  -1.257656  0  -0.229944  -0.583214  0  2.366272  0
O  O188  1  0.87479937  0.69391554  0.78945604  1  -1.260124  0  -0.240631  -0.603324  0  2.327399  0
O  O189  1  0.12744307  0.30549104  0.20782849  1  -1.258412  0  -0.234414  -0.587072  0  2.339474  0
O  O190  1  0.40217703  0.79482237  0.69837942  1  -1.255023  0  -0.235421  -0.594443  0  2.357192  0
O  O191  1  0.60489819  0.20685960  0.30148121  1  -1.268921  0  -0.242592  -0.6122  0  2.351077  0
O  O192  1  0.55010527  0.71573214  0.74690236  1  -1.451767  0  -0.448832  -0.987354  0  2.187933  0
O  O193  1  0.45782281  0.28532993  0.25169088  1  -1.405361  0  -0.449012  -0.985239  0  2.182103  0
O  O194  1  0.21330179  0.70099337  0.79526008  1  -1.264879  0  -0.240423  -0.606557  0  2.36332  0
O  O195  1  0.79253571  0.29367651  0.19960540  1  -1.260831  0  -0.232889  -0.587168  0  2.363817  0
O  O196  1  0.21074553  0.69653131  0.70210973  1  -1.25571  0  -0.23118  -0.582212  0  2.339048  0
O  O197  1  0.79602802  0.30726345  0.29350308  1  -1.255491  0  -0.238685  -0.601286  0  2.333023  0
O  O198  1  0.06522690  0.78217475  0.74865421  1  -1.427332  0  -0.44821  -0.985089  0  2.187558  0
O  O199  1  0.94098074  0.21822694  0.25249553  1  -1.433  0  -0.447213  -0.976158  0  2.163332  0
