# generated using pymatgen
data_La2P5H40C23N5O19
_symmetry_space_group_name_H-M   'P 1'
_cell_length_a   13.00894487
_cell_length_b   13.39483013
_cell_length_c   15.09315135
_cell_angle_alpha   109.47854254
_cell_angle_beta   101.25127429
_cell_angle_gamma   110.74793962
_symmetry_Int_Tables_number   1
_chemical_formula_structural   La2P5H40C23N5O19
_chemical_formula_sum   'La4 P10 H80 C46 N10 O38'
_cell_volume   2167.40679622
_cell_formula_units_Z   2
loop_
 _symmetry_equiv_pos_site_id
 _symmetry_equiv_pos_as_xyz
  1  'x, y, z'
loop_
 _atom_site_type_symbol
 _atom_site_label
 _atom_site_symmetry_multiplicity
 _atom_site_fract_x
 _atom_site_fract_y
 _atom_site_fract_z
 _atom_site_occupancy
 _atom_site_pbe_bader_charge
 _atom_site_pbe_bader_spin_density
 _atom_site_pbe_cm5_charge
 _atom_site_pbe_ddec_charge
 _atom_site_pbe_ddec_spin_density
 _atom_site_pbe_ddec_sum_bond_order
 _atom_site_pbe_magmom
La  La0  1  0.31617943  0.35821468  0.57549746  1  2.25587  0  1.460527  1.991626  0  2.377116  0
La  La1  1  0.09890925  0.11016391  0.65704256  1  2.250948  0  1.452916  1.992636  0  2.392145  0
La  La2  1  0.68382055  0.64178285  0.42449999  1  2.255866  0  1.460513  1.991605  0  2.377182  0
La  La3  1  0.90108611  0.88983725  0.34295714  1  2.250807  0  1.452902  1.992628  0  2.392207  0
P  P4  1  0.98232572  0.17373586  0.43992425  1  3.404788  0  0.305453  1.271746  0  5.518849  0
P  P5  1  0.41774850  0.22030539  0.73048629  1  3.420272  0  0.329688  1.317576  0  5.465573  0
P  P6  1  0.21652293  0.07968374  0.43744953  1  3.437127  0  0.310049  1.306009  0  5.460002  0
P  P7  1  0.38433243  0.40799604  0.36711402  1  3.412795  0  0.362006  1.326009  0  5.356575  0
P  P8  1  0.81814653  0.81426478  0.06737544  1  3.400328  0  0.326267  1.287631  0  5.501845  0
P  P9  1  0.01767234  0.82626437  0.56007698  1  3.404738  0  0.305438  1.271673  0  5.518873  0
P  P10  1  0.58224715  0.77969130  0.26951480  1  3.420367  0  0.329673  1.317507  0  5.465566  0
P  P11  1  0.78347198  0.92031474  0.56254931  1  3.437077  0  0.310113  1.30606  0  5.459838  0
P  P12  1  0.61566755  0.59200149  0.63288410  1  3.41281  0  0.361994  1.325969  0  5.3567  0
P  P13  1  0.18185232  0.18573544  0.93262526  1  3.400155  0  0.32627  1.28764  0  5.502015  0
H  H14  1  0.07203680  0.41890275  0.54734559  1  0.529214  0  0.319118  0.268722  0  0.946316  0
H  H15  1  0.40550044  0.32568487  0.93986142  1  0.555717  0  0.303603  0.278016  0  0.960598  0
H  H16  1  0.41525976  0.06643658  0.57711869  1  0.565555  0  0.293634  0.27067  0  1.00656  0
H  H17  1  0.15394619  0.23151906  0.09972945  1  0.55125  0  0.282819  0.264673  0  1.040822  0
H  H18  1  0.95918739  0.08263661  0.23915231  1  0.549042  0  0.312272  0.275531  0  0.967939  0
H  H19  1  0.03450274  0.43724057  0.87510830  1  0.103843  0  0.109107  0.114337  0  0.995226  0
H  H20  1  0.09779401  0.64792853  0.99712269  1  0.085988  0  0.105832  0.109151  0  0.986274  0
H  H21  1  0.25062896  0.81435979  0.98555968  1  0.06975  0  0.103779  0.099558  0  0.990077  0
H  H22  1  0.33671225  0.77188734  0.85187593  1  0.080809  0  0.108177  0.113525  0  0.980801  0
H  H23  1  0.91155544  0.26886341  0.56422250  1  0.114116  0  0.123913  0.145729  0  1.02661  0
H  H24  1  0.82118360  0.23383761  0.44039504  1  0.062345  0  0.119981  0.140054  0  0.974441  0
H  H25  1  0.85409146  0.45020089  0.53347533  1  0.129747  0  0.133558  0.133209  0  0.942439  0
H  H26  1  0.95876207  0.47116758  0.64363239  1  0.097077  0  0.125905  0.116092  0  0.960865  0
H  H27  1  0.00277628  0.33625334  0.36902082  1  0.117625  0  0.128669  0.118328  0  1.012874  0
H  H28  1  0.88189507  0.37214826  0.37063603  1  0.086134  0  0.118632  0.106076  0  0.996324  0
H  H29  1  0.60862956  0.36316783  0.86476915  1  0.076218  0  0.115519  0.128096  0  0.978248  0
H  H30  1  0.53133466  0.24423231  0.89237760  1  0.07188  0  0.11861  0.136207  0  0.971313  0
H  H31  1  0.59096457  0.39481265  0.06232315  1  0.09806  0  0.119471  0.109969  0  0.985354  0
H  H32  1  0.65825721  0.50760128  0.02451662  1  0.058683  0  0.117645  0.099388  0  0.968521  0
H  H33  1  0.53434893  0.51715590  0.88181727  1  0.120746  0  0.123409  0.118375  0  0.961804  0
H  H34  1  0.38345109  0.41143132  0.82190028  1  0.172957  0  0.132922  0.118637  0  1.026345  0
H  H35  1  0.24271105  0.90624342  0.35520854  1  0.095711  0  0.122434  0.138938  0  0.967752  0
H  H36  1  0.20722447  0.91336749  0.46420194  1  0.105125  0  0.128853  0.145055  0  1.007588  0
H  H37  1  0.44599097  0.00630015  0.37119224  1  0.088337  0  0.11697  0.108024  0  0.966592  0
H  H38  1  0.45949213  0.14508661  0.45563296  1  0.130786  0  0.132065  0.136715  0  0.980511  0
H  H39  1  0.34577924  0.85629417  0.52488621  1  0.054566  0  0.120143  0.103921  0  0.963553  0
H  H40  1  0.37780342  0.83500681  0.41163268  1  0.093525  0  0.119922  0.105554  0  0.964118  0
H  H41  1  0.35251247  0.34007375  0.18968166  1  0.11994  0  0.128138  0.159071  0  0.971003  0
H  H42  1  0.28883013  0.43631399  0.22878686  1  0.057286  0  0.123438  0.14345  0  0.96332  0
H  H43  1  0.24589863  0.13234335  0.18612170  1  0.08187  0  0.124045  0.117483  0  0.93823  0
H  H44  1  0.19662982  0.17725933  0.28732682  1  0.144144  0  0.127063  0.114956  0  1.018834  0
H  H45  1  0.11269716  0.30798205  0.30129961  1  0.126199  0  0.119417  0.112711  0  1.01079  0
H  H46  1  0.09172518  0.36203261  0.20847788  1  0.079854  0  0.11909  0.106731  0  0.951756  0
H  H47  1  0.95176449  0.16311618  0.07695338  1  0.077146  0  0.116668  0.103748  0  0.984618  0
H  H48  1  0.90089667  0.19943940  0.17935649  1  0.082186  0  0.115581  0.100334  0  0.988906  0
H  H49  1  0.05633689  0.97363051  0.16750642  1  0.148508  0  0.135141  0.139713  0  0.968221  0
H  H50  1  0.04182143  0.01201445  0.06499067  1  0.069926  0  0.106291  0.082049  0  1.030218  0
H  H51  1  0.77780357  0.98344447  0.13396740  1  0.112535  0  0.127539  0.154485  0  0.968146  0
H  H52  1  0.81528033  0.97485877  0.02464074  1  0.033994  0  0.108101  0.117513  0  1.002378  0
H  H53  1  0.38730893  0.25400726  0.38282224  1  0.666029  0  0.311817  0.39972  0  0.944155  0
H  H54  1  0.92796172  0.58110015  0.45265385  1  0.529891  0  0.319098  0.268655  0  0.946403  0
H  H55  1  0.59449877  0.67431445  0.06014040  1  0.555773  0  0.303639  0.278058  0  0.960525  0
H  H56  1  0.58473628  0.93355921  0.42287955  1  0.565546  0  0.293639  0.27065  0  1.006573  0
H  H57  1  0.84605304  0.76848026  0.90027038  1  0.551249  0  0.282822  0.264665  0  1.040844  0
H  H58  1  0.04081178  0.91736094  0.76084965  1  0.549076  0  0.312261  0.275521  0  0.967957  0
H  H59  1  0.96550800  0.56276844  0.12489306  1  0.103939  0  0.109107  0.114348  0  0.995105  0
H  H60  1  0.90221439  0.35208051  0.00287761  1  0.085434  0  0.105863  0.109306  0  0.986299  0
H  H61  1  0.74938101  0.18564923  0.01444023  1  0.06981  0  0.103796  0.099548  0  0.99006  0
H  H62  1  0.66329569  0.22811724  0.14812166  1  0.080618  0  0.108221  0.113535  0  0.980778  0
H  H63  1  0.08844500  0.73113858  0.43577833  1  0.114128  0  0.12393  0.145766  0  1.026566  0
H  H64  1  0.17881446  0.76616262  0.55960552  1  0.062354  0  0.119978  0.140043  0  0.974498  0
H  H65  1  0.14590584  0.54979935  0.46652245  1  0.129804  0  0.133583  0.133255  0  0.942404  0
H  H66  1  0.04123408  0.52883357  0.35636612  1  0.097274  0  0.125934  0.116131  0  0.960794  0
H  H67  1  0.99721987  0.66374780  0.63097835  1  0.117548  0  0.128685  0.11835  0  1.01283  0
H  H68  1  0.11810185  0.62785288  0.62936393  1  0.086189  0  0.118632  0.106056  0  0.996293  0
H  H69  1  0.39136686  0.63682706  0.13522824  1  0.076095  0  0.115532  0.128141  0  0.978141  0
H  H70  1  0.46866373  0.75576524  0.10762356  1  0.07195  0  0.118584  0.136165  0  0.971459  0
H  H71  1  0.40903461  0.60518490  0.93767815  1  0.098102  0  0.119482  0.109959  0  0.985441  0
H  H72  1  0.34174234  0.49239537  0.97548514  1  0.058891  0  0.117655  0.099431  0  0.968447  0
H  H73  1  0.46565144  0.48284252  0.11818383  1  0.120291  0  0.12341  0.11838  0  0.961752  0
H  H74  1  0.61654927  0.58856711  0.17810147  1  0.172926  0  0.132917  0.118624  0  1.026328  0
H  H75  1  0.75728784  0.09375859  0.64479069  1  0.09573  0  0.12245  0.138972  0  0.967749  0
H  H76  1  0.79277002  0.08662831  0.53579471  1  0.105176  0  0.128859  0.145112  0  1.007574  0
H  H77  1  0.55400430  0.99369565  0.62880455  1  0.088398  0  0.11696  0.107979  0  0.966675  0
H  H78  1  0.54050391  0.85490918  0.54436462  1  0.130758  0  0.132051  0.136721  0  0.980514  0
H  H79  1  0.65421762  0.14370339  0.47511270  1  0.054756  0  0.120119  0.103858  0  0.963575  0
H  H80  1  0.62219066  0.16498811  0.58836431  1  0.09352  0  0.119893  0.105489  0  0.964222  0
H  H81  1  0.64748712  0.65992468  0.81031798  1  0.119949  0  0.128135  0.159069  0  0.971016  0
H  H82  1  0.71117106  0.56368620  0.77121424  1  0.057254  0  0.123428  0.143454  0  0.963342  0
H  H83  1  0.75410058  0.86765597  0.81387946  1  0.081869  0  0.124034  0.117422  0  0.938271  0
H  H84  1  0.80337136  0.82274087  0.71267493  1  0.144163  0  0.12705  0.114932  0  1.018851  0
H  H85  1  0.88730488  0.69202171  0.69870201  1  0.126294  0  0.119415  0.112669  0  1.010879  0
H  H86  1  0.90827284  0.63796405  0.79151964  1  0.079829  0  0.119068  0.106702  0  0.951746  0
H  H87  1  0.04823627  0.83688313  0.92305070  1  0.077059  0  0.116686  0.103742  0  0.984608  0
H  H88  1  0.09910371  0.80056081  0.82064778  1  0.082206  0  0.115586  0.100346  0  0.988894  0
H  H89  1  0.94366270  0.02636792  0.83249521  1  0.148529  0  0.135156  0.139733  0  0.968223  0
H  H90  1  0.95817737  0.98798399  0.93501148  1  0.069744  0  0.106301  0.082046  0  1.03038  0
H  H91  1  0.22219605  0.01655574  0.86603409  1  0.11254  0  0.127555  0.15452  0  0.968134  0
H  H92  1  0.18472047  0.02514233  0.97536253  1  0.033954  0  0.108094  0.117526  0  1.00234  0
H  H93  1  0.61269067  0.74599117  0.61717740  1  0.666062  0  0.311785  0.399644  0  0.944252  0
C  C94  1  0.28762349  0.55438250  0.71045236  1  1.604919  0  0.188974  0.554242  0  4.295525  0
C  C95  1  0.11491819  0.35985326  0.72969739  1  1.574448  0  0.206543  0.570968  0  4.226363  0
C  C96  1  0.23399699  0.58200320  0.78937289  1  -0.108048  0  -0.008736  -0.031456  0  3.956  0
C  C97  1  0.14903615  0.48739908  0.79652940  1  -0.022235  0  -0.015812  -0.068937  0  3.946226  0
C  C98  1  0.09959569  0.51209866  0.87081793  1  -0.036092  0  -0.082726  -0.096463  0  3.986523  0
C  C99  1  0.13560338  0.62919901  0.93872914  1  -0.106067  0  -0.09525  -0.099471  0  4.028854  0
C  C100  1  0.22123769  0.72271316  0.93208447  1  -0.047005  0  -0.090125  -0.082012  0  4.050653  0
C  C101  1  0.26964885  0.69932722  0.85724724  1  -0.048221  0  -0.093475  -0.130157  0  4.002863  0
C  C102  1  0.91105882  0.26654437  0.49071434  1  -0.246028  0  -0.074228  -0.376335  0  3.756759  0
C  C103  1  0.94704576  0.47673364  0.57170747  1  0.210903  0  -0.047006  -0.082339  0  3.757526  0
C  C104  1  0.97419234  0.39869894  0.41057988  1  0.21433  0  -0.054568  -0.088889  0  3.769701  0
C  C105  1  0.52197627  0.30569140  0.86189940  1  -0.24723  0  -0.07008  -0.356991  0  3.77776  0
C  C106  1  0.57715871  0.45555716  0.03310849  1  0.243792  0  -0.054608  -0.078838  0  3.792311  0
C  C107  1  0.45660693  0.46467409  0.89388153  1  0.160507  0  -0.053668  -0.088574  0  3.765293  0
C  C108  1  0.26366756  0.96502096  0.43417104  1  -0.309541  0  -0.06376  -0.364396  0  3.800777  0
C  C109  1  0.47048369  0.06627199  0.45059508  1  0.217994  0  -0.057636  -0.09409  0  3.78451  0
C  C110  1  0.40389467  0.89796596  0.49040917  1  0.248865  0  -0.051696  -0.073937  0  3.813028  0
C  C111  1  0.30012764  0.36129111  0.23536416  1  -0.259973  0  -0.067122  -0.376072  0  3.778629  0
C  C112  1  0.17707715  0.15312643  0.20678142  1  0.219929  0  -0.057392  -0.091359  0  3.794632  0
C  C113  1  0.08993863  0.28507065  0.22059376  1  0.191185  0  -0.058027  -0.089019  0  3.802177  0
C  C114  1  0.96927529  0.18035514  0.15619283  1  0.233662  0  -0.059454  -0.09422  0  3.810136  0
C  C115  1  0.05876705  0.04453357  0.14575844  1  0.194984  0  -0.056998  -0.087973  0  3.776803  0
C  C116  1  0.83819759  0.96796039  0.09572086  1  -0.263449  0  -0.075881  -0.374787  0  3.755974  0
C  C117  1  0.71238047  0.44561855  0.28954483  1  1.604881  0  0.188994  0.555126  0  4.29549  0
C  C118  1  0.88509170  0.64015220  0.27030410  1  1.574868  0  0.206579  0.571237  0  4.226237  0
C  C119  1  0.76601098  0.41800317  0.21062588  1  -0.107869  0  -0.008737  -0.034297  0  3.960022  0
C  C120  1  0.85097454  0.51260815  0.20347275  1  -0.022686  0  -0.01572  -0.068135  0  3.946949  0
C  C121  1  0.90041577  0.48790856  0.12918569  1  -0.036506  0  -0.082709  -0.096217  0  3.986247  0
C  C122  1  0.86440579  0.37081002  0.06127261  1  -0.105584  0  -0.095364  -0.099901  0  4.029218  0
C  C123  1  0.77877184  0.27729319  0.06791391  1  -0.04697  0  -0.089987  -0.081656  0  4.050348  0
C  C124  1  0.73036223  0.30067911  0.14275207  1  -0.047814  0  -0.093647  -0.129415  0  4.003687  0
C  C125  1  0.08894199  0.73345672  0.50928629  1  -0.246131  0  -0.074242  -0.376337  0  3.756715  0
C  C126  1  0.05295154  0.52326660  0.42829098  1  0.210327  0  -0.047031  -0.082383  0  3.757383  0
C  C127  1  0.02580495  0.60130130  0.58941988  1  0.214006  0  -0.054573  -0.088818  0  3.769575  0
C  C128  1  0.47802016  0.69430528  0.13810116  1  -0.247172  0  -0.070103  -0.356999  0  3.77772  0
C  C129  1  0.42284088  0.54444127  0.96689115  1  0.243539  0  -0.05463  -0.078875  0  3.792259  0
C  C130  1  0.54339386  0.53532522  0.10611857  1  0.160934  0  -0.053668  -0.088561  0  3.765196  0
C  C131  1  0.73632852  0.03497661  0.56582641  1  -0.30957  0  -0.063775  -0.364548  0  3.800831  0
C  C132  1  0.52951079  0.93372381  0.54940224  1  0.21798  0  -0.05758  -0.093963  0  3.784481  0
C  C133  1  0.59610179  0.10203072  0.50958809  1  0.248817  0  -0.051642  -0.073694  0  3.813068  0
C  C134  1  0.69987196  0.63870732  0.76463548  1  -0.259953  0  -0.067129  -0.376084  0  3.778685  0
C  C135  1  0.82292281  0.84687111  0.79321934  1  0.219958  0  -0.057298  -0.091154  0  3.794613  0
C  C136  1  0.91006414  0.71493132  0.77940813  1  0.191154  0  -0.057992  -0.088944  0  3.802336  0
C  C137  1  0.03072587  0.81964506  0.84381091  1  0.233635  0  -0.059486  -0.094237  0  3.810231  0
C  C138  1  0.94123215  0.95546576  0.85424405  1  0.195014  0  -0.057032  -0.088033  0  3.776954  0
C  C139  1  0.16180163  0.03203893  0.90428030  1  -0.263407  0  -0.075905  -0.374847  0  3.755962  0
N  N140  1  0.98184366  0.39122895  0.50823381  1  -1.016911  0  -0.344337  0.026597  0  3.594576  0
N  N141  1  0.48343723  0.38263566  0.93086645  1  -1.03103  0  -0.335681  0.016373  0  3.539324  0
N  N142  1  0.38798412  0.00352308  0.49219772  1  -1.032638  0  -0.332397  0.004672  0  3.536286  0
N  N143  1  0.18093350  0.25680781  0.18835218  1  -1.016738  0  -0.334779  -0.005631  0  3.530068  0
N  N144  1  0.95892919  0.06881330  0.16375837  1  -1.010528  0  -0.337727  0.022358  0  3.524285  0
N  N145  1  0.01815364  0.60877129  0.49176529  1  -1.017588  0  -0.344358  0.026592  0  3.594551  0
N  N146  1  0.51656469  0.61736275  0.06913623  1  -1.031036  0  -0.335693  0.016379  0  3.539237  0
N  N147  1  0.61201195  0.99647450  0.50780105  1  -1.032994  0  -0.332401  0.004638  0  3.536253  0
N  N148  1  0.81906610  0.74319062  0.81164746  1  -1.016758  0  -0.334813  -0.005688  0  3.530137  0
N  N149  1  0.04107042  0.93118691  0.83624444  1  -1.010549  0  -0.337691  0.022385  0  3.524246  0
O  O150  1  0.22183100  0.51166275  0.61789927  1  -1.207323  0  -0.356415  -0.62354  0  2.228404  0
O  O151  1  0.39094964  0.56699550  0.73714673  1  -1.15933  0  -0.325312  -0.542026  0  2.144674  0
O  O152  1  0.19350513  0.33661349  0.69876829  1  -1.210791  0  -0.382563  -0.66573  0  2.307105  0
O  O153  1  0.01378284  0.28040846  0.70858667  1  -1.17403  0  -0.323769  -0.561878  0  2.149651  0
O  O154  1  0.96868972  0.09386460  0.49438081  1  -1.468063  0  -0.449463  -0.839723  0  2.334239  0
O  O155  1  0.10580255  0.26673246  0.46503954  1  -1.476781  0  -0.429266  -0.80526  0  2.298739  0
O  O156  1  0.91247903  0.09503362  0.32694856  1  -1.47376  0  -0.399874  -0.778259  0  2.200162  0
O  O157  1  0.42932839  0.31239843  0.68937971  1  -1.474923  0  -0.467502  -0.836066  0  2.244726  0
O  O158  1  0.46216137  0.13186500  0.67974034  1  -1.462338  0  -0.40283  -0.748236  0  2.164017  0
O  O159  1  0.29914109  0.16196334  0.74110237  1  -1.470253  0  -0.472843  -0.8275  0  2.233538  0
O  O160  1  0.20899048  0.13580960  0.54136157  1  -1.477851  0  -0.472393  -0.873934  0  2.410081  0
O  O161  1  0.31110020  0.18089462  0.42858130  1  -1.485028  0  -0.413601  -0.81002  0  2.267208  0
O  O162  1  0.09974858  0.00929913  0.34989806  1  -1.473459  0  -0.436004  -0.796794  0  2.215215  0
O  O163  1  0.30095815  0.40014238  0.42508909  1  -1.470462  0  -0.437688  -0.811222  0  2.213169  0
O  O164  1  0.43260164  0.31235641  0.35939352  1  -1.424257  0  -0.395803  -0.684051  0  2.188556  0
O  O165  1  0.48421472  0.52859197  0.40001678  1  -1.46651  0  -0.454624  -0.79463  0  2.271419  0
O  O166  1  0.68557155  0.73670584  0.01827511  1  -1.461967  0  -0.395651  -0.757633  0  2.129358  0
O  O167  1  0.88464125  0.78989678  0.99405479  1  -1.449702  0  -0.409332  -0.745222  0  2.237983  0
O  O168  1  0.87889358  0.82001610  0.16733077  1  -1.473015  0  -0.463656  -0.80939  0  2.232667  0
O  O169  1  0.77817102  0.48833923  0.38209984  1  -1.207281  0  -0.356371  -0.623493  0  2.228005  0
O  O170  1  0.60905557  0.43300821  0.26284814  1  -1.159266  0  -0.325325  -0.541974  0  2.144262  0
O  O171  1  0.80649966  0.66338934  0.30122823  1  -1.210776  0  -0.3826  -0.665899  0  2.307081  0
O  O172  1  0.98622589  0.71959969  0.29142005  1  -1.174179  0  -0.323812  -0.562003  0  2.149821  0
O  O173  1  0.03130838  0.90613742  0.50562095  1  -1.468059  0  -0.449476  -0.839748  0  2.33423  0
O  O174  1  0.89419590  0.73326687  0.53496016  1  -1.476822  0  -0.429286  -0.80525  0  2.298731  0
O  O175  1  0.08751859  0.90496395  0.67305313  1  -1.473594  0  -0.39985  -0.778204  0  2.200123  0
O  O176  1  0.57067038  0.68759822  0.31062059  1  -1.475002  0  -0.467499  -0.836004  0  2.244683  0
O  O177  1  0.53783072  0.86812905  0.32025870  1  -1.462475  0  -0.402845  -0.748235  0  2.163886  0
O  O178  1  0.70085219  0.83803158  0.25889580  1  -1.470025  0  -0.472812  -0.827466  0  2.233662  0
O  O179  1  0.79100800  0.86419152  0.45863733  1  -1.477827  0  -0.472404  -0.87396  0  2.410141  0
O  O180  1  0.68889355  0.81910298  0.57141575  1  -1.485059  0  -0.41361  -0.809965  0  2.267165  0
O  O181  1  0.90024633  0.99069936  0.65010277  1  -1.473379  0  -0.43605  -0.796835  0  2.215163  0
O  O182  1  0.69904423  0.59985869  0.57491115  1  -1.470501  0  -0.43771  -0.811234  0  2.213119  0
O  O183  1  0.56739911  0.68764111  0.64060605  1  -1.424248  0  -0.395748  -0.683957  0  2.188622  0
O  O184  1  0.51578682  0.47140554  0.59998094  1  -1.466521  0  -0.454596  -0.794595  0  2.271428  0
O  O185  1  0.31442611  0.26329351  0.98172380  1  -1.461897  0  -0.395666  -0.757631  0  2.12949  0
O  O186  1  0.11535760  0.21010344  0.00594524  1  -1.449622  0  -0.409327  -0.745237  0  2.238057  0
O  O187  1  0.12110329  0.17998325  0.83266999  1  -1.472985  0  -0.463635  -0.809382  0  2.232707  0
