# generated using pymatgen
data_CoH20C28(N2O3)4
_symmetry_space_group_name_H-M   'P 1'
_cell_length_a   6.41790058
_cell_length_b   11.08141292
_cell_length_c   11.26179696
_cell_angle_alpha   99.66483540
_cell_angle_beta   107.87716357
_cell_angle_gamma   90.30290987
_symmetry_Int_Tables_number   1
_chemical_formula_structural   CoH20C28(N2O3)4
_chemical_formula_sum   'Co1 H20 C28 N8 O12'
_cell_volume   750.06226715
_cell_formula_units_Z   1
loop_
 _symmetry_equiv_pos_site_id
 _symmetry_equiv_pos_as_xyz
  1  'x, y, z'
loop_
 _atom_site_type_symbol
 _atom_site_label
 _atom_site_symmetry_multiplicity
 _atom_site_fract_x
 _atom_site_fract_y
 _atom_site_fract_z
 _atom_site_occupancy
 _atom_site_hle17_ddec_charge
 _atom_site_hle17_ddec_spin_density
 _atom_site_hle17_ddec_sum_bond_order
 _atom_site_hle17_magmom
 _atom_site_hse06_10hf_ddec_charge
 _atom_site_hse06_10hf_ddec_spin_density
 _atom_site_hse06_10hf_ddec_sum_bond_order
 _atom_site_hse06_10hf_magmom
 _atom_site_hse06_ddec_charge
 _atom_site_hse06_ddec_spin_density
 _atom_site_hse06_ddec_sum_bond_order
 _atom_site_hse06_magmom
 _atom_site_pbe_cm5_charge
 _atom_site_pbe_ddec_charge
 _atom_site_pbe_ddec_spin_density
 _atom_site_pbe_ddec_sum_bond_order
 _atom_site_pbe_magmom
Co  Co0  1  0.90358170  0.49067637  0.99774376  1  0.922151  -2.825896  2.045283  -2.54  0.871114  -2.824664  2.483264  -2.596  0.962672  -2.869508  2.396636  -2.683  0.670177  0.802629  -2.786812  2.546297  -2.518
H  H1  1  0.31307853  0.61573991  0.97281153  1  0.104522  0.000282  0.94222  0.0  0.112765  1.2e-05  1.008118  0.0  0.115129  7.1e-05  1.005287  0.0  0.138989  0.110908  -5.6e-05  1.010389  0.0
H  H2  1  0.37068371  0.38938565  0.01641696  1  0.097446  0.000115  0.950416  -0.001  0.10647  -2.7e-05  1.015693  0.0  0.108482  1.2e-05  1.013316  0.0  0.13714  0.104736  -5.6e-05  1.017951  -0.001
H  H3  1  0.44342038  0.82507517  0.34036853  1  0.124708  -0.000262  0.955454  0.0  0.13267  -0.000292  1.01666  0.0  0.135336  -0.000209  1.015302  0.0  0.121954  0.131069  -0.000378  1.017303  0.0
H  H4  1  0.08913511  0.16424265  0.65800287  1  0.121939  -0.000321  0.962381  0.0  0.129142  -0.000312  1.025755  0.0  0.131939  -0.000233  1.024307  0.0  0.120696  0.127346  -0.000389  1.026614  -0.001
H  H5  1  0.06810933  0.66827772  0.28430465  1  0.114063  2.7e-05  0.952898  -0.001  0.124164  -0.0001  1.008844  -0.001  0.126269  -4.5e-05  1.00852  0.0  0.118679  0.122832  -0.00015  1.008995  -0.001
H  H6  1  0.77860347  0.32145399  0.71305966  1  0.109461  -5.2e-05  0.960706  -0.001  0.116441  -0.000193  1.023818  -0.001  0.118882  -0.000119  1.022912  0.0  0.116678  0.114789  -0.00027  1.024533  -0.001
H  H7  1  0.70227373  0.72038558  0.09091652  1  0.099217  0.000366  0.934611  0.0  0.111014  5e-05  1.003721  0.0  0.11183  8.2e-05  1.002865  0.0  0.119296  0.109916  3.6e-05  1.005013  0.0
H  H8  1  0.62680585  0.26944383  0.90929830  1  0.09742  -0.000222  0.948593  0.0  0.10998  -0.000529  1.015792  0.0  0.110958  -0.000335  1.015301  0.0  0.116603  0.108899  -0.000713  1.016612  0.0
H  H9  1  0.73959882  0.82446713  0.23222541  1  0.093147  -6e-05  0.941108  0.0  0.103416  -5.2e-05  1.010818  0.0  0.104747  -3.2e-05  1.009381  0.0  0.116405  0.10251  -6.8e-05  1.01186  0.0
H  H10  1  0.51097277  0.17192012  0.76224966  1  0.091991  -2.4e-05  0.949345  0.0  0.100194  -5e-06  1.023094  0.0  0.101322  3e-06  1.02206  0.0  0.114702  0.099522  -3.1e-05  1.023798  0.0
H  H11  1  0.24166681  0.91626309  0.05806156  1  0.092061  -2e-06  0.972935  0.0  0.102552  2e-06  1.033746  0.0  0.105454  4e-06  1.03236  0.0  0.099341  0.100335  -5e-06  1.035055  0.0
H  H12  1  0.18566555  0.08794074  0.93868714  1  0.088699  4.7e-05  0.977994  0.0  0.09896  3.6e-05  1.039973  0.0  0.101694  3e-05  1.038825  0.0  0.098339  0.096852  3.7e-05  1.041164  0.0
H  H13  1  0.90523924  0.90084229  0.04861603  1  0.096142  1.3e-05  0.951879  0.0  0.110019  1.4e-05  1.007127  0.0  0.11261  1.6e-05  1.006354  0.0  0.102448  0.108006  1.7e-05  1.008055  0.0
H  H14  1  0.85051682  0.07514744  0.93123791  1  0.094189  1.2e-05  0.954  0.0  0.108637  1.7e-05  1.009003  0.0  0.111191  2e-05  1.008097  0.0  0.102437  0.106657  1.7e-05  1.010072  0.0
H  H15  1  0.71574925  0.81777328  0.75372508  1  0.129294  -0.000106  0.938477  0.0  0.133108  -0.000102  1.005461  0.0  0.137892  -5.4e-05  1.000991  0.0  0.119915  0.12956  -0.000144  1.00872  0.0
H  H16  1  0.91455271  0.19428555  0.22162345  1  0.132952  -0.000165  0.933371  0.0  0.137298  -0.000145  0.998976  0.0  0.142131  -8e-05  0.994566  0.0  0.120459  0.133688  -0.000212  1.002171  0.0
H  H17  1  0.04299389  0.84280940  0.52593592  1  0.146367  0.0  0.95607  0.0  0.139651  1.3e-05  1.03816  0.0  0.146057  2e-06  1.030765  0.0  0.120557  0.134973  7.4e-05  1.043654  0.0
H  H18  1  0.56132724  0.14960325  0.48453535  1  0.143811  -1.3e-05  0.955994  0.0  0.13651  1e-06  1.039952  0.0  0.14259  -1e-06  1.033133  0.0  0.121251  0.132028  3.1e-05  1.045039  0.0
H  H19  1  0.22759024  0.53191835  0.71376203  1  0.141898  -0.0001  0.924821  0.0  0.143072  -8.8e-05  0.995102  0.0  0.148109  -3e-05  0.989931  0.0  0.124526  0.139243  -0.000157  0.999082  0.0
H  H20  1  0.49965917  0.47538158  0.31408710  1  0.140047  4e-06  0.928916  0.0  0.139331  7e-06  1.002769  0.0  0.144422  3.3e-05  0.997684  0.0  0.123561  0.135483  -1.7e-05  1.006609  0.0
C  C21  1  0.29300331  0.65074978  0.06417694  1  0.186541  -0.000236  3.627577  -0.001  0.126776  -0.003402  3.899504  -0.005  0.142973  -0.002745  3.911447  -0.004  0.148698  0.115735  -0.00412  3.891228  -0.005
C  C22  1  0.24877880  0.34974175  0.92762491  1  0.166971  0.014953  3.637758  0.009  0.110799  0.003185  3.90573  0.001  0.126773  0.003104  3.917673  0.001  0.145462  0.099629  0.003165  3.897998  0.001
C  C23  1  0.35704605  0.75907076  0.25690307  1  -0.052009  -0.005168  3.650688  -0.007  -0.094264  -0.00263  3.910251  -0.003  -0.092899  -0.0018  3.928372  -0.002  0.003032  -0.094517  -0.003571  3.897123  -0.004
C  C24  1  0.09714500  0.23362834  0.73956875  1  -0.055849  -0.003749  3.660929  -0.005  -0.097044  -0.001664  3.919207  -0.002  -0.095188  -0.001288  3.936576  -0.002  0.002376  -0.097857  -0.002128  3.907044  -0.003
C  C25  1  0.17402737  0.68158446  0.22840750  1  -0.002445  0.004123  3.739696  0.002  -0.032731  -0.000536  4.012735  -0.002  -0.029968  -0.000162  4.034168  -0.001  -0.003975  -0.034841  -0.000889  3.997649  -0.002
C  C26  1  0.94644455  0.31115519  0.76840540  1  0.002971  0.003692  3.729513  0.002  -0.026482  -0.000365  4.001554  -0.001  -0.023869  -1.3e-05  4.021992  -0.001  -0.00286  -0.028616  -0.000561  3.987693  -0.002
C  C27  1  0.62359452  0.79342240  0.13708610  1  -0.045499  -0.000344  3.643009  -0.001  -0.110831  -0.000355  3.889932  0.0  -0.106503  -0.00025  3.900774  0.0  -0.046295  -0.113496  -0.000483  3.882583  -0.001
C  C28  1  0.49291830  0.20031465  0.85655015  1  -0.053378  -0.000507  3.650102  -0.001  -0.11749  -0.000637  3.895761  -0.001  -0.113657  -0.000464  3.906814  -0.001  -0.048626  -0.119891  -0.000841  3.888281  -0.001
C  C29  1  0.37631296  0.95060557  0.03055583  1  -0.118809  8.4e-05  3.768021  0.0  -0.137534  1e-05  4.012646  0.0  -0.1403  3.6e-05  4.03548  0.0  -0.099741  -0.135316  -1.1e-05  3.996882  0.0
C  C30  1  0.34452692  0.04761702  0.96286099  1  -0.123269  -0.000104  3.774051  0.0  -0.142207  -0.000125  4.019763  0.0  -0.145555  -9.9e-05  4.043074  0.0  -0.099996  -0.139681  -9.7e-05  4.003638  0.0
C  C31  1  0.57801606  0.89733790  0.06276105  1  0.062099  -0.00013  3.758711  0.0  0.079264  -0.000164  4.002422  0.0  0.077676  -0.000125  4.028876  0.0  -0.01737  0.080333  -0.000191  3.984195  0.0
C  C32  1  0.51430905  0.09367498  0.92690027  1  0.067628  0.000182  3.753814  0.0  0.083982  0.000106  3.998507  0.0  0.082905  0.000116  4.024384  0.0  -0.016058  0.084902  -8e-06  3.98048  0.0
C  C33  1  0.74783527  0.94280577  0.02520285  1  -0.108041  0.000112  3.755636  0.0  -0.126613  8.2e-05  4.003805  0.0  -0.129358  0.0001  4.026048  0.0  -0.09092  -0.124441  3.2e-05  3.988498  0.0
C  C34  1  0.71692998  0.03992819  0.95910919  1  -0.111733  -5.4e-05  3.753208  0.0  -0.130854  -4.3e-05  4.00263  0.0  -0.133447  -3.4e-05  4.024053  0.0  -0.093516  -0.128766  -0.000132  3.987839  0.0
C  C35  1  0.49075979  0.66868528  0.74369448  1  -0.035257  -0.00171  3.710388  -0.002  -0.00834  -0.000447  3.944408  0.0  -0.018708  -0.000125  3.965472  0.0  -0.004013  -0.00279  -0.000698  3.932216  -0.001
C  C36  1  0.71423647  0.34281632  0.25964247  1  -0.030248  -0.002275  3.718679  -0.003  -0.004415  -0.000929  3.953016  -0.001  -0.013842  -0.000551  3.973339  -0.001  -0.001994  0.000603  -0.001283  3.940904  -0.002
C  C37  1  0.54722863  0.77966112  0.71495228  1  -0.05584  0.002469  3.665243  0.001  -0.10225  -0.000168  3.924569  0.0  -0.096842  -0.000281  3.940726  0.0  -0.053889  -0.105866  0.000882  3.914399  0.0
C  C38  1  0.80346407  0.22941519  0.27347461  1  -0.059099  0.000906  3.643123  0.001  -0.103019  -0.000342  3.898921  0.0  -0.097566  -0.00024  3.914258  0.0  -0.05606  -0.106235  -0.000411  3.889001  0.0
C  C39  1  0.38566875  0.84094770  0.63864554  1  0.072166  -0.00068  3.696955  -0.001  0.070841  -0.000104  3.950466  0.0  0.064647  -4.3e-05  3.974017  0.0  0.082917  0.074518  -0.000218  3.935077  -0.001
C  C40  1  0.74685339  0.16216963  0.35406855  1  0.075205  -0.000404  3.688168  -0.001  0.072419  2e-06  3.943115  0.0  0.066534  2.4e-05  3.9666  0.0  0.083012  0.075848  -9e-06  3.927571  0.0
C  C41  1  0.16846520  0.79416535  0.58579578  1  -0.100774  0.003655  3.636689  0.002  -0.13726  0.000392  3.891316  0.0  -0.132681  -1.7e-05  3.905179  0.0  -0.055735  -0.140419  0.002715  3.882518  0.001
C  C42  1  0.60356848  0.20316983  0.42159295  1  -0.104209  0.003132  3.642847  0.002  -0.140747  0.000243  3.901211  0.0  -0.136531  -1.2e-05  3.915685  0.0  -0.058192  -0.143403  0.001993  3.891777  0.001
C  C43  1  0.11948106  0.68176942  0.61397678  1  0.088703  -0.000497  3.674115  -0.001  0.079367  -9e-06  3.921992  0.0  0.07435  3e-05  3.942969  0.0  0.085363  0.082202  -2.3e-05  3.908222  0.0
C  C44  1  0.51611311  0.31578175  0.40359329  1  0.090748  -0.000652  3.697758  -0.001  0.079886  -0.000111  3.94768  0.0  0.074883  -5.6e-05  3.969147  0.0  0.087484  0.082832  -0.000234  3.933501  -0.001
C  C45  1  0.27472601  0.61868275  0.69318593  1  -0.039649  0.001259  3.605306  0.001  -0.085723  -0.000246  3.867699  0.0  -0.078231  -0.000198  3.878911  0.0  -0.047531  -0.090575  -0.000231  3.860905  0.0
C  C46  1  0.56770069  0.38642543  0.32405460  1  -0.052379  0.002167  3.629191  0.001  -0.097197  -0.000294  3.890905  -0.001  -0.090996  -0.000271  3.903707  0.0  -0.05113  -0.101266  0.000681  3.882956  0.0
C  C47  1  0.66888767  0.60925529  0.83089774  1  0.616961  0.00994  3.929558  0.008  0.573993  0.000994  4.22482  0.001  0.610422  0.00056  4.221712  0.001  0.194518  0.547872  0.001938  4.225818  0.002
C  C48  1  0.77436210  0.41872864  0.17558687  1  0.614322  0.008291  3.941318  0.007  0.571322  2e-06  4.236821  0.001  0.606483  0.000359  4.234334  0.001  0.198299  0.546564  -1.9e-05  4.237307  0.001
N  N49  1  0.13564175  0.61469696  0.10738545  1  -0.388309  -0.041161  3.374119  -0.063  -0.344318  -0.029241  3.695586  -0.036  -0.375871  -0.02242  3.710808  -0.026  -0.372523  -0.320997  -0.035778  3.684625  -0.045
N  N50  1  0.04345028  0.38297211  0.88629894  1  -0.371676  -0.041859  3.351359  -0.068  -0.326729  -0.030798  3.663004  -0.042  -0.355484  -0.024863  3.676821  -0.034  -0.366997  -0.305954  -0.036232  3.653515  -0.049
N  N51  1  0.42992644  0.73782494  0.15213129  1  -0.044066  -0.001222  3.581236  -0.002  0.049892  -0.001637  3.795307  -0.002  0.035822  -0.001151  3.819645  -0.002  -0.240522  0.059196  -0.002081  3.778609  -0.003
N  N52  1  0.28761419  0.25986113  0.84087827  1  -0.045016  -0.000265  3.588825  -0.002  0.047932  -0.000912  3.802623  -0.002  0.034198  -0.000686  3.826797  -0.002  -0.241971  0.056942  -0.001092  3.786293  -0.002
N  N53  1  0.89297926  0.62743081  0.55778011  1  0.473912  0.000125  3.932671  0.0  0.531446  -4.5e-05  4.183284  0.0  0.552763  -1.8e-05  4.19166  0.0  0.060258  0.517032  6.9e-05  4.178083  0.0
N  N54  1  0.36857510  0.36535740  0.47473756  1  0.472985  0.000183  3.940151  0.0  0.53055  -1.5e-05  4.1939  0.0  0.551739  -1.4e-05  4.2022  0.0  0.060595  0.516418  0.000127  4.18833  0.0
N  N55  1  0.44866480  0.96023559  0.61569293  1  0.500871  0.000424  3.892559  0.0  0.528688  1e-05  4.188939  0.0  0.549813  -5e-06  4.198018  0.0  0.057825  0.514547  0.000153  4.182958  0.0
N  N56  1  0.84134938  0.04282478  0.36695346  1  0.498048  0.000515  3.895819  0.0  0.524528  3.4e-05  4.195984  0.0  0.545579  7e-06  4.205013  0.0  0.056414  0.510297  0.000508  4.190264  0.0
O  O57  1  0.61107973  0.52739168  0.88640778  1  -0.612488  -0.04913  2.017923  -0.082  -0.580856  -0.035139  2.296615  -0.053  -0.622825  -0.025605  2.286538  -0.038  -0.324132  -0.547229  -0.045209  2.301303  -0.068
O  O58  1  0.72280795  0.52784227  0.17896168  1  -0.586163  -0.01191  1.934244  -0.021  -0.551751  -0.013472  2.170414  -0.023  -0.580218  -0.009675  2.164965  -0.017  -0.301591  -0.530287  -0.01782  2.173235  -0.029
O  O59  1  0.86538734  0.64303272  0.85123569  1  -0.594612  -0.016528  1.934063  -0.031  -0.56363  -0.016461  2.16819  -0.029  -0.594662  -0.011777  2.164017  -0.022  -0.309477  -0.539406  -0.021894  2.169576  -0.038
O  O60  1  0.87396606  0.36426201  0.09943432  1  -0.615127  -0.051353  2.042671  -0.087  -0.579666  -0.03841  2.309712  -0.059  -0.6213  -0.029129  2.300991  -0.045  -0.32743  -0.547078  -0.047644  2.313574  -0.073
O  O61  1  0.85374448  0.52504113  0.57903031  1  -0.332222  6.5e-05  1.784365  0.0  -0.328461  4e-05  1.983884  0.0  -0.341936  4.9e-05  1.982663  0.0  -0.113658  -0.319936  0.000304  1.985077  0.0
O  O62  1  0.24055555  0.44174464  0.43059871  1  -0.33407  5.4e-05  1.753419  0.0  -0.32935  5.6e-05  1.942373  0.0  -0.342773  5.6e-05  1.941269  0.0  -0.116821  -0.320529  0.000106  1.943274  0.0
O  O63  1  0.64588096  0.99509350  0.65541738  1  -0.347781  -4.2e-05  1.760862  0.0  -0.331755  -4.7e-05  1.971761  0.0  -0.343947  -3.2e-05  1.968825  0.0  -0.116003  -0.323769  1e-06  1.973965  0.0
O  O64  1  0.98833641  0.01490183  0.31913243  1  -0.342905  0.000291  1.762473  0.0  -0.33121  1.3e-05  1.974479  0.0  -0.342874  2e-06  1.971933  0.0  -0.116511  -0.32382  0.000456  1.976573  0.0
O  O65  1  0.75483162  0.68764116  0.49245415  1  -0.345432  -8.7e-05  1.751838  0.0  -0.342844  4e-06  1.946846  0.0  -0.356224  4.6e-05  1.94442  0.0  -0.12714  -0.334196  -2e-06  1.948756  0.0
O  O66  1  0.38277163  0.32841455  0.57497252  1  -0.337665  -7.2e-05  1.756842  0.0  -0.333044  -3e-05  1.950764  0.0  -0.34634  -1e-06  1.947995  0.0  -0.118169  -0.324401  -4e-06  1.952867  0.0
O  O67  1  0.30073514  0.02174971  0.55961812  1  -0.36474  -2.8e-05  1.777195  0.0  -0.348848  -1.2e-05  1.99324  0.0  -0.362155  1.9e-05  1.989801  0.0  -0.128333  -0.340124  -2.5e-05  1.995878  0.0
O  O68  1  0.76628100  0.97533157  0.42393310  1  -0.360893  -9.5e-05  1.774328  0.0  -0.34073  -2.4e-05  1.987797  0.0  -0.354528  1.6e-05  1.983879  0.0  -0.121226  -0.331753  5.5e-05  1.990769  0.0
