# generated using pymatgen
data_ErH8(C3O5)2
_symmetry_space_group_name_H-M   'P 1'
_cell_length_a   5.97953016
_cell_length_b   7.34521628
_cell_length_c   13.02099307
_cell_angle_alpha   104.61958201
_cell_angle_beta   101.37502374
_cell_angle_gamma   90.58458740
_symmetry_Int_Tables_number   1
_chemical_formula_structural   ErH8(C3O5)2
_chemical_formula_sum   'Er2 H16 C12 O20'
_cell_volume   541.42250825
_cell_formula_units_Z   2
loop_
 _symmetry_equiv_pos_site_id
 _symmetry_equiv_pos_as_xyz
  1  'x, y, z'
loop_
 _atom_site_type_symbol
 _atom_site_label
 _atom_site_symmetry_multiplicity
 _atom_site_fract_x
 _atom_site_fract_y
 _atom_site_fract_z
 _atom_site_occupancy
 _atom_site_hle17_bader_spin_density
 _atom_site_hle17_ddec_charge
 _atom_site_hle17_ddec_spin_density
 _atom_site_hle17_ddec_sum_bond_order
 _atom_site_hle17_magmom
 _atom_site_hse06_10hf_bader_spin_density
 _atom_site_hse06_10hf_ddec_charge
 _atom_site_hse06_10hf_ddec_spin_density
 _atom_site_hse06_10hf_ddec_sum_bond_order
 _atom_site_hse06_10hf_magmom
 _atom_site_hse06_bader_spin_density
 _atom_site_hse06_ddec_charge
 _atom_site_hse06_ddec_spin_density
 _atom_site_hse06_ddec_sum_bond_order
 _atom_site_hse06_magmom
 _atom_site_pbe_bader_spin_density
 _atom_site_pbe_cm5_charge
 _atom_site_pbe_ddec_charge
 _atom_site_pbe_ddec_spin_density
 _atom_site_pbe_ddec_sum_bond_order
 _atom_site_pbe_magmom
Er  Er0  1  0.01779790  0.81996940  0.68229036  1  0  2.203891  0  1.606915  0  0  2.042447  0  2.098361  0  0  2.188786  0  1.875408  0  0  1.487545  2.005517  0  2.127716  0
Er  Er1  1  0.98469628  0.16023776  0.31477234  1  0  2.206911  0  1.626614  0  0  2.045996  0  2.119654  0  0  2.191953  0  1.897521  0  0  1.494744  2.009256  0  2.148752  0
H  H2  1  0.35279202  0.95685249  0.06194939  1  0  0.075169  0  0.920363  0  0  0.081456  0  0.9835  0  0  0.084741  0  0.979946  0  0  0.113253  0.079333  0  0.985641  0
H  H3  1  0.62343225  0.89360488  0.94475351  1  0  0.056538  0  0.919153  0  0  0.062239  0  0.984092  0  0  0.065426  0  0.980259  0  0  0.109887  0.060162  0  0.986483  0
H  H4  1  0.50705626  0.31906734  0.56468081  1  0  0.109767  0  0.881894  0  0  0.116108  0  0.938262  0  0  0.11905  0  0.935547  0  0  0.130365  0.114251  0  0.939611  0
H  H5  1  0.47557723  0.29873039  0.73790363  1  0  0.102646  0  0.887425  0  0  0.11155  0  0.94113  0  0  0.114257  0  0.938234  0  0  0.133293  0.109801  0  0.942767  0
H  H6  1  0.50893538  0.75860262  0.43595178  1  0  0.099129  0  0.889347  0  0  0.105966  0  0.947453  0  0  0.108774  0  0.94469  0  0  0.127249  0.104214  0  0.948866  0
H  H7  1  0.53561739  0.59414168  0.25906727  1  0  0.088074  0  0.890736  0  0  0.098533  0  0.943881  0  0  0.101081  0  0.940977  0  0  0.12894  0.096876  0  0.94556  0
H  H8  1  0.77207394  0.65529872  0.81892039  1  0  0.448751  0  0.797678  0  0  0.435756  0  0.84015  0  0  0.444059  0  0.82859  0  0  0.340307  0.430158  0  0.848197  0
H  H9  1  0.59607093  0.71274003  0.72377109  1  0  0.452641  0  0.841435  0  0  0.418813  0  0.909212  0  0  0.430955  0  0.891825  0  0  0.30732  0.410251  0  0.921713  0
H  H10  1  0.24588013  0.82282918  0.23861865  1  0  0.451784  0  0.79427  0  0  0.438724  0  0.835512  0  0  0.447042  0  0.824038  0  0  0.343689  0.433168  0  0.843444  0
H  H11  1  0.40490433  0.01636511  0.27253507  1  0  0.456117  0  0.835533  0  0  0.42231  0  0.903185  0  0  0.434556  0  0.885547  0  0  0.310884  0.41371  0  0.915804  0
H  H12  1  0.17449239  0.23947145  0.07881527  1  0  0.376036  0  0.899258  0  0  0.355256  0  0.969554  0  0  0.364868  0  0.958107  0  0  0.296406  0.348587  0  0.977434  0
H  H13  1  0.79442842  0.14716556  0.90640460  1  0  0.378572  0  0.89703  0  0  0.357819  0  0.966832  0  0  0.367663  0  0.954953  0  0  0.297016  0.351017  0  0.974897  0
H  H14  1  0.19823123  0.99256479  0.48670255  1  0  0.374219  0  0.932724  0  0  0.348976  0  1.004113  0  0  0.359914  0  0.99381  0  0  0.30205  0.341027  0  1.012795  0
H  H15  1  0.15639226  0.20291666  0.77099600  1  0  0.412715  0  0.81915  0  0  0.396477  0  0.871138  0  0  0.405863  0  0.862191  0  0  0.336024  0.389599  0  0.878842  0
H  H16  1  0.81760635  0.49910057  0.50808178  1  0  0.378135  0  0.930511  0  0  0.352762  0  1.000823  0  0  0.363767  0  0.990903  0  0  0.304945  0.344724  0  1.009373  0
H  H17  1  0.83821220  0.44198225  0.21970208  1  0  0.403808  0  0.842471  0  0  0.386527  0  0.897494  0  0  0.396084  0  0.888381  0  0  0.327163  0.379379  0  0.905682  0
C  C18  1  0.19893320  0.96033729  0.90157578  1  0  0.623986  0  3.871397  0  0  0.5733  0  4.179848  0  0  0.604028  0  4.184097  0  0  0.190341  0.55121  0  4.183879  0
C  C19  1  0.36377179  0.05088952  0.00865563  1  0  0.079983  0  3.644552  0  0  0.057173  0  3.898033  0  0  0.058464  0  3.904407  0  0  -0.001801  0.056736  0  3.892495  0
C  C20  1  0.60903397  0.04226477  0.98765082  1  0  0.087169  0  3.658777  0  0  0.065426  0  3.914421  0  0  0.067248  0  3.92049  0  0  -0.000489  0.064618  0  3.909126  0
C  C21  1  0.77505444  0.07557893  0.09691438  1  0  0.627695  0  3.864671  0  0  0.575816  0  4.171912  0  0  0.60652  0  4.176318  0  0  0.191778  0.553859  0  4.175568  0
C  C22  1  0.15777651  0.38478944  0.56745300  1  0  0.714796  0  3.7765  0  0  0.663222  0  4.077323  0  0  0.69897  0  4.071273  0  0  0.241387  0.639109  0  4.085347  0
C  C23  1  0.34708965  0.24536140  0.56616217  1  0  0.075556  0  3.583758  0  0  0.051097  0  3.834498  0  0  0.053342  0  3.840609  0  0  0.006979  0.049936  0  3.830937  0
C  C24  1  0.37870239  0.18352830  0.67259365  1  0  0.069559  0  3.581585  0  0  0.042095  0  3.83411  0  0  0.044777  0  3.839763  0  0  0.010147  0.040679  0  3.830536  0
C  C25  1  0.51269158  0.00580039  0.67015890  1  0  0.693742  0  3.821606  0  0  0.641485  0  4.128364  0  0  0.676922  0  4.12347  0  0  0.230476  0.617679  0  4.135401  0
C  C26  1  0.85825702  0.82352652  0.43243577  1  0  0.710129  0  3.79608  0  0  0.659974  0  4.095432  0  0  0.695478  0  4.089741  0  0  0.23762  0.635927  0  4.103426  0
C  C27  1  0.66646240  0.68344309  0.43169655  1  0  0.072586  0  3.608084  0  0  0.046087  0  3.86216  0  0  0.048304  0  3.869054  0  0  0.006174  0.044786  0  3.858455  0
C  C28  1  0.63045921  0.53249635  0.32211064  1  0  0.070366  0  3.600943  0  0  0.04138  0  3.859522  0  0  0.044177  0  3.86482  0  0  0.008258  0.040002  0  3.855952  0
C  C29  1  0.49204969  0.35630452  0.32278797  1  0  0.694432  0  3.828156  0  0  0.64169  0  4.135386  0  0  0.677098  0  4.130519  0  0  0.231643  0.618009  0  4.142108  0
O  O30  1  0.74808654  0.65908973  0.74352822  1  0  -0.895233  0  1.839023  0  0  -0.851067  0  2.030606  0  0  -0.88187  0  1.989544  0  0  -0.626714  -0.838093  0  2.052529  0
O  O31  1  0.24646696  0.95586828  0.24094038  1  0  -0.898253  0  1.862049  0  0  -0.853275  0  2.056916  0  0  -0.884418  0  2.015658  0  0  -0.626181  -0.840126  0  2.07902  0
O  O32  1  0.22267149  0.79044175  0.85383011  1  0  -0.669252  0  1.952601  0  0  -0.626616  0  2.187125  0  0  -0.660333  0  2.177034  0  0  -0.381474  -0.610072  0  2.193051  0
O  O33  1  0.04339912  0.05428408  0.85843106  1  0  -0.726442  0  2.050847  0  0  -0.669088  0  2.284886  0  0  -0.70317  0  2.273973  0  0  -0.366609  -0.651724  0  2.292323  0
O  O34  1  0.32455534  0.23893288  0.05803717  1  0  -0.525727  0  2.005401  0  0  -0.493682  0  2.216369  0  0  -0.505748  0  2.203494  0  0  -0.411374  -0.484744  0  2.224459  0
O  O35  1  0.64259584  0.16737611  0.92500402  1  0  -0.526248  0  2.015526  0  0  -0.494944  0  2.229981  0  0  -0.507462  0  2.216885  0  0  -0.407212  -0.485625  0  2.238112  0
O  O36  1  0.76359715  0.95816044  0.15221419  1  0  -0.655833  0  1.972609  0  0  -0.613609  0  2.210395  0  0  -0.647113  0  2.20121  0  0  -0.377253  -0.596944  0  2.215764  0
O  O37  1  0.91901457  0.22069767  0.13354766  1  0  -0.722073  0  2.032949  0  0  -0.662853  0  2.263441  0  0  -0.696839  0  2.25205  0  0  -0.366971  -0.645493  0  2.271051  0
O  O38  1  0.17797243  0.53083050  0.64401978  1  0  -0.668463  0  2.039862  0  0  -0.620758  0  2.297158  0  0  -0.657639  0  2.279754  0  0  -0.370804  -0.603858  0  2.304891  0
O  O39  1  0.98446192  0.34065171  0.48789887  1  0  -0.715517  0  2.124542  0  0  -0.656539  0  2.370897  0  0  -0.696366  0  2.358114  0  0  -0.382635  -0.637683  0  2.377476  0
O  O40  1  0.29103095  0.09400614  0.47013409  1  0  -0.62587  0  2.146306  0  0  -0.582863  0  2.38365  0  0  -0.608026  0  2.371685  0  0  -0.421954  -0.571409  0  2.391053  0
O  O41  1  0.15791419  0.14941762  0.69403355  1  0  -0.601057  0  2.174151  0  0  -0.553086  0  2.404143  0  0  -0.577965  0  2.392089  0  0  -0.418644  -0.54168  0  2.411194  0
O  O42  1  0.40934552  0.86507432  0.68525369  1  0  -0.71017  0  2.130128  0  0  -0.650488  0  2.378116  0  0  -0.689416  0  2.366921  0  0  -0.366612  -0.631572  0  2.384105  0
O  O43  1  0.71418848  0.00920729  0.65498385  1  0  -0.681333  0  2.031009  0  0  -0.637739  0  2.291732  0  0  -0.675402  0  2.276454  0  0  -0.382094  -0.620034  0  2.297936  0
O  O44  1  0.03601942  0.84264802  0.50851508  1  0  -0.703361  0  2.108665  0  0  -0.643832  0  2.350569  0  0  -0.682716  0  2.338047  0  0  -0.373043  -0.625114  0  2.356837  0
O  O45  1  0.83416377  0.90825257  0.35889653  1  0  -0.684546  0  2.061315  0  0  -0.639245  0  2.325058  0  0  -0.676399  0  2.307255  0  0  -0.382208  -0.622323  0  2.333067  0
O  O46  1  0.72001240  0.61169223  0.52481051  1  0  -0.605056  0  2.132413  0  0  -0.558906  0  2.368295  0  0  -0.584601  0  2.357256  0  0  -0.417344  -0.546908  0  2.375105  0
O  O47  1  0.84919335  0.48252850  0.29889932  1  0  -0.594366  0  2.161724  0  0  -0.547454  0  2.390338  0  0  -0.571495  0  2.378622  0  0  -0.413255  -0.536297  0  2.397637  0
O  O48  1  0.59691248  0.20505463  0.31548657  1  0  -0.70338  0  2.126223  0  0  -0.640886  0  2.371418  0  0  -0.679659  0  2.36003  0  0  -0.364764  -0.622066  0  2.377187  0
O  O49  1  0.28576801  0.37128700  0.33018643  1  0  -0.682723  0  2.028345  0  0  -0.639533  0  2.291724  0  0  -0.677531  0  2.275947  0  0  -0.386444  -0.621818  0  2.298008  0
