# generated using pymatgen
data_ZnH17C26NO4
_symmetry_space_group_name_H-M   'P 1'
_cell_length_a   13.93523491
_cell_length_b   15.32260424
_cell_length_c   17.22532197
_cell_angle_alpha   89.09614137
_cell_angle_beta   83.22579016
_cell_angle_gamma   87.33824335
_symmetry_Int_Tables_number   1
_chemical_formula_structural   ZnH17C26NO4
_chemical_formula_sum   'Zn2 H34 C52 N2 O8'
_cell_volume   3648.20673573
_cell_formula_units_Z   2
loop_
 _symmetry_equiv_pos_site_id
 _symmetry_equiv_pos_as_xyz
  1  'x, y, z'
loop_
 _atom_site_type_symbol
 _atom_site_label
 _atom_site_symmetry_multiplicity
 _atom_site_fract_x
 _atom_site_fract_y
 _atom_site_fract_z
 _atom_site_occupancy
 _atom_site_pbe_bader_charge
 _atom_site_pbe_bader_spin_density
 _atom_site_pbe_cm5_charge
 _atom_site_pbe_ddec_charge
 _atom_site_pbe_ddec_spin_density
 _atom_site_pbe_ddec_sum_bond_order
 _atom_site_pbe_magmom
Zn  Zn0  1  0.59900864  0.49282580  0.49915709  1  1.287134  0  0.668836  0.820916  0  2.438718  0
Zn  Zn1  1  0.39702638  0.50259326  0.50928542  1  1.281802  0  0.666554  0.817343  0  2.415962  0
H  H2  1  0.37496986  0.59656157  0.27550840  1  0.11454  0  0.102169  0.106036  0  1.002784  0
H  H3  1  0.94136046  0.57422614  0.39217619  1  0.091339  0  0.114803  0.119929  0  0.987202  0
H  H4  1  0.32455473  0.55374053  0.75582362  1  0.070051  0  0.105206  0.110835  0  0.996036  0
H  H5  1  0.67846047  0.52739724  0.24776929  1  0.086748  0  0.101632  0.104728  0  1.004632  0
H  H6  1  0.39303880  0.60940926  0.01009939  1  0.007617  0  0.098247  0.094195  0  1.009765  0
H  H7  1  0.61560901  0.59771446  0.99404986  1  0.015462  0  0.098269  0.093417  0  1.012865  0
H  H8  1  0.68780904  0.56509637  0.10554395  1  0.048227  0  0.097886  0.095491  0  1.002602  0
H  H9  1  0.31925211  0.60082615  0.89467570  1  0.043496  0  0.098302  0.095885  0  1.001438  0
H  H10  1  0.62999974  0.56431035  0.87781145  1  0.067588  0  0.097761  0.095145  0  1.012361  0
H  H11  1  0.38238842  0.63543574  0.13439125  1  0.047135  0  0.098701  0.097377  0  1.006184  0
H  H12  1  0.63567557  0.93325303  0.54551456  1  0.061331  0  0.098989  0.098621  0  1.023855  0
H  H13  1  0.63281718  0.51808148  0.74034584  1  0.092391  0  0.09989  0.099198  0  1.022266  0
H  H14  1  0.41172829  0.05835147  0.40899236  1  0.074982  0  0.099335  0.100313  0  1.017247  0
H  H15  1  0.34756106  0.78076390  0.48834759  1  0.065603  0  0.100629  0.102137  0  1.008294  0
H  H16  1  0.58733654  0.21948220  0.59099919  1  0.074198  0  0.103918  0.107493  0  0.989676  0
H  H17  1  0.34562934  0.94328121  0.48183552  1  0.06945  0  0.099079  0.099252  0  1.006466  0
H  H18  1  0.57950634  0.05805166  0.60368238  1  0.065274  0  0.100954  0.102112  0  1.003735  0
H  H19  1  0.58827646  0.69374741  0.65857119  1  0.071717  0  0.102062  0.104347  0  1.001204  0
H  H20  1  0.73769625  0.62956713  0.70420678  1  0.057411  0  0.095079  0.088617  0  1.019406  0
H  H21  1  0.89903687  0.66087835  0.63289040  1  0.064154  0  0.092819  0.08715  0  1.007863  0
H  H22  1  0.90850711  0.75969077  0.51585154  1  0.073065  0  0.091484  0.083559  0  1.010928  0
H  H23  1  0.75815863  0.82529262  0.47084978  1  0.058724  0  0.098208  0.098499  0  1.001777  0
H  H24  1  0.06481207  0.63080026  0.46035176  1  0.086461  0  0.113542  0.119054  0  0.995542  0
H  H25  1  0.26813121  0.16555209  0.40684771  1  0.038285  0  0.094364  0.09122  0  1.010827  0
H  H26  1  0.19035875  0.23879499  0.29910458  1  0.058029  0  0.095214  0.090183  0  1.002242  0
H  H27  1  0.28079275  0.34582279  0.21145537  1  0.044112  0  0.096496  0.090101  0  1.003087  0
H  H28  1  0.44946023  0.37823921  0.23214349  1  0.047294  0  0.0989  0.095847  0  1.005763  0
H  H29  1  0.52696351  0.30479456  0.33921896  1  0.083536  0  0.103222  0.10764  0  0.99282  0
H  H30  1  0.92080236  0.41677523  0.60353859  1  0.097084  0  0.114769  0.121057  0  0.987995  0
H  H31  1  0.24406867  0.62718577  0.46768579  1  0.129364  0  0.129692  0.105494  0  0.975575  0
H  H32  1  0.74097694  0.42077551  0.60031340  1  0.126996  0  0.130975  0.107335  0  0.968173  0
H  H33  1  0.24892133  0.36748716  0.53564793  1  0.145411  0  0.131192  0.110482  0  0.975518  0
H  H34  1  0.76058183  0.57103018  0.39839243  1  0.13948  0  0.131527  0.106637  0  0.968813  0
H  H35  1  0.06949783  0.35942859  0.53342542  1  0.09514  0  0.11565  0.121637  0  0.986575  0
C  C36  1  0.48820000  0.66836657  0.51460167  1  1.559738  0  0.210573  0.58968  0  4.180074  0
C  C37  1  0.54829669  0.18322568  0.55172746  1  -0.010308  0  -0.088759  -0.0921  0  4.015467  0
C  C38  1  0.40996217  0.90621373  0.49628519  1  -0.042804  0  -0.096457  -0.142637  0  4.006386  0
C  C39  1  0.54436649  0.09290480  0.55827866  1  -0.089886  0  -0.094661  -0.138533  0  4.001976  0
C  C40  1  0.49155184  0.95029427  0.51208455  1  0.000525  0  -0.006185  0.082801  0  4.016189  0
C  C41  1  0.49368864  0.04647586  0.50769296  1  -0.027382  0  -0.008673  0.073089  0  4.020393  0
C  C42  1  0.10263231  0.57082964  0.47710865  1  -0.043382  0  -0.077891  -0.178785  0  3.948166  0
C  C43  1  0.88860260  0.45071023  0.55623623  1  -0.063011  0  -0.077531  -0.178479  0  3.952983  0
C  C44  1  0.20163721  0.56967236  0.48118083  1  0.479452  0  0.063374  0.108667  0  3.917927  0
C  C45  1  0.78907057  0.45279792  0.55520914  1  0.482033  0  0.064424  0.109057  0  3.920313  0
C  C46  1  0.20412987  0.42413739  0.52074272  1  0.50803  0  0.067561  0.116029  0  3.900444  0
C  C47  1  0.50205693  0.32779842  0.49723599  1  1.557776  0  0.217255  0.599614  0  4.186433  0
C  C48  1  0.79997702  0.53799987  0.44226523  1  0.521652  0  0.069214  0.118781  0  3.903408  0
C  C49  1  0.10496319  0.42049666  0.51913976  1  -0.015492  0  -0.076316  -0.176813  0  3.943557  0
C  C50  1  0.89989845  0.53956962  0.43961482  1  -0.027564  0  -0.074848  -0.173203  0  3.950038  0
C  C51  1  0.51852940  0.52697935  0.35316374  1  1.578498  0  0.210981  0.586039  0  4.185423  0
C  C52  1  0.48362807  0.50406790  0.65677185  1  1.553125  0  0.208682  0.584055  0  4.186145  0
C  C53  1  0.05198137  0.49521081  0.49750084  1  -0.0438  0  0.015951  0.108421  0  3.991449  0
C  C54  1  0.94620845  0.49482493  0.49733650  1  0.01216  0  0.015421  0.102996  0  3.998986  0
C  C55  1  0.52560121  0.55709995  0.26968762  1  -0.038471  0  -0.019782  -0.036339  0  3.967111  0
C  C56  1  0.47896527  0.53209971  0.74005039  1  -0.021371  0  -0.019493  -0.032937  0  3.962587  0
C  C57  1  0.44300769  0.58987613  0.23735551  1  -0.085766  0  -0.084026  -0.088818  0  3.997316  0
C  C58  1  0.57184178  0.90021519  0.53246526  1  -0.053805  0  -0.089566  -0.183574  0  3.943746  0
C  C59  1  0.56468228  0.53681019  0.77501337  1  -0.094433  0  -0.087679  -0.095411  0  4.011658  0
C  C60  1  0.44767587  0.61115687  0.15844255  1  -0.004393  0  -0.092812  -0.135915  0  3.972922  0
C  C61  1  0.56243726  0.56323252  0.85176938  1  -0.018077  0  -0.092595  -0.132443  0  3.973554  0
C  C62  1  0.53523783  0.59939919  0.10866856  1  -0.11377  0  -0.011121  0.114245  0  4.046864  0
C  C63  1  0.47382658  0.58579648  0.89707884  1  -0.010271  0  -0.010651  0.115598  0  4.044707  0
C  C64  1  0.61902806  0.57257858  0.14294787  1  0.004519  0  -0.094173  -0.140431  0  3.984543  0
C  C65  1  0.38842763  0.58298323  0.86070361  1  -0.140291  0  -0.092242  -0.139809  0  3.978655  0
C  C66  1  0.61429579  0.55122379  0.22200622  1  -0.040531  0  -0.087096  -0.091467  0  4.00327  0
C  C67  1  0.39070288  0.55645967  0.78355692  1  0.07544  0  -0.085533  -0.088439  0  3.989768  0
C  C68  1  0.54182666  0.60388208  0.02379161  1  0.013764  0  -0.092284  -0.131848  0  4.000389  0
C  C69  1  0.44720211  0.09375321  0.45128517  1  -0.063641  0  -0.090581  -0.181736  0  3.94406  0
C  C70  1  0.46687474  0.60348311  0.98040503  1  0.013952  0  -0.090748  -0.130613  0  3.997179  0
C  C71  1  0.66267091  0.76392877  0.56122644  1  -0.026836  0  -0.003379  0.084969  0  3.979411  0
C  C72  1  0.65832000  0.70819390  0.62692554  1  -0.013769  0  -0.085866  -0.108658  0  3.943178  0
C  C73  1  0.74272526  0.67172811  0.65243953  1  -0.073287  0  -0.09868  -0.0848  0  4.041066  0
C  C74  1  0.83314543  0.68948882  0.61264454  1  -0.032397  0  -0.107494  -0.106389  0  4.065667  0
C  C75  1  0.83835730  0.74477174  0.54720715  1  -0.152663  0  -0.106583  -0.097945  0  4.084086  0
C  C76  1  0.75386401  0.78205255  0.52202507  1  -0.006931  0  -0.097424  -0.141504  0  3.989186  0
C  C77  1  0.40280515  0.23014247  0.38075459  1  -0.044944  0  -0.009473  0.073017  0  4.000044  0
C  C78  1  0.30808868  0.21186727  0.36811469  1  -0.060753  0  -0.098846  -0.141715  0  4.002786  0
C  C79  1  0.26424987  0.25340527  0.30779537  1  -0.052676  0  -0.1037  -0.096672  0  4.075521  0
C  C80  1  0.57404656  0.80875993  0.53652298  1  -0.07463  0  0.002861  0.065572  0  3.953931  0
C  C81  1  0.31479388  0.31344900  0.25872714  1  -0.052835  0  -0.100938  -0.098196  0  4.047763  0
C  C82  1  0.40941635  0.33160747  0.27032972  1  -0.042938  0  -0.092748  -0.071819  0  4.019608  0
C  C83  1  0.45295199  0.29041170  0.33076918  1  -0.021859  0  -0.08798  -0.116436  0  3.945527  0
C  C84  1  0.44937117  0.18494812  0.44431282  1  0.05413  0  -0.001637  0.055285  0  3.977291  0
C  C85  1  0.49157858  0.76574410  0.51924520  1  0.027858  0  -0.015005  -0.075047  0  3.921214  0
C  C86  1  0.50048482  0.23002344  0.49610146  1  -0.002923  0  -0.012814  -0.068107  0  3.928497  0
C  C87  1  0.41045470  0.81564262  0.50042384  1  -0.009632  0  -0.088975  -0.086806  0  4.019622  0
N  N88  1  0.25112478  0.49788385  0.50312032  1  -1.225871  0  -0.314099  -0.188449  0  3.50378  0
N  N89  1  0.74585973  0.49511856  0.49889554  1  -1.231308  0  -0.313679  -0.186544  0  3.507107  0
O  O90  1  0.56827508  0.62574190  0.49787146  1  -1.166829  0  -0.309934  -0.54502  0  2.371999  0
O  O91  1  0.42126447  0.37020121  0.49763343  1  -1.171522  0  -0.310764  -0.550531  0  2.360613  0
O  O92  1  0.40497195  0.63589616  0.52561767  1  -1.164566  0  -0.321679  -0.551514  0  2.311652  0
O  O93  1  0.58392744  0.36032446  0.49993401  1  -1.157663  0  -0.320626  -0.549071  0  2.308247  0
O  O94  1  0.59667124  0.49996191  0.37944394  1  -1.169975  0  -0.324991  -0.557169  0  2.311884  0
O  O95  1  0.40435810  0.49341016  0.62895649  1  -1.162113  0  -0.323661  -0.546031  0  2.293131  0
O  O96  1  0.43460335  0.52970632  0.39165514  1  -1.177664  0  -0.318062  -0.554572  0  2.338211  0
O  O97  1  0.56816641  0.49484489  0.61923422  1  -1.178252  0  -0.321912  -0.56387  0  2.350331  0
