# generated using pymatgen
data_CuH7C7NO6
_symmetry_space_group_name_H-M   'P 1'
_cell_length_a   7.17884185
_cell_length_b   12.30610327
_cell_length_c   20.27127375
_cell_angle_alpha   90.00104117
_cell_angle_beta   90.00016574
_cell_angle_gamma   89.99972615
_symmetry_Int_Tables_number   1
_chemical_formula_structural   CuH7C7NO6
_chemical_formula_sum   'Cu8 H56 C56 N8 O48'
_cell_volume   1790.83667481
_cell_formula_units_Z   8
loop_
 _symmetry_equiv_pos_site_id
 _symmetry_equiv_pos_as_xyz
  1  'x, y, z'
loop_
 _atom_site_type_symbol
 _atom_site_label
 _atom_site_symmetry_multiplicity
 _atom_site_fract_x
 _atom_site_fract_y
 _atom_site_fract_z
 _atom_site_occupancy
 _atom_site_pbe_bader_charge
 _atom_site_pbe_bader_spin_density
 _atom_site_pbe_cm5_charge
 _atom_site_pbe_ddec_charge
 _atom_site_pbe_ddec_spin_density
 _atom_site_pbe_ddec_sum_bond_order
 _atom_site_pbe_magmom
Cu  Cu0  1  0.31682087  0.03526013  0.63115556  1  1.101682  0.594468  0.724012  0.855895  0.775604  2.182399  0.594
Cu  Cu1  1  0.31681663  0.96474082  0.86884809  1  1.101629  -0.594326  0.723964  0.855845  -0.775382  2.18239  -0.594
Cu  Cu2  1  0.18320630  0.53524843  0.86882896  1  1.101821  0.594463  0.723887  0.855794  0.775599  2.182086  0.594
Cu  Cu3  1  0.18319868  0.46474965  0.63116764  1  1.101691  0.594538  0.723866  0.855674  0.775706  2.182307  0.594
Cu  Cu4  1  0.68317319  0.96474069  0.36884517  1  1.101687  -0.594465  0.724019  0.855913  -0.775593  2.182396  -0.594
Cu  Cu5  1  0.68317046  0.03526000  0.13115462  1  1.101634  0.594322  0.723936  0.855734  0.775369  2.182437  0.594
Cu  Cu6  1  0.81679194  0.46474670  0.13117128  1  1.101794  -0.594467  0.723917  0.85585  -0.77561  2.182022  -0.594
Cu  Cu7  1  0.81680792  0.53525036  0.36883309  1  1.101802  -0.594537  0.723878  0.855735  -0.775696  2.18226  -0.594
H  H8  1  0.56829970  0.85190448  0.65225837  1  0.647772  0.000256  0.283853  0.383792  0.000275  0.960425  0.0
H  H9  1  0.56831587  0.14810958  0.84774259  1  0.647626  0.000333  0.283863  0.383754  0.000464  0.960478  0.0
H  H10  1  0.93172603  0.35189169  0.84775028  1  0.647438  -0.000321  0.283796  0.383716  -0.000315  0.96054  0.0
H  H11  1  0.93170594  0.64811078  0.65225205  1  0.647459  0.000269  0.283803  0.383696  0.000433  0.96056  0.0
H  H12  1  0.43169018  0.14809715  0.34774137  1  0.647891  -0.000255  0.283868  0.383792  -0.000275  0.960407  0.0
H  H13  1  0.43168655  0.85189368  0.15225617  1  0.647578  -0.000333  0.283844  0.383771  -0.000464  0.960474  0.0
H  H14  1  0.06827500  0.64810669  0.15224750  1  0.647414  0.000321  0.283815  0.383722  0.000315  0.960525  0.0
H  H15  1  0.06828673  0.35189085  0.34774917  1  0.647465  -0.00027  0.283782  0.383695  -0.000433  0.960574  0.0
H  H16  1  0.62690077  0.95923134  0.68595839  1  0.599506  -0.000135  0.309461  0.39958  -0.000178  0.890593  0.0
H  H17  1  0.62690501  0.04077524  0.81405004  1  0.599679  0.000115  0.309588  0.399776  0.000171  0.890444  0.0
H  H18  1  0.87310040  0.45921280  0.81405239  1  0.599841  -6.4e-05  0.309654  0.399847  -1.3e-05  0.890382  0.0
H  H19  1  0.87310514  0.54078172  0.68594494  1  0.59986  -8.1e-05  0.309671  0.399851  -1.5e-05  0.89035  0.0
H  H20  1  0.37310443  0.04076867  0.31404087  1  0.599491  0.000135  0.309467  0.399601  0.000178  0.890546  0.0
H  H21  1  0.37308905  0.95922395  0.18595020  1  0.599531  -0.000115  0.309584  0.399773  -0.000171  0.89045  0.0
H  H22  1  0.12689226  0.54078477  0.18594735  1  0.599851  6.4e-05  0.309664  0.399821  1.3e-05  0.890433  0.0
H  H23  1  0.12689450  0.45922073  0.31405727  1  0.599879  8.1e-05  0.309655  0.39987  1.5e-05  0.890379  0.0
H  H24  1  0.42524608  0.18578226  0.69794404  1  0.65151  7.5e-05  0.292904  0.390757  0.000527  0.948155  0.0
H  H25  1  0.42523419  0.81422326  0.80206171  1  0.651535  -9e-05  0.293  0.390871  -0.000502  0.947994  0.0
H  H26  1  0.07471578  0.68576473  0.80204505  1  0.651814  6.1e-05  0.292888  0.390886  0.00048  0.947931  0.0
H  H27  1  0.07470713  0.31424096  0.69794947  1  0.651778  6.5e-05  0.292812  0.390725  0.000549  0.94813  0.0
H  H28  1  0.57475215  0.81421937  0.30205867  1  0.651455  -7.5e-05  0.292945  0.390822  -0.000527  0.94806  0.0
H  H29  1  0.57476823  0.18577593  0.19793607  1  0.651528  9e-05  0.292998  0.390858  0.000502  0.948016  0.0
H  H30  1  0.92528246  0.31423446  0.19795420  1  0.651678  -6e-05  0.29289  0.390862  -0.00048  0.947954  0.0
H  H31  1  0.92529251  0.68576067  0.30205028  1  0.651762  -6.5e-05  0.292806  0.390723  -0.000549  0.948141  0.0
H  H32  1  0.30539440  0.10592201  0.74765281  1  0.666613  0.000154  0.300157  0.398645  0.000457  0.932698  0.001
H  H33  1  0.30539401  0.89407978  0.75235281  1  0.666716  -0.000156  0.300191  0.39861  -0.000469  0.932706  -0.001
H  H34  1  0.19459040  0.60591723  0.75233444  1  0.66617  0.000129  0.300123  0.398623  0.000692  0.932733  0.0
H  H35  1  0.19458706  0.39408731  0.74765675  1  0.666352  0.000134  0.30014  0.398611  0.000715  0.932701  0.0
H  H36  1  0.69459965  0.89407637  0.25234743  1  0.666602  -0.000155  0.300147  0.398631  -0.000457  0.932691  -0.001
H  H37  1  0.69460841  0.10592347  0.24764496  1  0.666773  0.000155  0.300219  0.398646  0.000468  0.932652  0.001
H  H38  1  0.80540784  0.39408277  0.24766432  1  0.666179  -0.000129  0.300138  0.398641  -0.000692  0.932698  0.0
H  H39  1  0.80541118  0.60591432  0.25234251  1  0.666314  -0.000134  0.300158  0.398627  -0.000715  0.932681  0.0
H  H40  1  0.94005474  0.72796872  0.54826444  1  0.130465  0.001398  0.120081  0.138914  0.000704  0.988844  0.001
H  H41  1  0.94003033  0.27203536  0.95174530  1  0.13146  -0.001726  0.120097  0.138947  -0.000994  0.988773  -0.001
H  H42  1  0.55999706  0.22798133  0.95173006  1  0.131666  0.001732  0.12008  0.138798  0.000977  0.9888  0.001
H  H43  1  0.55998351  0.77202219  0.54826398  1  0.131369  0.001389  0.120089  0.13886  0.00072  0.988854  0.001
H  H44  1  0.05995046  0.27203616  0.45173826  1  0.13132  -0.001397  0.120089  0.138928  -0.000704  0.988842  -0.001
H  H45  1  0.05995398  0.72796546  0.04825593  1  0.131437  0.001726  0.120086  0.138949  0.000994  0.988763  0.001
H  H46  1  0.43999003  0.77201299  0.04827117  1  0.131621  -0.001732  0.120077  0.138817  -0.000977  0.988767  -0.001
H  H47  1  0.44002588  0.22797131  0.45173576  1  0.130342  -0.001391  0.120083  0.138808  -0.00072  0.988943  -0.001
H  H48  1  0.17938467  0.92371660  0.39311548  1  0.149614  0.000905  0.120631  0.141739  0.000503  0.986376  0.001
H  H49  1  0.17937306  0.07628632  0.10689018  1  0.149479  -0.000978  0.120646  0.141706  -0.000508  0.986556  -0.001
H  H50  1  0.32061170  0.42370316  0.10687731  1  0.149881  0.000975  0.120646  0.141682  0.000521  0.986338  0.001
H  H51  1  0.32063171  0.57628961  0.39311815  1  0.149702  0.000903  0.120652  0.141729  0.000516  0.986346  0.001
H  H52  1  0.82062889  0.07627609  0.60688426  1  0.149722  -0.000904  0.120627  0.141696  -0.000503  0.986413  -0.001
H  H53  1  0.82061961  0.92371288  0.89311055  1  0.149439  0.000978  0.120699  0.141758  0.000508  0.986513  0.001
H  H54  1  0.67938376  0.57629522  0.89312540  1  0.149887  -0.000975  0.120658  0.141671  -0.000521  0.986405  -0.001
H  H55  1  0.67936931  0.42371365  0.60688209  1  0.149681  -0.000903  0.120637  0.141735  -0.000516  0.986323  -0.001
H  H56  1  0.32575066  0.03980350  0.48052865  1  0.164033  0.001822  0.122971  0.106229  0.000895  1.005623  0.002
H  H57  1  0.32574510  0.96019575  0.01947520  1  0.164157  -0.002251  0.122978  0.106274  -0.00114  1.005617  -0.002
H  H58  1  0.17421958  0.53978587  0.01946400  1  0.163633  0.002252  0.123013  0.106243  0.001146  1.005577  0.002
H  H59  1  0.17423148  0.46021543  0.48052933  1  0.163792  0.001814  0.122995  0.106263  0.000897  1.005602  0.002
H  H60  1  0.67425872  0.96019407  0.51946962  1  0.164084  -0.001822  0.122988  0.106267  -0.000895  1.005564  -0.002
H  H61  1  0.67425453  0.03980344  0.98052455  1  0.164136  0.002251  0.123008  0.10633  0.00114  1.005634  0.002
H  H62  1  0.82577727  0.46021576  0.98053328  1  0.163794  -0.00225  0.122984  0.106204  -0.001145  1.005649  -0.002
H  H63  1  0.82577233  0.53978701  0.51947141  1  0.163749  -0.001814  0.122973  0.10623  -0.000897  1.005578  -0.002
C  C64  1  0.10723890  0.86508116  0.57664184  1  0.488836  -0.000883  0.107376  0.084175  -9.6e-05  3.990965  -0.001
C  C65  1  0.10722931  0.13492119  0.92336061  1  0.488721  0.000875  0.107268  0.084116  0.000133  3.99093  0.001
C  C66  1  0.39280090  0.36508951  0.92335508  1  0.48781  -0.000622  0.107305  0.084139  1.1e-05  3.990921  0.0
C  C67  1  0.39278172  0.63492098  0.57664027  1  0.48794  -0.001122  0.107251  0.084099  -0.000254  3.99099  -0.001
C  C68  1  0.89276073  0.13492210  0.42335890  1  0.488635  0.000882  0.107397  0.084234  9.6e-05  3.990988  0.001
C  C69  1  0.89276057  0.86507719  0.07664012  1  0.488725  -0.000875  0.107316  0.084095  -0.000133  3.991123  -0.001
C  C70  1  0.60720430  0.63491049  0.07664713  1  0.4876  0.000622  0.107334  0.084221  -1.1e-05  3.990854  0.0
C  C71  1  0.60722070  0.36507984  0.42335849  1  0.488149  0.001122  0.107256  0.084002  0.000254  3.991065  0.001
C  C72  1  0.02321291  0.79628381  0.53111296  1  -0.015576  0.003994  -0.065462  -0.130479  0.002721  3.883657  0.003
C  C73  1  0.02320591  0.20371878  0.96889038  1  -0.016342  -0.003267  -0.065478  -0.13051  -0.002369  3.88361  -0.002
C  C74  1  0.47681491  0.29629903  0.96888125  1  -0.016138  0.003383  -0.065363  -0.130225  0.002424  3.883288  0.002
C  C75  1  0.47681431  0.70370716  0.53111764  1  -0.016771  0.004102  -0.065377  -0.13018  0.002801  3.883728  0.003
C  C76  1  0.97678672  0.20371944  0.46888679  1  -0.016328  -0.003994  -0.065483  -0.130503  -0.00272  3.883622  -0.003
C  C77  1  0.97678676  0.79628367  0.03110887  1  -0.016264  0.003267  -0.06549  -0.130532  0.00237  3.883763  0.002
C  C78  1  0.52318054  0.70370179  0.03111850  1  -0.0161  -0.003384  -0.065419  -0.13031  -0.002425  3.883219  -0.002
C  C79  1  0.52319507  0.29628797  0.46888309  1  -0.015902  -0.004101  -0.065399  -0.13019  -0.002801  3.883736  -0.003
C  C80  1  0.04943267  0.81652391  0.46382574  1  -0.035647  -0.012205  0.005817  0.011417  -0.008341  3.928647  -0.009
C  C81  1  0.04943216  0.18347205  0.03617781  1  -0.036549  -0.004836  0.005709  0.011296  -0.003546  3.928551  -0.004
C  C82  1  0.45057989  0.31653392  0.03617133  1  -0.035686  0.004808  0.005686  0.011176  0.00353  3.928565  0.004
C  C83  1  0.45058009  0.68347229  0.46383018  1  -0.034985  -0.012231  0.005739  0.011136  -0.008361  3.928673  -0.009
C  C84  1  0.95056974  0.18347691  0.53617400  1  -0.035581  0.012203  0.005856  0.011479  0.008341  3.928414  0.009
C  C85  1  0.95056608  0.81653039  0.96382193  1  -0.036544  0.004837  0.005683  0.011303  0.003546  3.928678  0.004
C  C86  1  0.54942113  0.68346771  0.96382891  1  -0.035732  -0.00481  0.005756  0.011228  -0.003531  3.928567  -0.004
C  C87  1  0.54942790  0.31652365  0.53617154  1  -0.034994  0.012231  0.005699  0.011223  0.008362  3.928837  0.009
C  C88  1  0.15773383  0.90554352  0.44502233  1  0.030272  0.005881  -0.065847  -0.117827  0.004084  3.900478  0.005
C  C89  1  0.15772723  0.09445295  0.05498430  1  0.030421  -0.007861  -0.065693  -0.117604  -0.005481  3.900707  -0.006
C  C90  1  0.34225990  0.40553817  0.05497422  1  0.029843  0.007974  -0.065783  -0.117668  0.005562  3.900395  0.007
C  C91  1  0.34228157  0.59445941  0.44502373  1  0.029961  0.006001  -0.065837  -0.117749  0.004168  3.900427  0.005
C  C92  1  0.84227695  0.09445323  0.55497742  1  0.030183  -0.005882  -0.065864  -0.117889  -0.004085  3.900535  -0.005
C  C93  1  0.84227519  0.90554868  0.94501544  1  0.030399  0.007861  -0.065778  -0.117717  0.005481  3.900853  0.006
C  C94  1  0.65773555  0.59446021  0.94502504  1  0.02981  -0.007974  -0.065804  -0.117641  -0.005562  3.900388  -0.007
C  C95  1  0.65772363  0.40553653  0.55497701  1  0.029989  -0.006002  -0.065782  -0.117757  -0.004168  3.900524  -0.005
C  C96  1  0.23900870  0.97045016  0.49317262  1  0.420628  -0.001729  0.057177  0.116827  -0.000375  3.907041  -0.001
C  C97  1  0.23899667  0.02954852  0.00683459  1  0.420702  0.00016  0.057015  0.116586  -0.000666  3.907263  0.0
C  C98  1  0.26098589  0.47044192  0.00682165  1  0.421132  -0.000184  0.057089  0.116862  0.000656  3.90714  0.0
C  C99  1  0.26100011  0.52955345  0.49317128  1  0.421176  -0.001776  0.057159  0.116833  -0.000406  3.907121  -0.001
C  C100  1  0.76100068  0.02954903  0.50682663  1  0.420647  0.001728  0.057169  0.116833  0.000375  3.907091  0.001
C  C101  1  0.76100435  0.97045392  0.99316368  1  0.420948  -0.000161  0.057049  0.116615  0.000667  3.907262  0.0
C  C102  1  0.73901234  0.52955565  0.99317612  1  0.420926  0.000183  0.057115  0.116893  -0.000656  3.907052  0.0
C  C103  1  0.73900648  0.47044493  0.50682847  1  0.421111  0.001777  0.057127  0.11676  0.000406  3.907176  0.001
C  C104  1  0.09396692  0.85059926  0.65028636  1  1.608006  -0.000968  0.214637  0.539068  0.000626  4.220203  -0.001
C  C105  1  0.09396777  0.14939907  0.84971558  1  1.608165  0.001029  0.21455  0.538983  -0.000588  4.220407  0.001
C  C106  1  0.40609947  0.35060448  0.84971534  1  1.608902  -0.00068  0.214503  0.538997  0.00089  4.220046  -0.001
C  C107  1  0.40605986  0.64940353  0.65028693  1  1.608431  -0.000803  0.214654  0.539065  0.000775  4.220045  -0.001
C  C108  1  0.90602575  0.14940156  0.34971585  1  1.607507  0.000971  0.21457  0.538955  -0.000625  4.220415  0.001
C  C109  1  0.90602908  0.85060175  0.15028367  1  1.608314  -0.00103  0.214563  0.539044  0.000588  4.220415  -0.001
C  C110  1  0.59390991  0.64939877  0.15028540  1  1.609278  0.000679  0.214545  0.53909  -0.000891  4.220253  0.001
C  C111  1  0.59393141  0.35059891  0.34971331  1  1.609318  0.000805  0.214624  0.539163  -0.000776  4.220018  0.001
C  C112  1  0.97050611  0.74510031  0.41010451  1  1.59542  0.000751  0.210897  0.564126  -0.000681  4.198247  0.002
C  C113  1  0.97049291  0.25489631  0.08989755  1  1.596  0.000284  0.210926  0.564083  -0.001261  4.198375  0.001
C  C114  1  0.52952210  0.24511317  0.08988641  1  1.596138  -0.000282  0.210946  0.564169  0.001261  4.197996  -0.001
C  C115  1  0.52952408  0.75489038  0.41010778  1  1.595351  0.000756  0.210904  0.564123  -0.000684  4.198186  0.002
C  C116  1  0.02950188  0.25489807  0.58989474  1  1.595459  -0.000753  0.210971  0.564185  0.000681  4.198142  -0.002
C  C117  1  0.02950115  0.74510044  0.91010170  1  1.595948  -0.000282  0.210928  0.564197  0.001261  4.198226  -0.001
C  C118  1  0.47047475  0.75488927  0.91011284  1  1.596094  0.00028  0.210852  0.564112  -0.001262  4.198107  0.001
C  C119  1  0.47047973  0.24510800  0.58989443  1  1.595397  -0.000756  0.210925  0.564171  0.000683  4.198155  -0.002
N  N120  1  0.21348264  0.95019539  0.55745608  1  -1.209082  0.087216  -0.348585  -0.26791  0.059096  3.659454  0.075
N  N121  1  0.21346553  0.04980423  0.94254944  1  -1.209028  -0.086606  -0.348428  -0.267724  -0.058659  3.659217  -0.075
N  N122  1  0.28654394  0.45020138  0.94254174  1  -1.209061  0.086691  -0.34849  -0.267901  0.058701  3.659477  0.075
N  N123  1  0.28653783  0.54980940  0.55745152  1  -1.209053  0.087245  -0.34848  -0.267871  0.059112  3.659283  0.075
N  N124  1  0.78651560  0.04980380  0.44254317  1  -1.209089  -0.087213  -0.348633  -0.268007  -0.059094  3.659434  -0.075
N  N125  1  0.78653549  0.95019334  0.05744834  1  -1.209249  0.086614  -0.348453  -0.26773  0.058663  3.659085  0.075
N  N126  1  0.71345848  0.54980025  0.05745801  1  -1.209043  -0.086699  -0.348509  -0.267954  -0.058705  3.659362  -0.075
N  N127  1  0.71346319  0.45019223  0.44254773  1  -1.208944  -0.08725  -0.348435  -0.26772  -0.059114  3.659383  -0.075
O  O128  1  0.01148049  0.77185022  0.67505987  1  -1.150652  0.022598  -0.284315  -0.47263  0.01453  2.178988  0.019
O  O129  1  0.01149722  0.22814590  0.82493754  1  -1.150664  -0.019835  -0.284182  -0.472504  -0.012592  2.179174  -0.017
O  O130  1  0.48862415  0.27186988  0.82494740  1  -1.150479  0.023574  -0.284253  -0.472593  0.015119  2.179139  0.02
O  O131  1  0.48858966  0.72814684  0.67505545  1  -1.15075  0.020389  -0.284292  -0.47267  0.01294  2.1789  0.018
O  O132  1  0.98850939  0.22815060  0.32494136  1  -1.150503  -0.022599  -0.284227  -0.472508  -0.014531  2.179091  -0.019
O  O133  1  0.98850519  0.77185573  0.17506220  1  -1.151177  0.019837  -0.284166  -0.472489  0.012594  2.17917  0.017
O  O134  1  0.51139638  0.72814313  0.17505136  1  -1.150506  -0.023572  -0.284299  -0.472705  -0.015117  2.179218  -0.02
O  O135  1  0.51140718  0.27185235  0.32494775  1  -1.15061  -0.020387  -0.284289  -0.472723  -0.012938  2.178923  -0.018
O  O136  1  0.17835223  0.92543408  0.68425605  1  -1.104293  0.103604  -0.312831  -0.528857  0.067639  2.366834  0.095
O  O137  1  0.17836038  0.07456564  0.81574548  1  -1.104259  -0.103516  -0.312863  -0.528895  -0.067615  2.366836  -0.095
O  O138  1  0.32170798  0.42542305  0.81573312  1  -1.105204  0.105246  -0.312859  -0.528881  0.068556  2.366367  0.096
O  O139  1  0.32167203  0.57457952  0.68426018  1  -1.104405  0.104939  -0.312864  -0.528798  0.068381  2.366897  0.096
O  O140  1  0.82164462  0.07456511  0.31574419  1  -1.103721  -0.103622  -0.312858  -0.528869  -0.067649  2.366791  -0.095
O  O141  1  0.82164621  0.92543925  0.18425525  1  -1.10407  0.103514  -0.312877  -0.528933  0.067613  2.366838  0.095
O  O142  1  0.67829165  0.57457777  0.18426663  1  -1.105288  -0.105226  -0.312842  -0.528892  -0.068543  2.366508  -0.096
O  O143  1  0.67832899  0.42541968  0.31574154  1  -1.105569  -0.104938  -0.312843  -0.528838  -0.068379  2.36686  -0.096
O  O144  1  0.91143297  0.65097991  0.42884725  1  -1.128624  -0.091712  -0.323961  -0.559477  -0.060017  2.377032  -0.083
O  O145  1  0.91143975  0.34902338  0.07115623  1  -1.128598  -0.091715  -0.323985  -0.559528  -0.059974  2.376964  -0.083
O  O146  1  0.58856257  0.15097577  0.07114366  1  -1.128848  0.091691  -0.324027  -0.559531  0.059963  2.376898  0.083
O  O147  1  0.58857229  0.84902193  0.42885060  1  -1.129136  -0.091717  -0.323988  -0.559446  -0.060027  2.377065  -0.083
O  O148  1  0.08857919  0.34901928  0.57115200  1  -1.128709  0.091711  -0.324014  -0.559523  0.060017  2.376931  0.083
O  O149  1  0.08854038  0.65097093  0.92884204  1  -1.128537  0.091705  -0.32394  -0.559551  0.059968  2.377035  0.083
O  O150  1  0.41143706  0.84902668  0.92885461  1  -1.128753  -0.09169  -0.323985  -0.559545  -0.059963  2.376948  -0.083
O  O151  1  0.41142873  0.15097645  0.57114964  1  -1.129132  0.091728  -0.324012  -0.559484  0.060035  2.377004  0.083
O  O152  1  0.97217453  0.78220052  0.35242703  1  -1.147281  0.000551  -0.293031  -0.520986  0.000812  2.201612  0.0
O  O153  1  0.97216069  0.21779610  0.14757405  1  -1.147375  -0.000845  -0.292987  -0.520905  -0.000279  2.201758  0.0
O  O154  1  0.52789517  0.28221842  0.14756182  1  -1.148246  0.000916  -0.292915  -0.520855  0.000311  2.201289  0.0
O  O155  1  0.52787750  0.71778108  0.35243336  1  -1.147212  0.000584  -0.292928  -0.520903  0.000814  2.201476  0.0
O  O156  1  0.02783068  0.21780030  0.64757321  1  -1.147306  -0.000552  -0.293059  -0.521002  -0.000812  2.201693  0.0
O  O157  1  0.02784312  0.78219822  0.85242471  1  -1.147465  0.000844  -0.293028  -0.52101  0.000278  2.201649  0.0
O  O158  1  0.47210585  0.71778077  0.85243842  1  -1.148204  -0.000915  -0.292863  -0.520817  -0.00031  2.201401  0.0
O  O159  1  0.47211935  0.28222218  0.64756787  1  -1.147289  -0.000584  -0.292906  -0.520914  -0.000814  2.20156  0.0
O  O160  1  0.60266004  0.92875233  0.64243209  1  -1.236723  -0.00038  -0.594603  -0.789506  -0.000148  2.005282  0.001
O  O161  1  0.60266159  0.07126245  0.85757286  1  -1.236895  0.003095  -0.594742  -0.789677  0.001831  2.005181  0.002
O  O162  1  0.89733581  0.42873506  0.85757837  1  -1.236915  -0.00195  -0.59476  -0.789726  -0.001118  2.005118  -0.001
O  O163  1  0.89733716  0.57126507  0.64241998  1  -1.236972  0.000688  -0.594802  -0.78972  0.000537  2.005097  0.001
O  O164  1  0.39733959  0.07124768  0.35756667  1  -1.236781  0.00038  -0.594625  -0.789532  0.000148  2.005247  -0.001
O  O165  1  0.39733247  0.92874081  0.14242640  1  -1.236678  -0.003095  -0.594732  -0.789679  -0.001831  2.005239  -0.002
O  O166  1  0.10266104  0.57126250  0.14242039  1  -1.236884  0.001948  -0.594796  -0.789726  0.001117  2.005138  0.001
O  O167  1  0.10267083  0.42873331  0.35758174  1  -1.23692  -0.000689  -0.594755  -0.789729  -0.000537  2.005081  -0.001
O  O168  1  0.40154347  0.10782607  0.71198071  1  -1.226199  0.080428  -0.581324  -0.743437  0.053026  2.211096  0.07
O  O169  1  0.40154615  0.89217789  0.78802500  1  -1.225975  -0.080455  -0.581461  -0.743533  -0.053025  2.211032  -0.07
O  O170  1  0.09842042  0.60779910  0.78800754  1  -1.225759  0.081492  -0.581208  -0.743521  0.053657  2.210851  0.071
O  O171  1  0.09841125  0.39220896  0.71198799  1  -1.226248  0.081597  -0.581124  -0.743318  0.053776  2.211019  0.071
O  O172  1  0.59845059  0.89217393  0.28801903  1  -1.226125  -0.08043  -0.581375  -0.743528  -0.053027  2.211046  -0.07
O  O173  1  0.59845069  0.10782455  0.21197622  1  -1.226004  0.080457  -0.581472  -0.743524  0.053026  2.211109  0.07
O  O174  1  0.90158060  0.39220172  0.21199220  1  -1.225717  -0.081492  -0.581224  -0.743538  -0.053657  2.210848  -0.071
O  O175  1  0.90158978  0.60779348  0.28801176  1  -1.226202  -0.081592  -0.581135  -0.743333  -0.053773  2.210971  -0.071
