# generated using pymatgen
data_Gd4H14C2(SO6)5
_symmetry_space_group_name_H-M   'P 1'
_cell_length_a   9.76598689
_cell_length_b   11.51547085
_cell_length_c   11.51546998
_cell_angle_alpha   66.90038088
_cell_angle_beta   87.76340418
_cell_angle_gamma   87.76349010
_symmetry_Int_Tables_number   1
_chemical_formula_structural   Gd4H14C2(SO6)5
_chemical_formula_sum   'Gd8 H28 C4 S10 O60'
_cell_volume   1189.89523818
_cell_formula_units_Z   2
loop_
 _symmetry_equiv_pos_site_id
 _symmetry_equiv_pos_as_xyz
  1  'x, y, z'
loop_
 _atom_site_type_symbol
 _atom_site_label
 _atom_site_symmetry_multiplicity
 _atom_site_fract_x
 _atom_site_fract_y
 _atom_site_fract_z
 _atom_site_occupancy
 _atom_site_hle17_bader_spin_density
 _atom_site_hle17_ddec_charge
 _atom_site_hle17_ddec_spin_density
 _atom_site_hle17_ddec_sum_bond_order
 _atom_site_hle17_magmom
 _atom_site_hse06_10hf_bader_spin_density
 _atom_site_hse06_10hf_ddec_charge
 _atom_site_hse06_10hf_ddec_spin_density
 _atom_site_hse06_10hf_ddec_sum_bond_order
 _atom_site_hse06_10hf_magmom
 _atom_site_hse06_bader_spin_density
 _atom_site_hse06_ddec_charge
 _atom_site_hse06_ddec_spin_density
 _atom_site_hse06_ddec_sum_bond_order
 _atom_site_hse06_magmom
 _atom_site_pbe_bader_spin_density
 _atom_site_pbe_cm5_charge
 _atom_site_pbe_ddec_charge
 _atom_site_pbe_ddec_spin_density
 _atom_site_pbe_ddec_sum_bond_order
 _atom_site_pbe_magmom
Gd  Gd0  1  0.09856747  0.99832892  0.33422877  1  0  2.292802  0  1.706844  0  0  2.208613  0  2.04129  0  0  2.252838  0  2.000281  0  0  1.50299  2.171952  0  2.077684  0
Gd  Gd1  1  0.40143318  0.66577038  0.00167045  1  0  2.292776  0  1.706791  0  0  2.208621  0  2.041182  0  0  2.25283  0  2.0002  0  0  1.502987  2.171988  0  2.077519  0
Gd  Gd2  1  0.90143302  0.00167057  0.66577093  1  0  2.292779  0  1.706861  0  0  2.208633  0  2.041239  0  0  2.252813  0  2.000307  0  0  1.502964  2.171952  0  2.077635  0
Gd  Gd3  1  0.59856424  0.33422909  0.99833023  1  0  2.29276  0  1.706819  0  0  2.20857  0  2.04127  0  0  2.252785  0  2.000281  0  0  1.502978  2.171921  0  2.077654  0
Gd  Gd4  1  0.00147557  0.52429385  0.23259956  1  0  2.303519  0  1.719654  0  0  2.230458  0  2.050569  0  0  2.270651  0  2.010115  0  0  1.519437  2.199474  0  2.082318  0
Gd  Gd5  1  0.49852235  0.76739951  0.47570575  1  0  2.303569  0  1.719539  0  0  2.230467  0  2.050481  0  0  2.270655  0  2.010031  0  0  1.519464  2.199461  0  2.082244  0
Gd  Gd6  1  0.99852386  0.47570657  0.76739982  1  0  2.303535  0  1.71961  0  0  2.230462  0  2.050547  0  0  2.270656  0  2.010091  0  0  1.519444  2.199459  0  2.08233  0
Gd  Gd7  1  0.50147711  0.23259998  0.52429399  1  0  2.303542  0  1.719597  0  0  2.230482  0  2.050479  0  0  2.270677  0  2.010023  0  0  1.519448  2.199459  0  2.082261  0
H  H8  1  0.94109189  0.80706782  0.20779330  1  0  0.46907  0  0.803325  0  0  0.440779  0  0.86098  0  0  0.450442  0  0.84663  0  0  0.322866  0.433853  0  0.871279  0
H  H9  1  0.55890673  0.79220731  0.19293256  1  0  0.469113  0  0.803244  0  0  0.440754  0  0.86102  0  0  0.450417  0  0.846671  0  0  0.322845  0.433827  0  0.871322  0
H  H10  1  0.05891062  0.19293261  0.79220596  1  0  0.469149  0  0.803171  0  0  0.440734  0  0.861045  0  0  0.450396  0  0.846696  0  0  0.32283  0.433809  0  0.871343  0
H  H11  1  0.44109581  0.20779218  0.80706794  1  0  0.469078  0  0.803294  0  0  0.440785  0  0.860968  0  0  0.450448  0  0.846619  0  0  0.322875  0.433856  0  0.87127  0
H  H12  1  0.81537746  0.74168899  0.17777478  1  0  0.430215  0  0.845129  0  0  0.406292  0  0.9107  0  0  0.415432  0  0.89678  0  0  0.320064  0.39961  0  0.920711  0
H  H13  1  0.68461852  0.82223443  0.25830782  1  0  0.430203  0  0.845136  0  0  0.40627  0  0.910735  0  0  0.415411  0  0.896814  0  0  0.320062  0.399589  0  0.920741  0
H  H14  1  0.18462597  0.25831431  0.82221986  1  0  0.430146  0  0.84512  0  0  0.406212  0  0.910793  0  0  0.415351  0  0.896876  0  0  0.320032  0.399532  0  0.920733  0
H  H15  1  0.31538415  0.17776127  0.74169588  1  0  0.430234  0  0.845058  0  0  0.406296  0  0.910696  0  0  0.415437  0  0.896776  0  0  0.320061  0.399611  0  0.920691  0
H  H16  1  0.78325299  0.43647680  0.42944952  1  0  0.454607  0  0.836807  0  0  0.425537  0  0.896895  0  0  0.435642  0  0.882109  0  0  0.314611  0.418411  0  0.907302  0
H  H17  1  0.71675161  0.57055021  0.56352182  1  0  0.454611  0  0.836773  0  0  0.425545  0  0.896859  0  0  0.435651  0  0.882071  0  0  0.314603  0.418418  0  0.907266  0
H  H18  1  0.21674858  0.56352080  0.57055174  1  0  0.454625  0  0.836782  0  0  0.42556  0  0.896863  0  0  0.435665  0  0.882078  0  0  0.31464  0.418434  0  0.90727  0
H  H19  1  0.28325196  0.42944927  0.43648038  1  0  0.454595  0  0.836823  0  0  0.425525  0  0.896912  0  0  0.435631  0  0.882126  0  0  0.314614  0.4184  0  0.907319  0
H  H20  1  0.92078905  0.37710128  0.49717775  1  0  0.45323  0  0.819053  0  0  0.425337  0  0.886326  0  0  0.434826  0  0.872274  0  0  0.322593  0.418634  0  0.89621  0
H  H21  1  0.57921324  0.50282216  0.62289719  1  0  0.45313  0  0.819149  0  0  0.425245  0  0.886439  0  0  0.434732  0  0.872392  0  0  0.322595  0.418541  0  0.896325  0
H  H22  1  0.07921156  0.62289443  0.50282341  1  0  0.453132  0  0.819122  0  0  0.425243  0  0.886438  0  0  0.43473  0  0.872391  0  0  0.3226  0.418539  0  0.896325  0
H  H23  1  0.42078832  0.49717637  0.37710631  1  0  0.453193  0  0.819112  0  0  0.425295  0  0.886386  0  0  0.434784  0  0.872335  0  0  0.322606  0.418592  0  0.89627  0
H  H24  1  0.84589256  0.05500033  0.16705348  1  0  0.451264  0  0.819323  0  0  0.426489  0  0.877953  0  0  0.435874  0  0.864162  0  0  0.317295  0.419702  0  0.887944  0
H  H25  1  0.65410668  0.83294627  0.94500046  1  0  0.451361  0  0.819374  0  0  0.426591  0  0.877845  0  0  0.435976  0  0.864054  0  0  0.317332  0.419802  0  0.887835  0
H  H26  1  0.15411096  0.94500011  0.83294487  1  0  0.451351  0  0.819399  0  0  0.426582  0  0.877859  0  0  0.435967  0  0.864068  0  0  0.317316  0.419791  0  0.887851  0
H  H27  1  0.34589072  0.16705414  0.05500160  1  0  0.451349  0  0.819361  0  0  0.426585  0  0.877851  0  0  0.435971  0  0.864058  0  0  0.317343  0.419798  0  0.887841  0
H  H28  1  0.81249655  0.94056205  0.29681877  1  0  0.427303  0  0.860395  0  0  0.399818  0  0.929546  0  0  0.409249  0  0.915601  0  0  0.310929  0.393096  0  0.939495  0
H  H29  1  0.68750361  0.70318279  0.05943815  1  0  0.427355  0  0.86033  0  0  0.399867  0  0.929479  0  0  0.4093  0  0.91553  0  0  0.310935  0.393146  0  0.939428  0
H  H30  1  0.18750493  0.05943839  0.70317966  1  0  0.427392  0  0.860248  0  0  0.399864  0  0.929508  0  0  0.4093  0  0.915552  0  0  0.310938  0.393141  0  0.939459  0
H  H31  1  0.31249374  0.29681857  0.94056181  1  0  0.427326  0  0.860323  0  0  0.399841  0  0.929501  0  0  0.409274  0  0.915553  0  0  0.310941  0.393121  0  0.939449  0
H  H32  1  0.25722750  0.82292286  0.68528484  1  0  0.053072  0  0.92704  0  0  0.058971  0  0.993489  0  0  0.05996  0  0.989001  0  0  0.139482  0.057864  0  0.997125  0
H  H33  1  0.24276570  0.31471477  0.17707418  1  0  0.053161  0  0.926858  0  0  0.058987  0  0.993339  0  0  0.059993  0  0.988837  0  0  0.13948  0.057857  0  0.997009  0
H  H34  1  0.74276884  0.17707850  0.31471603  1  0  0.053067  0  0.927038  0  0  0.058961  0  0.993511  0  0  0.059956  0  0.989009  0  0  0.139487  0.057874  0  0.997135  0
H  H35  1  0.75723066  0.68528565  0.82292531  1  0  0.053082  0  0.926921  0  0  0.058922  0  0.993384  0  0  0.059928  0  0.988882  0  0  0.139445  0.057827  0  0.996997  0
C  C36  1  0.21605846  0.87637495  0.59085233  1  0  0.661641  0  3.765929  0  0  0.592641  0  4.076889  0  0  0.628365  0  4.061619  0  0  0.175824  0.568241  0  4.086364  0
C  C37  1  0.28394778  0.40914940  0.12361953  1  0  0.661449  0  3.766629  0  0  0.592723  0  4.077118  0  0  0.628405  0  4.061921  0  0  0.175869  0.568359  0  4.086573  0
C  C38  1  0.78393998  0.12362453  0.40914745  1  0  0.66165  0  3.765957  0  0  0.592646  0  4.076923  0  0  0.628369  0  4.061652  0  0  0.175846  0.568231  0  4.086411  0
C  C39  1  0.71604656  0.59085007  0.87638041  1  0  0.661391  0  3.766751  0  0  0.592662  0  4.077222  0  0  0.628343  0  4.062024  0  0  0.175885  0.568279  0  4.086657  0
S  S40  1  0.96491392  0.28340585  0.09959364  1  0  1.723008  0  5.703476  0  0  1.605699  0  6.244446  0  0  1.662855  0  6.202886  0  0  0.624116  1.566067  0  6.271499  0
S  S41  1  0.53508362  0.90040605  0.71659496  1  0  1.722985  0  5.703451  0  0  1.60569  0  6.244434  0  0  1.662839  0  6.202877  0  0  0.62415  1.56605  0  6.271485  0
S  S42  1  0.03508661  0.71659269  0.90040817  1  0  1.723136  0  5.703379  0  0  1.605839  0  6.244323  0  0  1.66299  0  6.202765  0  0  0.62417  1.566203  0  6.271375  0
S  S43  1  0.46491587  0.09959249  0.28340602  1  0  1.723095  0  5.703323  0  0  1.605807  0  6.244274  0  0  1.662958  0  6.202716  0  0  0.6242  1.566172  0  6.27133  0
S  S44  1  0.86334445  0.76670212  0.53294876  1  0  1.699431  0  5.715113  0  0  1.574221  0  6.255561  0  0  1.631752  0  6.21497  0  0  0.622706  1.534486  0  6.281722  0
S  S45  1  0.63665523  0.46704899  0.23329795  1  0  1.699438  0  5.715005  0  0  1.574236  0  6.255457  0  0  1.631767  0  6.214865  0  0  0.622715  1.534503  0  6.281633  0
S  S46  1  0.13665598  0.23329926  0.46705021  1  0  1.699489  0  5.715042  0  0  1.574265  0  6.2555  0  0  1.631798  0  6.214906  0  0  0.622712  1.534531  0  6.281669  0
S  S47  1  0.36334523  0.53295143  0.76670225  1  0  1.699339  0  5.715151  0  0  1.574155  0  6.255602  0  0  1.631685  0  6.215012  0  0  0.62267  1.534425  0  6.281766  0
S  S48  1  0.25000201  0.75410895  0.24589012  1  0  1.738013  0  5.723948  0  0  1.618575  0  6.263876  0  0  1.676682  0  6.221603  0  0  0.631971  1.578238  0  6.291284  0
S  S49  1  0.74999951  0.24589054  0.75411041  1  0  1.737943  0  5.723876  0  0  1.6185  0  6.263819  0  0  1.676608  0  6.221547  0  0  0.631925  1.578165  0  6.291226  0
O  O50  1  0.90360706  0.72566536  0.21815722  1  0  -0.880974  0  1.899621  0  0  -0.84425  0  2.095101  0  0  -0.860378  0  2.063725  0  0  -0.629909  -0.832726  0  2.117328  0
O  O51  1  0.59639553  0.78184179  0.27433550  1  0  -0.880999  0  1.899527  0  0  -0.84422  0  2.095103  0  0  -0.860349  0  2.063729  0  0  -0.629885  -0.832695  0  2.117333  0
O  O52  1  0.09639234  0.27433601  0.78184179  1  0  -0.880981  0  1.899413  0  0  -0.844133  0  2.095186  0  0  -0.860261  0  2.063817  0  0  -0.629843  -0.832605  0  2.117347  0
O  O53  1  0.40360493  0.21815864  0.72566470  1  0  -0.88099  0  1.899509  0  0  -0.844269  0  2.095034  0  0  -0.860396  0  2.063654  0  0  -0.629907  -0.83274  0  2.117245  0
O  O54  1  0.74538500  0.80573200  0.44649646  1  0  -0.803695  0  2.039344  0  0  -0.745093  0  2.299151  0  0  -0.768221  0  2.281536  0  0  -0.393571  -0.728868  0  2.310984  0
O  O55  1  0.75461791  0.55350363  0.19426737  1  0  -0.803694  0  2.039236  0  0  -0.745144  0  2.299048  0  0  -0.768266  0  2.281428  0  0  -0.39354  -0.728898  0  2.310873  0
O  O56  1  0.25461750  0.19426844  0.55350280  1  0  -0.803743  0  2.039378  0  0  -0.745112  0  2.299159  0  0  -0.768239  0  2.281537  0  0  -0.393535  -0.728872  0  2.31099  0
O  O57  1  0.24538155  0.44649586  0.80573237  1  0  -0.803687  0  2.039255  0  0  -0.745145  0  2.299092  0  0  -0.768273  0  2.281474  0  0  -0.393539  -0.728908  0  2.310917  0
O  O58  1  0.88179653  0.45318311  0.43148661  1  0  -0.891412  0  1.845334  0  0  -0.855043  0  2.040533  0  0  -0.872303  0  2.009537  0  0  -0.637843  -0.842539  0  2.062083  0
O  O59  1  0.61820263  0.56851387  0.54681310  1  0  -0.891315  0  1.845333  0  0  -0.85495  0  2.040579  0  0  -0.872207  0  2.009588  0  0  -0.63784  -0.84245  0  2.062127  0
O  O60  1  0.11820408  0.54681259  0.56851542  1  0  -0.891321  0  1.84532  0  0  -0.854949  0  2.040596  0  0  -0.872206  0  2.009604  0  0  -0.637881  -0.842446  0  2.062145  0
O  O61  1  0.38179577  0.43148656  0.45318544  1  0  -0.891369  0  1.845391  0  0  -0.854995  0  2.040617  0  0  -0.872255  0  2.009623  0  0  -0.637867  -0.842488  0  2.062168  0
O  O62  1  0.87835292  0.97050232  0.22485366  1  0  -0.870311  0  1.858561  0  0  -0.824112  0  2.035118  0  0  -0.841924  0  2.004955  0  0  -0.590142  -0.810963  0  2.056488  0
O  O63  1  0.62164772  0.77514758  0.02949522  1  0  -0.870445  0  1.858612  0  0  -0.824229  0  2.034978  0  0  -0.842041  0  2.004813  0  0  -0.590159  -0.811084  0  2.056348  0
O  O64  1  0.12165061  0.02949813  0.77514469  1  0  -0.870483  0  1.858513  0  0  -0.82426  0  2.034934  0  0  -0.842062  0  2.004754  0  0  -0.590165  -0.811117  0  2.056305  0
O  O65  1  0.37835271  0.22485380  0.97050375  1  0  -0.870403  0  1.858554  0  0  -0.82421  0  2.035002  0  0  -0.842021  0  2.004829  0  0  -0.590199  -0.811054  0  2.05637  0
O  O66  1  0.10523254  0.94096818  0.57841849  1  0  -0.765621  0  2.262697  0  0  -0.718137  0  2.525451  0  0  -0.744956  0  2.516834  0  0  -0.409243  -0.698378  0  2.530183  0
O  O67  1  0.39475932  0.42158015  0.05903600  1  0  -0.765554  0  2.263341  0  0  -0.718156  0  2.525937  0  0  -0.744953  0  2.517325  0  0  -0.409212  -0.698414  0  2.530682  0
O  O68  1  0.89476680  0.05903509  0.42157805  1  0  -0.765621  0  2.262731  0  0  -0.718128  0  2.525455  0  0  -0.744946  0  2.516829  0  0  -0.40926  -0.698374  0  2.530219  0
O  O69  1  0.60524117  0.57841933  0.94096370  1  0  -0.765473  0  2.263494  0  0  -0.718099  0  2.526116  0  0  -0.744897  0  2.517515  0  0  -0.409214  -0.698365  0  2.530863  0
O  O70  1  0.99299773  0.79854256  0.45569785  1  0  -0.81064  0  2.022327  0  0  -0.758305  0  2.283644  0  0  -0.780266  0  2.265734  0  0  -0.398183  -0.742374  0  2.295176  0
O  O71  1  0.50700278  0.54430165  0.20145735  1  0  -0.810638  0  2.022311  0  0  -0.758314  0  2.283641  0  0  -0.780274  0  2.265731  0  0  -0.398185  -0.742378  0  2.295179  0
O  O72  1  0.00700376  0.20145787  0.54430231  1  0  -0.810686  0  2.022361  0  0  -0.758348  0  2.283673  0  0  -0.780304  0  2.265762  0  0  -0.398197  -0.742404  0  2.295203  0
O  O73  1  0.49299770  0.45569784  0.79854148  1  0  -0.810602  0  2.022309  0  0  -0.758268  0  2.283635  0  0  -0.78023  0  2.265726  0  0  -0.398173  -0.742342  0  2.295172  0
O  O74  1  0.05824870  0.17041439  0.14975118  1  0  -0.818814  0  2.003842  0  0  -0.77116  0  2.269227  0  0  -0.793193  0  2.249512  0  0  -0.445374  -0.755108  0  2.28244  0
O  O75  1  0.44175415  0.85024727  0.82958409  1  0  -0.818785  0  2.004056  0  0  -0.771139  0  2.269435  0  0  -0.793178  0  2.249744  0  0  -0.445374  -0.755106  0  2.282648  0
O  O76  1  0.94175374  0.82958795  0.85024561  1  0  -0.818883  0  2.003844  0  0  -0.771223  0  2.269215  0  0  -0.793254  0  2.249513  0  0  -0.445411  -0.755183  0  2.282431  0
O  O77  1  0.55824531  0.14975221  0.17041565  1  0  -0.818808  0  2.003956  0  0  -0.771173  0  2.269353  0  0  -0.793203  0  2.249635  0  0  -0.445382  -0.755132  0  2.282577  0
O  O78  1  0.95169782  0.34607590  0.19050618  1  0  -0.814291  0  1.997927  0  0  -0.775447  0  2.281468  0  0  -0.796348  0  2.261665  0  0  -0.41508  -0.760344  0  2.294458  0
O  O79  1  0.54830320  0.80949373  0.65392240  1  0  -0.814321  0  1.997777  0  0  -0.775474  0  2.281333  0  0  -0.796364  0  2.261516  0  0  -0.415115  -0.76038  0  2.29432  0
O  O80  1  0.04830268  0.65392358  0.80949439  1  0  -0.814334  0  1.99778  0  0  -0.775498  0  2.28132  0  0  -0.79639  0  2.261503  0  0  -0.415122  -0.760404  0  2.29431  0
O  O81  1  0.45169729  0.19050575  0.34607817  1  0  -0.814357  0  1.997733  0  0  -0.775529  0  2.281278  0  0  -0.796423  0  2.261464  0  0  -0.41515  -0.760426  0  2.294266  0
O  O82  1  0.27887672  0.87228959  0.49344363  1  0  -0.740198  0  2.148462  0  0  -0.701694  0  2.417252  0  0  -0.727008  0  2.406668  0  0  -0.395629  -0.683237  0  2.423504  0
O  O83  1  0.22111875  0.50655540  0.12771086  1  0  -0.7402  0  2.148361  0  0  -0.701805  0  2.417057  0  0  -0.727106  0  2.406497  0  0  -0.395674  -0.683345  0  2.42329  0
O  O84  1  0.72112377  0.12770990  0.50655694  1  0  -0.74021  0  2.148456  0  0  -0.701721  0  2.417251  0  0  -0.727031  0  2.406669  0  0  -0.395642  -0.683253  0  2.423511  0
O  O85  1  0.77887975  0.49344219  0.87229051  1  0  -0.740155  0  2.148272  0  0  -0.701753  0  2.416937  0  0  -0.727056  0  2.40638  0  0  -0.395682  -0.683297  0  2.423182  0
O  O86  1  0.82952700  0.24070276  0.07792375  1  0  -0.807828  0  1.973707  0  0  -0.760996  0  2.234897  0  0  -0.781841  0  2.214855  0  0  -0.380218  -0.745711  0  2.248247  0
O  O87  1  0.67047353  0.92207863  0.75929398  1  0  -0.80783  0  1.973634  0  0  -0.761011  0  2.234814  0  0  -0.78185  0  2.214774  0  0  -0.380281  -0.745741  0  2.248168  0
O  O88  1  0.17047150  0.75929483  0.92207763  1  0  -0.807883  0  1.973712  0  0  -0.761058  0  2.234891  0  0  -0.7819  0  2.214849  0  0  -0.380277  -0.745789  0  2.248238  0
O  O89  1  0.32952588  0.07792274  0.24070590  1  0  -0.807868  0  1.973647  0  0  -0.761055  0  2.234845  0  0  -0.781902  0  2.214804  0  0  -0.380263  -0.745777  0  2.248195  0
O  O90  1  0.02761998  0.37141293  0.98002786  1  0  -0.826254  0  2.076215  0  0  -0.785226  0  2.359109  0  0  -0.806736  0  2.339479  0  0  -0.439075  -0.769833  0  2.372069  0
O  O91  1  0.47237891  0.01997105  0.62858730  1  0  -0.826247  0  2.076226  0  0  -0.785233  0  2.359128  0  0  -0.806739  0  2.339499  0  0  -0.439092  -0.769851  0  2.372085  0
O  O92  1  0.97237836  0.62858939  0.01996996  1  0  -0.826199  0  2.076237  0  0  -0.785206  0  2.359187  0  0  -0.806713  0  2.339559  0  0  -0.439038  -0.769834  0  2.372156  0
O  O93  1  0.52761952  0.98002843  0.37141248  1  0  -0.826259  0  2.076298  0  0  -0.785215  0  2.359146  0  0  -0.806718  0  2.339516  0  0  -0.439054  -0.769824  0  2.372099  0
O  O94  1  0.16227140  0.64378265  0.27417259  1  0  -0.822726  0  2.044554  0  0  -0.772721  0  2.319333  0  0  -0.794835  0  2.299427  0  0  -0.431899  -0.756776  0  2.332318  0
O  O95  1  0.33772608  0.72583055  0.35621457  1  0  -0.822718  0  2.044704  0  0  -0.772696  0  2.319468  0  0  -0.794811  0  2.299564  0  0  -0.431885  -0.756753  0  2.33246  0
O  O96  1  0.83772909  0.35621682  0.72582885  1  0  -0.822689  0  2.044594  0  0  -0.772662  0  2.319332  0  0  -0.794776  0  2.299426  0  0  -0.431851  -0.756721  0  2.332325  0
O  O97  1  0.66227439  0.27416987  0.64378651  1  0  -0.822679  0  2.044592  0  0  -0.772677  0  2.31938  0  0  -0.79479  0  2.299473  0  0  -0.431901  -0.756729  0  2.332364  0
O  O98  1  0.86157633  0.62704746  0.60509973  1  0  -0.820729  0  2.067587  0  0  -0.765172  0  2.330781  0  0  -0.787351  0  2.311807  0  0  -0.402047  -0.749428  0  2.343375  0
O  O99  1  0.63842341  0.39489881  0.37295402  1  0  -0.820752  0  2.067541  0  0  -0.765189  0  2.330764  0  0  -0.78737  0  2.311789  0  0  -0.402058  -0.749426  0  2.343357  0
O  O100  1  0.13842516  0.37295296  0.39490131  1  0  -0.820732  0  2.067614  0  0  -0.765183  0  2.330819  0  0  -0.787364  0  2.311844  0  0  -0.402043  -0.749435  0  2.343416  0
O  O101  1  0.36157611  0.60509878  0.62704645  1  0  -0.820703  0  2.067577  0  0  -0.765154  0  2.330773  0  0  -0.787333  0  2.311798  0  0  -0.40203  -0.749402  0  2.34336  0
O  O102  1  0.16374808  0.86931646  0.22537852  1  0  -0.809724  0  1.961927  0  0  -0.764365  0  2.22263  0  0  -0.785685  0  2.201321  0  0  -0.420305  -0.74845  0  2.236602  0
O  O103  1  0.33624696  0.77461964  0.13068526  1  0  -0.809767  0  1.962123  0  0  -0.76442  0  2.222859  0  0  -0.785734  0  2.201542  0  0  -0.420327  -0.748519  0  2.236848  0
O  O104  1  0.83625241  0.13068302  0.77462205  1  0  -0.809728  0  1.961943  0  0  -0.764377  0  2.222643  0  0  -0.785693  0  2.201337  0  0  -0.420302  -0.748465  0  2.23662  0
O  O105  1  0.66375254  0.22537890  0.86931572  1  0  -0.809768  0  1.962098  0  0  -0.7644  0  2.222822  0  0  -0.78572  0  2.201511  0  0  -0.42032  -0.748495  0  2.23681  0
O  O106  1  0.85117149  0.82832231  0.62281875  1  0  -0.80492  0  2.171662  0  0  -0.762383  0  2.459068  0  0  -0.785144  0  2.442215  0  0  -0.420401  -0.745708  0  2.469767  0
O  O107  1  0.64882878  0.37718175  0.17167947  1  0  -0.804917  0  2.171792  0  0  -0.762337  0  2.459149  0  0  -0.785107  0  2.442294  0  0  -0.420361  -0.745655  0  2.469863  0
O  O108  1  0.14882894  0.17167907  0.37718023  1  0  -0.804922  0  2.171606  0  0  -0.762346  0  2.458994  0  0  -0.785118  0  2.442135  0  0  -0.420375  -0.745662  0  2.469695  0
O  O109  1  0.35117168  0.62281868  0.82831899  1  0  -0.804853  0  2.171788  0  0  -0.762285  0  2.459136  0  0  -0.78505  0  2.442281  0  0  -0.420354  -0.74561  0  2.469836  0
