# generated using pymatgen
data_CdH8C10S2(NO)2
_symmetry_space_group_name_H-M   'P 1'
_cell_length_a   3.81397815
_cell_length_b   10.01104476
_cell_length_c   14.34275608
_cell_angle_alpha   101.45247716
_cell_angle_beta   89.99983151
_cell_angle_gamma   89.99990683
_symmetry_Int_Tables_number   1
_chemical_formula_structural   CdH8C10S2(NO)2
_chemical_formula_sum   'Cd2 H16 C20 S4 N4 O4'
_cell_volume   536.73022827
_cell_formula_units_Z   2
loop_
 _symmetry_equiv_pos_site_id
 _symmetry_equiv_pos_as_xyz
  1  'x, y, z'
loop_
 _atom_site_type_symbol
 _atom_site_label
 _atom_site_symmetry_multiplicity
 _atom_site_fract_x
 _atom_site_fract_y
 _atom_site_fract_z
 _atom_site_occupancy
 _atom_site_hle17_bader_spin_density
 _atom_site_hle17_ddec_charge
 _atom_site_hle17_ddec_spin_density
 _atom_site_hle17_ddec_sum_bond_order
 _atom_site_hle17_magmom
 _atom_site_hse06_10hf_bader_spin_density
 _atom_site_hse06_10hf_ddec_charge
 _atom_site_hse06_10hf_ddec_spin_density
 _atom_site_hse06_10hf_ddec_sum_bond_order
 _atom_site_hse06_10hf_magmom
 _atom_site_hse06_bader_spin_density
 _atom_site_hse06_ddec_charge
 _atom_site_hse06_ddec_spin_density
 _atom_site_hse06_ddec_sum_bond_order
 _atom_site_hse06_magmom
 _atom_site_pbe_bader_spin_density
 _atom_site_pbe_cm5_charge
 _atom_site_pbe_ddec_charge
 _atom_site_pbe_ddec_spin_density
 _atom_site_pbe_ddec_sum_bond_order
 _atom_site_pbe_magmom
Cd  Cd0  1  0.99999124  0.50000023  0.99999986  1  0  0.946335  0  1.837123  0  0  0.774893  0  2.296814  0  0  0.829459  0  2.251317  0  0  0.604294  0.737553  0  2.326617  0
Cd  Cd1  1  0.50000163  0.50000028  0.50000008  1  0  0.946399  0  1.837107  0  0  0.774892  0  2.296813  0  0  0.829458  0  2.251315  0  0  0.604298  0.737552  0  2.326614  0
H  H2  1  0.74421011  0.42845234  0.25238355  1  0  0.108179  0  0.973765  0  0  0.112891  0  1.045199  0  0  0.116825  0  1.041032  0  0  0.121498  0.110079  0  1.048336  0
H  H3  1  0.24423056  0.57154708  0.24761859  1  0  0.108202  0  0.973821  0  0  0.112908  0  1.045265  0  0  0.116848  0  1.041075  0  0  0.121492  0.110089  0  1.04842  0
H  H4  1  0.25576955  0.57154825  0.74761872  1  0  0.108135  0  0.97386  0  0  0.1129  0  1.045255  0  0  0.116841  0  1.04106  0  0  0.121477  0.110079  0  1.048409  0
H  H5  1  0.75578581  0.42845249  0.75238284  1  0  0.108184  0  0.973765  0  0  0.112886  0  1.045217  0  0  0.116826  0  1.04103  0  0  0.121488  0.110074  0  1.048352  0
H  H6  1  0.81894068  0.20814798  0.30408563  1  0  0.109543  0  0.965752  0  0  0.11801  0  1.028823  0  0  0.121505  0  1.027727  0  0  0.09862  0.115419  0  1.030133  0
H  H7  1  0.31896598  0.79184831  0.19591464  1  0  0.109496  0  0.96578  0  0  0.118037  0  1.028732  0  0  0.121533  0  1.027634  0  0  0.098626  0.115445  0  1.030042  0
H  H8  1  0.18103636  0.79185057  0.69591567  1  0  0.109564  0  0.965729  0  0  0.11802  0  1.028789  0  0  0.121515  0  1.027695  0  0  0.098612  0.115429  0  1.030098  0
H  H9  1  0.68105563  0.20814921  0.80408582  1  0  0.109565  0  0.965719  0  0  0.118025  0  1.028797  0  0  0.12152  0  1.027701  0  0  0.098632  0.115433  0  1.030106  0
H  H10  1  0.56941268  0.99409514  0.19764297  1  0  0.090261  0  0.970927  0  0  0.102168  0  1.034514  0  0  0.104545  0  1.032586  0  0  0.101012  0.100959  0  1.034715  0
H  H11  1  0.06941665  0.00590336  0.30235430  1  0  0.090249  0  0.971001  0  0  0.102176  0  1.034548  0  0  0.104554  0  1.032618  0  0  0.101016  0.100968  0  1.034748  0
H  H12  1  0.43058533  0.00590439  0.80235497  1  0  0.090226  0  0.971009  0  0  0.102133  0  1.034579  0  0  0.104511  0  1.032648  0  0  0.101006  0.100927  0  1.03478  0
H  H13  1  0.93058923  0.99409617  0.69764364  1  0  0.09025  0  0.970956  0  0  0.102146  0  1.034557  0  0  0.104528  0  1.032616  0  0  0.100997  0.100937  0  1.034758  0
H  H14  1  0.24495126  0.01702330  0.05276789  1  0  0.111969  0  0.967587  0  0  0.118618  0  1.03424  0  0  0.122046  0  1.033289  0  0  0.098132  0.116042  0  1.034762  0
H  H15  1  0.74494983  0.98297605  0.44722796  1  0  0.111913  0  0.967646  0  0  0.118634  0  1.034226  0  0  0.122061  0  1.033275  0  0  0.098147  0.116058  0  1.034748  0
H  H16  1  0.75505200  0.98297621  0.94722865  1  0  0.111933  0  0.967636  0  0  0.118635  0  1.034238  0  0  0.122063  0  1.033287  0  0  0.098142  0.116058  0  1.034761  0
H  H17  1  0.25504556  0.01702345  0.55276789  1  0  0.111979  0  0.967737  0  0  0.118644  0  1.034371  0  0  0.122071  0  1.033423  0  0  0.098148  0.116068  0  1.034894  0
C  C18  1  0.64088274  0.33390554  0.21110293  1  0  0.021494  0  3.627361  0  0  -0.022592  0  3.895228  0  0  -0.014394  0  3.907205  0  0  0.026866  -0.028547  0  3.888331  0
C  C19  1  0.14089707  0.66609397  0.28889930  1  0  0.021368  0  3.627448  0  0  -0.022748  0  3.895357  0  0  -0.014548  0  3.907339  0  0  0.026817  -0.028703  0  3.888454  0
C  C20  1  0.35910216  0.66609505  0.78889934  1  0  0.021476  0  3.627417  0  0  -0.022696  0  3.895303  0  0  -0.014499  0  3.907289  0  0  0.026844  -0.028653  0  3.888397  0
C  C21  1  0.85911405  0.33390561  0.71110283  1  0  0.021427  0  3.627405  0  0  -0.02266  0  3.895288  0  0  -0.014462  0  3.907271  0  0  0.026819  -0.028612  0  3.888386  0
C  C22  1  0.67754536  0.21066526  0.23846946  1  0  -0.115286  0  3.779877  0  0  -0.124404  0  4.033954  0  0  -0.131113  0  4.053997  0  0  -0.096176  -0.121025  0  4.022031  0
C  C23  1  0.17756470  0.78933216  0.26153037  1  0  -0.115146  0  3.779614  0  0  -0.124272  0  4.033677  0  0  -0.13098  0  4.053722  0  0  -0.096069  -0.120891  0  4.021747  0
C  C24  1  0.32243692  0.78933328  0.76153114  1  0  -0.115236  0  3.779739  0  0  -0.12431  0  4.033797  0  0  -0.131018  0  4.053846  0  0  -0.096085  -0.120931  0  4.021865  0
C  C25  1  0.82245166  0.21066739  0.73846966  1  0  -0.115214  0  3.779758  0  0  -0.124327  0  4.033821  0  0  -0.131037  0  4.053868  0  0  -0.096142  -0.120947  0  4.021894  0
C  C26  1  0.53846020  0.09406635  0.17979232  1  0  -0.023273  0  3.75385  0  0  -0.046723  0  4.007129  0  0  -0.041067  0  4.022983  0  0  -0.083006  -0.050291  0  3.995139  0
C  C27  1  0.03846527  0.90593219  0.32020706  1  0  -0.02338  0  3.753859  0  0  -0.046862  0  4.007197  0  0  -0.041209  0  4.023053  0  0  -0.08309  -0.05043  0  3.995203  0
C  C28  1  0.46153782  0.90593218  0.82020757  1  0  -0.023324  0  3.753922  0  0  -0.046771  0  4.007207  0  0  -0.041117  0  4.023065  0  0  -0.083044  -0.050342  0  3.995213  0
C  C29  1  0.96154323  0.09406632  0.67979144  1  0  -0.023304  0  3.753795  0  0  -0.046744  0  4.007072  0  0  -0.041089  0  4.02293  0  0  -0.083001  -0.050311  0  3.995077  0
C  C30  1  0.36318694  0.10629392  0.09755115  1  0  -0.141115  0  3.728206  0  0  -0.153289  0  3.979498  0  0  -0.160648  0  3.99796  0  0  -0.088574  -0.147729  0  3.965568  0
C  C31  1  0.86318640  0.89370739  0.40244696  1  0  -0.141053  0  3.728289  0  0  -0.153266  0  3.979575  0  0  -0.160625  0  3.998038  0  0  -0.088595  -0.147716  0  3.965652  0
C  C32  1  0.63681369  0.89370663  0.90244693  1  0  -0.141044  0  3.728305  0  0  -0.153263  0  3.979594  0  0  -0.160623  0  3.998058  0  0  -0.088596  -0.147711  0  3.965657  0
C  C33  1  0.13681686  0.10629213  0.59755098  1  0  -0.141186  0  3.728367  0  0  -0.153351  0  3.979643  0  0  -0.160711  0  3.998108  0  0  -0.088624  -0.1478  0  3.965726  0
C  C34  1  0.33142209  0.23249842  0.06856670  1  0  0.148428  0  3.774534  0  0  0.136697  0  4.041984  0  0  0.150603  0  4.059568  0  0  0.094118  0.128012  0  4.029695  0
C  C35  1  0.83142702  0.76750191  0.43143270  1  0  0.148389  0  3.774507  0  0  0.136607  0  4.042035  0  0  0.150514  0  4.059619  0  0  0.094072  0.127939  0  4.029721  0
C  C36  1  0.66857068  0.76750215  0.93143347  1  0  0.148313  0  3.7746  0  0  0.136558  0  4.042096  0  0  0.150463  0  4.059681  0  0  0.094055  0.127892  0  4.029774  0
C  C37  1  0.16857886  0.23249864  0.56856607  1  0  0.148527  0  3.774368  0  0  0.136736  0  4.041912  0  0  0.150642  0  4.059496  0  0  0.094137  0.12806  0  4.02961  0
S  S38  1  0.13204785  0.24678553  0.96382956  1  0  -0.399874  0  2.13985  0  0  -0.365794  0  2.496814  0  0  -0.38958  0  2.494595  0  0  -0.180763  -0.349265  0  2.49712  0
S  S39  1  0.63204935  0.75321631  0.53617015  1  0  -0.399846  0  2.139812  0  0  -0.365752  0  2.496811  0  0  -0.389538  0  2.494592  0  0  -0.18074  -0.349228  0  2.49711  0
S  S40  1  0.86794754  0.75321503  0.03616991  1  0  -0.399822  0  2.139846  0  0  -0.365752  0  2.49682  0  0  -0.389538  0  2.494601  0  0  -0.180739  -0.349234  0  2.49712  0
S  S41  1  0.36795129  0.24678628  0.46382889  1  0  -0.399882  0  2.139782  0  0  -0.365805  0  2.496811  0  0  -0.389589  0  2.494591  0  0  -0.180775  -0.349279  0  2.497115  0
N  N42  1  0.47838093  0.34430631  0.12822019  1  0  0.18712  0  3.644993  0  0  0.241389  0  3.899502  0  0  0.237413  0  3.920878  0  0  -0.138161  0.243381  0  3.885394  0
N  N43  1  0.97838963  0.65569495  0.37178271  1  0  0.187291  0  3.644875  0  0  0.241583  0  3.899376  0  0  0.237609  0  3.92075  0  0  -0.138083  0.243571  0  3.885263  0
N  N44  1  0.52160922  0.65569531  0.87178291  1  0  0.187287  0  3.644896  0  0  0.241565  0  3.899416  0  0  0.237591  0  3.920795  0  0  -0.138097  0.243552  0  3.885298  0
N  N45  1  0.02162149  0.34430460  0.62821802  1  0  0.187178  0  3.644908  0  0  0.24141  0  3.899452  0  0  0.237434  0  3.92083  0  0  -0.138099  0.2434  0  3.88534  0
O  O46  1  0.47379765  0.46805659  0.10561192  1  0  -0.570593  0  1.884497  0  0  -0.504419  0  2.141846  0  0  -0.53087  0  2.139132  0  0  -0.255706  -0.485805  0  2.14286  0
O  O47  1  0.97380926  0.53194467  0.39438958  1  0  -0.57069  0  1.884484  0  0  -0.504485  0  2.141768  0  0  -0.530937  0  2.139053  0  0  -0.255745  -0.485873  0  2.142783  0
O  O48  1  0.52618726  0.53194501  0.89438908  1  0  -0.570669  0  1.884519  0  0  -0.504449  0  2.141794  0  0  -0.530902  0  2.139082  0  0  -0.255728  -0.485838  0  2.142809  0
O  O49  1  0.02619924  0.46805694  0.60561212  1  0  -0.570746  0  1.884623  0  0  -0.50443  0  2.141859  0  0  -0.530883  0  2.139145  0  0  -0.25573  -0.485816  0  2.142871  0
