# generated using pymatgen
data_SmAgH21C29S2(NO4)3
_symmetry_space_group_name_H-M   'P 1'
_cell_length_a   8.78989822
_cell_length_b   10.11977478
_cell_length_c   18.39900000
_cell_angle_alpha   92.25216167
_cell_angle_beta   99.65824540
_cell_angle_gamma   105.46534595
_symmetry_Int_Tables_number   1
_chemical_formula_structural   SmAgH21C29S2(NO4)3
_chemical_formula_sum   'Sm2 Ag2 H42 C58 S4 N6 O24'
_cell_volume   1548.91337273
_cell_formula_units_Z   2
loop_
 _symmetry_equiv_pos_site_id
 _symmetry_equiv_pos_as_xyz
  1  'x, y, z'
loop_
 _atom_site_type_symbol
 _atom_site_label
 _atom_site_symmetry_multiplicity
 _atom_site_fract_x
 _atom_site_fract_y
 _atom_site_fract_z
 _atom_site_occupancy
 _atom_site_hle17_bader_spin_density
 _atom_site_hle17_ddec_charge
 _atom_site_hle17_ddec_spin_density
 _atom_site_hle17_ddec_sum_bond_order
 _atom_site_hle17_magmom
 _atom_site_hse06_10hf_bader_spin_density
 _atom_site_hse06_10hf_ddec_charge
 _atom_site_hse06_10hf_ddec_spin_density
 _atom_site_hse06_10hf_ddec_sum_bond_order
 _atom_site_hse06_10hf_magmom
 _atom_site_hse06_bader_spin_density
 _atom_site_hse06_ddec_charge
 _atom_site_hse06_ddec_spin_density
 _atom_site_hse06_ddec_sum_bond_order
 _atom_site_hse06_magmom
 _atom_site_pbe_bader_charge
 _atom_site_pbe_bader_spin_density
 _atom_site_pbe_cm5_charge
 _atom_site_pbe_ddec_charge
 _atom_site_pbe_ddec_spin_density
 _atom_site_pbe_ddec_sum_bond_order
 _atom_site_pbe_magmom
Sm  Sm0  1  0.18979184  0.39156742  0.02380637  1  0  2.329971  0  1.605354  0  0  2.24417  0  1.952683  0  0  2.285106  0  1.911074  0  2.235924  0  1.519077  2.153192  0  2.095858  0
Sm  Sm1  1  0.81020645  0.60843422  0.97619418  1  0  2.329959  0  1.605292  0  0  2.244164  0  1.952617  0  0  2.285095  0  1.911007  0  2.235854  0  1.519074  2.15316  0  2.095833  0
Ag  Ag2  1  0.20744628  0.04167827  0.42519124  1  0  0.527387  0  1.456013  0  0  0.399043  0  1.884386  0  0  0.420652  0  1.848621  0  0.622397  0  0.476125  0.385463  0  1.908677  0
Ag  Ag3  1  0.79255399  0.95832234  0.57480890  1  0  0.52737  0  1.45601  0  0  0.399014  0  1.884393  0  0  0.420624  0  1.848628  0  0.622388  0  0.476122  0.385434  0  1.908685  0
H  H4  1  0.47457205  0.71984493  0.49619686  1  0  0.090958  0  0.940757  0  0  0.099785  0  1.003046  0  0  0.102926  0  0.999823  0  0.109221  0  0.113744  0.097464  0  1.005412  0
H  H5  1  0.52542855  0.28015671  0.50380496  1  0  0.091004  0  0.94066  0  0  0.099807  0  1.002988  0  0  0.10295  0  0.99976  0  0.109221  0  0.113722  0.097481  0  1.00536  0
H  H6  1  0.24428749  0.68767450  0.38916322  1  0  0.103584  0  0.939803  0  0  0.116042  0  0.994258  0  0  0.117826  0  0.995874  0  0.078082  0  0.106185  0.114688  0  0.993496  0
H  H7  1  0.75571293  0.31232302  0.61083741  1  0  0.10357  0  0.939741  0  0  0.116033  0  0.994196  0  0  0.117817  0  0.995811  0  0.078117  0  0.10617  0.114679  0  0.993435  0
H  H8  1  0.26181819  0.86790774  0.29747225  1  0  0.117711  0  0.95537  0  0  0.127322  0  1.012355  0  0  0.130366  0  1.009801  0  0.165596  0  0.109996  0.124951  0  1.014573  0
H  H9  1  0.73818026  0.13209082  0.70252933  1  0  0.117701  0  0.955372  0  0  0.127317  0  1.012351  0  0  0.13036  0  1.009802  0  0.165587  0  0.11  0.124959  0  1.014553  0
H  H10  1  0.50379553  0.06772423  0.31590983  1  0  0.112916  0  0.948182  0  0  0.123135  0  1.007766  0  0  0.126189  0  1.006628  0  0.101675  0  0.109779  0.120937  0  1.008678  0
H  H11  1  0.49620177  0.93227432  0.68409058  1  0  0.112938  0  0.948202  0  0  0.123131  0  1.00781  0  0  0.126185  0  1.006672  0  0.101756  0  0.109796  0.120933  0  1.008721  0
H  H12  1  0.74772194  0.17321840  0.31390586  1  0  0.114539  0  0.946951  0  0  0.125323  0  1.006932  0  0  0.128397  0  1.006321  0  0.093579  0  0.112524  0.123114  0  1.007472  0
H  H13  1  0.25227732  0.82677912  0.68609359  1  0  0.114539  0  0.946946  0  0  0.125308  0  1.006944  0  0  0.12838  0  1.006334  0  0.09359  0  0.112533  0.123098  0  1.007484  0
H  H14  1  0.18696905  0.37630155  0.46384965  1  0  0.12492  0  0.958794  0  0  0.135311  0  1.016696  0  0  0.13908  0  1.014456  0  0.118719  0  0.110914  0.132554  0  1.018557  0
H  H15  1  0.81303170  0.62369700  0.53614994  1  0  0.124916  0  0.958887  0  0  0.135316  0  1.016775  0  0  0.139084  0  1.014536  0  0.118692  0  0.110915  0.132559  0  1.018635  0
H  H16  1  0.29547705  0.41276734  0.57555069  1  0  0.114318  0  0.940863  0  0  0.128453  0  0.993278  0  0  0.131528  0  0.992325  0  0.096027  0  0.111833  0.126375  0  0.993853  0
H  H17  1  0.70452437  0.58723328  0.42444791  1  0  0.114339  0  0.940819  0  0  0.128472  0  0.993242  0  0  0.131548  0  0.992288  0  0.09603  0  0.111831  0.126394  0  0.993818  0
H  H18  1  0.43980567  0.41494641  0.70259600  1  0  0.100337  0  0.954844  0  0  0.110384  0  1.015124  0  0  0.112891  0  1.013472  0  0.093617  0  0.107798  0.108421  0  1.016553  0
H  H19  1  0.56019806  0.58505420  0.29740225  1  0  0.100321  0  0.954762  0  0  0.110335  0  1.015089  0  0  0.112855  0  1.013424  0  0.093453  0  0.107788  0.108375  0  1.01651  0
H  H20  1  0.32946256  0.22738750  0.78228181  1  0  0.109027  0  0.951081  0  0  0.120355  0  1.007743  0  0  0.123021  0  1.007387  0  0.096714  0  0.110523  0.118354  0  1.008245  0
H  H21  1  0.67054530  0.77261517  0.21771844  1  0  0.108995  0  0.951135  0  0  0.120334  0  1.007782  0  0  0.122997  0  1.007432  0  0.09692  0  0.110528  0.118334  0  1.008283  0
H  H22  1  0.07211350  0.04787067  0.72807068  1  0  0.088003  0  0.914658  0  0  0.098858  0  0.970693  0  0  0.101686  0  0.968657  0  0.089473  0  0.119525  0.096804  0  0.972158  0
H  H23  1  0.92789205  0.95213200  0.27193211  1  0  0.087946  0  0.914654  0  0  0.098801  0  0.970705  0  0  0.101629  0  0.968668  0  0.089365  0  0.1195  0.096747  0  0.97217  0
H  H24  1  0.31238751  0.51520133  0.22590907  1  0  0.118476  0  0.950263  0  0  0.127845  0  1.01153  0  0  0.131386  0  1.008985  0  0.137071  0  0.119539  0.125315  0  1.013415  0
H  H25  1  0.68761276  0.48479928  0.77409053  1  0  0.118419  0  0.950298  0  0  0.127808  0  1.011552  0  0  0.131348  0  1.009007  0  0.137078  0  0.119528  0.125283  0  1.013427  0
H  H26  1  0.84218605  0.57558650  0.20730603  1  0  0.11438  0  0.941234  0  0  0.126003  0  0.997914  0  0  0.129104  0  0.996327  0  0.106309  0  0.114031  0.123554  0  0.999587  0
H  H27  1  0.15781207  0.42441102  0.79269333  1  0  0.114374  0  0.941249  0  0  0.125999  0  0.997925  0  0  0.1291  0  0.996339  0  0.10631  0  0.114036  0.123552  0  0.999597  0
H  H28  1  0.78706380  0.42079296  0.30696271  1  0  0.104729  0  0.952324  0  0  0.11469  0  1.012693  0  0  0.117942  0  1.011505  0  0.106385  0  0.106326  0.112374  0  1.013666  0
H  H29  1  0.21293844  0.57920662  0.69303757  1  0  0.104759  0  0.9523  0  0  0.114729  0  1.012658  0  0  0.117971  0  1.011481  0  0.106365  0  0.106337  0.112412  0  1.013633  0
H  H30  1  0.51386201  0.17266977  0.88211396  1  0  0.107241  0  0.952245  0  0  0.114005  0  1.018925  0  0  0.117954  0  1.015402  0  0.098086  0  0.106908  0.110949  0  1.021845  0
H  H31  1  0.48614090  0.82733187  0.11788641  1  0  0.107194  0  0.952284  0  0  0.113965  0  1.018961  0  0  0.117912  0  1.015437  0  0.098115  0  0.106896  0.110908  0  1.021879  0
H  H32  1  0.58892085  0.97357586  0.83279631  1  0  0.106172  0  0.952496  0  0  0.117392  0  1.008059  0  0  0.121055  0  1.006327  0  0.088874  0  0.104183  0.114722  0  1.009654  0
H  H33  1  0.41107793  0.02642372  0.16720424  1  0  0.106172  0  0.952475  0  0  0.117392  0  1.008042  0  0  0.121055  0  1.006311  0  0.088864  0  0.104183  0.114722  0  1.009637  0
H  H34  1  0.44607764  0.73514889  0.85716733  1  0  0.101444  0  0.953179  0  0  0.113845  0  1.012929  0  0  0.11685  0  1.010722  0  0.087902  0  0.110027  0.11171  0  1.014449  0
H  H35  1  0.55391998  0.26485069  0.14283204  1  0  0.101462  0  0.953119  0  0  0.113855  0  1.012885  0  0  0.116862  0  1.010674  0  0.087858  0  0.110008  0.111715  0  1.014413  0
H  H36  1  0.13813494  0.90127217  0.97190369  1  0  0.122081  0  0.939543  0  0  0.127886  0  1.006408  0  0  0.132599  0  1.001876  0  0.149668  0  0.118746  0.124788  0  1.009257  0
H  H37  1  0.86186599  0.09873050  0.02809547  1  0  0.122004  0  0.939571  0  0  0.127808  0  1.006444  0  0  0.13252  0  1.001916  0  0.149616  0  0.118712  0.12471  0  1.009294  0
H  H38  1  0.29552881  0.28368523  0.18262894  1  0  0.445784  0  0.851216  0  0  0.4164  0  0.911615  0  0  0.426607  0  0.896767  0  0.654996  0  0.298971  0.408818  0  0.922559  0
H  H39  1  0.70446997  0.71631436  0.81737052  1  0  0.445805  0  0.851192  0  0  0.41643  0  0.911573  0  0  0.426637  0  0.896725  0  0.65499  0  0.298984  0.408848  0  0.922517  0
H  H40  1  0.19503931  0.16566524  0.11840397  1  0  0.452469  0  0.803959  0  0  0.435087  0  0.851401  0  0  0.443752  0  0.838751  0  0.635764  0  0.331512  0.428669  0  0.860644  0
H  H41  1  0.80495947  0.83433434  0.88159603  1  0  0.452512  0  0.803896  0  0  0.435132  0  0.851336  0  0  0.443797  0  0.838686  0  0.635771  0  0.331539  0.428715  0  0.860576  0
H  H42  1  0.51084135  0.58261883  0.08299471  1  0  0.452373  0  0.837129  0  0  0.424318  0  0.896206  0  0  0.435334  0  0.879827  0  0.663367  0  0.308088  0.41643  0  0.907743  0
H  H43  1  0.48915661  0.41738179  0.91700525  1  0  0.452375  0  0.837131  0  0  0.424343  0  0.896166  0  0  0.435357  0  0.879789  0  0.663369  0  0.308121  0.416457  0  0.907696  0
H  H44  1  0.54428959  0.44041389  0.07664292  1  0  0.4361  0  0.869317  0  0  0.404794  0  0.934911  0  0  0.41605  0  0.918331  0  0.666007  0  0.300186  0.396951  0  0.946097  0
H  H45  1  0.45570919  0.55958569  0.92335763  1  0  0.436066  0  0.869361  0  0  0.404754  0  0.934965  0  0  0.416011  0  0.918384  0  0.666004  0  0.300167  0.39691  0  0.946153  0
C  C46  1  0.47579764  0.79377803  0.45448259  1  0  0.122907  0  3.707993  0  0  0.091793  0  3.967479  0  0  0.097909  0  3.984526  0  0.479967  0  0.04287  0.087774  0  3.955822  0
C  C47  1  0.52420162  0.20621949  0.54551849  1  0  0.122868  0  3.707905  0  0  0.091782  0  3.96738  0  0  0.097894  0  3.984427  0  0.480089  0  0.042896  0.087767  0  3.955722  0
C  C48  1  0.34866699  0.77688068  0.39529090  1  0  -0.101246  0  3.719768  0  0  -0.117152  0  3.977509  0  0  -0.123131  0  3.998429  0  -0.006407  0  -0.083949  -0.113478  0  3.963847  0
C  C49  1  0.65133228  0.22311684  0.60471019  1  0  -0.101186  0  3.71972  0  0  -0.117091  0  3.97745  0  0  -0.123071  0  3.998374  0  -0.006538  0  -0.083893  -0.113417  0  3.963791  0
C  C50  1  0.35746385  0.87722310  0.34499126  1  0  -0.022753  0  3.736682  0  0  -0.038957  0  3.99202  0  0  -0.034952  0  4.006574  0  -0.067229  0  -0.077686  -0.041618  0  3.982806  0
C  C51  1  0.64253608  0.12277648  0.65500992  1  0  -0.022745  0  3.736604  0  0  -0.03896  0  3.991964  0  0  -0.034957  0  4.006519  0  -0.067223  0  -0.077702  -0.041632  0  3.982746  0
C  C52  1  0.49566206  0.98802651  0.35436699  1  0  -0.140701  0  3.695319  0  0  -0.159258  0  3.944316  0  0  -0.165463  0  3.963766  0  -0.070817  0  -0.080586  -0.155356  0  3.931555  0
C  C53  1  0.50433721  0.01197101  0.64563355  1  0  -0.140712  0  3.695283  0  0  -0.159257  0  3.944264  0  0  -0.16546  0  3.963715  0  -0.070952  0  -0.080583  -0.155355  0  3.931508  0
C  C54  1  0.62078656  0.99613448  0.41406938  1  0  0.169085  0  3.750799  0  0  0.166206  0  3.99173  0  0  0.171579  0  4.01332  0  0.538188  0  0.115661  0.162441  0  3.977332  0
C  C55  1  0.37921353  0.00386202  0.58593066  1  0  0.169009  0  3.750929  0  0  0.166222  0  3.99179  0  0  0.171589  0  4.013383  0  0.538211  0  0.115629  0.162456  0  3.977392  0
C  C56  1  0.77406180  0.10839171  0.42536587  1  0  0.197299  0  3.771047  0  0  0.190909  0  4.019307  0  0  0.198253  0  4.037925  0  0.48389  0  0.124163  0.185899  0  4.006908  0
C  C57  1  0.22593911  0.89160375  0.57463367  1  0  0.197289  0  3.771  0  0  0.1908  0  4.019349  0  0  0.198142  0  4.037969  0  0.483861  0  0.124103  0.185791  0  4.00695  0
C  C58  1  0.82223800  0.18917392  0.36886120  1  0  -0.171407  0  3.64251  0  0  -0.198236  0  3.889211  0  0  -0.204577  0  3.907771  0  -0.006032  0  -0.074249  -0.194121  0  3.876812  0
C  C59  1  0.17776373  0.81082051  0.63113784  1  0  -0.171322  0  3.642502  0  0  -0.198102  0  3.889218  0  0  -0.204441  0  3.907777  0  -0.005989  0  -0.074181  -0.193987  0  3.87682  0
C  C60  1  0.97175551  0.28842114  0.38251090  1  0  0.1177  0  3.75965  0  0  0.128927  0  3.996984  0  0  0.133113  0  4.017632  0  -0.008427  0  0.012075  0.125962  0  3.98306  0
C  C61  1  0.02824492  0.71157639  0.61748810  1  0  0.117699  0  3.759634  0  0  0.128925  0  3.996948  0  0  0.133111  0  4.017596  0  -0.008629  0  0.012065  0.125956  0  3.983031  0
C  C62  1  0.06866251  0.30252079  0.45283456  1  0  -0.193967  0  3.667514  0  0  -0.220502  0  3.917577  0  0  -0.226206  0  3.933387  0  -0.0204  0  -0.083723  -0.216912  0  3.907413  0
C  C63  1  0.93133445  0.69747674  0.54716526  1  0  -0.19407  0  3.667621  0  0  -0.220612  0  3.917688  0  0  -0.226313  0  3.933494  0  -0.020255  0  -0.083788  -0.21702  0  3.907526  0
C  C64  1  0.01158417  0.21930011  0.50717021  1  0  0.186658  0  3.774891  0  0  0.181115  0  4.0281  0  0  0.189423  0  4.043265  0  0.531261  0  0.118666  0.17546  0  4.018101  0
C  C65  1  0.98841428  0.78069844  0.49283028  1  0  0.186734  0  3.774998  0  0  0.181193  0  4.028201  0  0  0.189502  0  4.043364  0  0.531176  0  0.11869  0.175538  0  4.018202  0
C  C66  1  0.10544317  0.22791245  0.58376883  1  0  0.168965  0  3.747432  0  0  0.166618  0  3.992101  0  0  0.171654  0  4.012749  0  0.467369  0  0.116706  0.163085  0  3.978285  0
C  C67  1  0.89455859  0.77208919  0.41623254  1  0  0.168974  0  3.747461  0  0  0.166633  0  3.992147  0  0  0.171669  0  4.012793  0  0.467492  0  0.116727  0.163103  0  3.978323  0
C  C68  1  0.24770928  0.33234848  0.60998932  1  0  -0.137431  0  3.697544  0  0  -0.157916  0  3.945651  0  0  -0.164668  0  3.968029  0  0.027338  0  -0.077796  -0.153287  0  3.93025  0
C  C69  1  0.75229165  0.66765419  0.39001093  1  0  -0.13746  0  3.697472  0  0  -0.157938  0  3.94559  0  0  -0.164691  0  3.967973  0  0.027188  0  -0.077779  -0.153311  0  3.93019  0
C  C70  1  0.33055657  0.33280035  0.68159287  1  0  -0.002363  0  3.714336  0  0  -0.018991  0  3.962999  0  0  -0.017011  0  3.983335  0  -0.066908  0  -0.064304  -0.020054  0  3.949155  0
C  C71  1  0.66944749  0.66720129  0.31840651  1  0  -0.002289  0  3.714287  0  0  -0.018901  0  3.962983  0  0  -0.016931  0  3.983315  0  -0.06667  0  -0.06428  -0.019963  0  3.949138  0
C  C72  1  0.26938131  0.23013167  0.72576951  1  0  -0.112868  0  3.720662  0  0  -0.124748  0  3.968337  0  0  -0.130975  0  3.990697  0  -0.034746  0  -0.078304  -0.1207  0  3.953201  0
C  C73  1  0.73062391  0.76986997  0.27422997  1  0  -0.112901  0  3.72073  0  0  -0.124775  0  3.968406  0  0  -0.131004  0  3.990769  0  -0.034899  0  -0.078324  -0.120728  0  3.95327  0
C  C74  1  0.12645017  0.13034715  0.69597595  1  0  0.126182  0  3.719085  0  0  0.096992  0  3.976751  0  0  0.102193  0  3.99513  0  0.552802  0  0.048899  0.093631  0  3.964155  0
C  C75  1  0.87355356  0.86965347  0.30402447  1  0  0.126329  0  3.719044  0  0  0.09714  0  3.976728  0  0  0.102345  0  3.995102  0  0.552882  0  0.04893  0.093778  0  3.964131  0
C  C76  1  0.01818920  0.37958509  0.32398759  1  0  0.057962  0  3.723575  0  0  0.063599  0  3.954834  0  0  0.066428  0  3.976331  0  -0.029986  0  0.003086  0.061916  0  3.940363  0
C  C77  1  0.98181337  0.62041553  0.67601274  1  0  0.057959  0  3.723615  0  0  0.063599  0  3.954865  0  0  0.066429  0  3.976361  0  -0.030037  0  0.003102  0.061916  0  3.940393  0
C  C78  1  0.16683699  0.40635157  0.29954952  1  0  -0.14415  0  3.662084  0  0  -0.121709  0  3.908697  0  0  -0.128986  0  3.928895  0  -0.160777  0  -0.012713  -0.117161  0  3.89559  0
C  C79  1  0.83316410  0.59364801  0.70045013  1  0  -0.14413  0  3.66212  0  0  -0.121676  0  3.90872  0  0  -0.128958  0  3.928926  0  -0.160918  0  -0.012705  -0.117127  0  3.895611  0
C  C80  1  0.19944585  0.49798386  0.24585521  1  0  -0.06676  0  3.750945  0  0  -0.105535  0  4.005354  0  0  -0.102909  0  4.024333  0  -0.009882  0  -0.075746  -0.10696  0  3.992396  0
C  C81  1  0.80055293  0.50201572  0.75414425  1  0  -0.066747  0  3.750876  0  0  -0.105542  0  4.0053  0  0  -0.102915  0  4.024279  0  -0.00978  0  -0.075754  -0.10697  0  3.992344  0
C  C82  1  0.08380388  0.56010447  0.21376206  1  0  -0.10675  0  3.717958  0  0  -0.079804  0  3.966912  0  0  -0.087166  0  3.987561  0  -0.138384  0  -0.007543  -0.075102  0  3.953422  0
C  C83  1  0.91619259  0.43989511  0.78623775  1  0  -0.106694  0  3.71791  0  0  -0.079769  0  3.966904  0  0  -0.087132  0  3.987552  0  -0.13817  0  -0.007524  -0.075064  0  3.953416  0
C  C84  1  0.93410860  0.53115376  0.23467259  1  0  -0.036093  0  3.718066  0  0  -0.06702  0  3.970333  0  0  -0.06407  0  3.988544  0  -0.066384  0  -0.076463  -0.06911  0  3.95911  0
C  C85  1  0.06589051  0.46884685  0.76532855  1  0  -0.036061  0  3.718094  0  0  -0.06699  0  3.970373  0  0  -0.064037  0  3.988578  0  -0.066566  0  -0.076463  -0.069082  0  3.95915  0
C  C86  1  0.90351023  0.44255591  0.28983825  1  0  -0.102513  0  3.70519  0  0  -0.120842  0  3.957513  0  0  -0.125053  0  3.977479  0  0.026954  0  -0.082219  -0.118429  0  3.94463  0
C  C87  1  0.09649052  0.55744264  0.71016243  1  0  -0.102559  0  3.705211  0  0  -0.120893  0  3.957525  0  0  -0.125097  0  3.977494  0  0.027016  0  -0.082221  -0.118478  0  3.944642  0
C  C88  1  0.27135485  0.16632400  0.95944662  1  0  0.65764  0  3.919669  0  0  0.609917  0  4.214682  0  0  0.644213  0  4.20684  0  1.518124  0  0.198533  0.587748  0  4.212617  0
C  C89  1  0.72864377  0.83367867  0.04055289  1  0  0.657676  0  3.919651  0  0  0.609937  0  4.21469  0  0  0.644233  0  4.206848  0  1.518877  0  0.198559  0.587767  0  4.212622  0
C  C90  1  0.31808644  0.04837401  0.92828286  1  0  -0.073052  0  3.768511  0  0  -0.044597  0  3.996644  0  0  -0.055508  0  4.021548  0  0.003693  0  -0.015057  -0.038263  0  3.981053  0
C  C91  1  0.68191416  0.95162763  0.07171679  1  0  -0.072993  0  3.768419  0  0  -0.044528  0  3.996536  0  0  -0.055438  0  4.021437  0  0.003685  0  -0.015015  -0.038196  0  3.980947  0
C  C92  1  0.44597093  0.06871959  0.88975637  1  0  -0.043581  0  3.696197  0  0  -0.072956  0  3.949059  0  0  -0.06992  0  3.967954  0  -0.039989  0  -0.072869  -0.073701  0  3.935739  0
C  C93  1  0.55403082  0.93128205  0.11024392  1  0  -0.043547  0  3.696272  0  0  -0.072926  0  3.949132  0  0  -0.069888  0  3.968022  0  -0.04001  0  -0.072884  -0.073669  0  3.935811  0
C  C94  1  0.48945090  0.95575109  0.86281881  1  0  -0.085057  0  3.759595  0  0  -0.097368  0  4.018656  0  0  -0.102846  0  4.039953  0  -0.016739  0  -0.09107  -0.094139  0  4.003763  0
C  C95  1  0.51054937  0.04424952  0.13718079  1  0  -0.085055  0  3.759563  0  0  -0.097367  0  4.018619  0  0  -0.102845  0  4.039917  0  -0.016534  0  -0.091052  -0.094138  0  4.003726  0
C  C96  1  0.40991281  0.82312503  0.87679202  1  0  -0.055524  0  3.712291  0  0  -0.085195  0  3.962143  0  0  -0.082553  0  3.981806  0  -0.063999  0  -0.076222  -0.085789  0  3.948265  0
C  C97  1  0.59008664  0.17687661  0.12320754  1  0  -0.055547  0  3.712218  0  0  -0.085205  0  3.962067  0  0  -0.082567  0  3.981736  0  -0.064145  0  -0.076221  -0.085797  0  3.948192  0
C  C98  1  0.28343349  0.80279592  0.91643046  1  0  -0.078555  0  3.756429  0  0  -0.050617  0  3.98461  0  0  -0.06147  0  4.009124  0  0.0001  0  -0.013833  -0.044191  0  3.969914  0
C  C99  1  0.71656514  0.19720675  0.08356905  1  0  -0.078596  0  3.756388  0  0  -0.050693  0  3.984564  0  0  -0.06155  0  4.009078  0  0.000126  0  -0.013882  -0.044269  0  3.969868  0
C  C100  1  0.23548000  0.91518861  0.94071982  1  0  -0.046699  0  3.65668  0  0  -0.081542  0  3.894281  0  0  -0.078029  0  3.912631  0  -0.092183  0  -0.062831  -0.084747  0  3.884026  0
C  C101  1  0.76451977  0.08481406  0.05927978  1  0  -0.04661  0  3.656575  0  0  -0.081457  0  3.894202  0  0  -0.077945  0  3.912552  0  -0.092136  0  -0.062792  -0.084661  0  3.883948  0
C  C102  1  0.20773012  0.66500369  0.93912536  1  0  0.732969  0  3.842135  0  0  0.683636  0  4.134579  0  0  0.719039  0  4.123196  0  1.56472  0  0.237789  0.659365  0  4.136994  0
C  C103  1  0.79226884  0.33500001  0.06087529  1  0  0.732977  0  3.842126  0  0  0.683758  0  4.13438  0  0  0.719167  0  4.122996  0  1.56459  0  0.23796  0.659487  0  4.136795  0
S  S104  1  0.31158987  0.31169410  0.32646087  1  0  1.277878  0  5.666591  0  0  1.18264  0  6.186931  0  0  1.230628  0  6.164734  0  3.178737  0  0.499464  1.149431  0  6.201288  0
S  S105  1  0.68841122  0.68830548  0.67353877  1  0  1.27778  0  5.666728  0  0  1.182545  0  6.187068  0  0  1.230532  0  6.164875  0  3.178734  0  0.499426  1.149335  0  6.201424  0
S  S106  1  0.13025541  0.67123109  0.14290738  1  0  1.366707  0  5.617439  0  0  1.271545  0  6.14121  0  0  1.321108  0  6.113271  0  3.228108  0  0.54107  1.236774  0  6.15486  0
S  S107  1  0.86974370  0.32876952  0.85709213  1  0  1.366626  0  5.617592  0  0  1.271459  0  6.141389  0  0  1.321023  0  6.113448  0  3.227879  0  0.54104  1.236683  0  6.155042  0
N  N108  1  0.60804746  0.90075443  0.46384506  1  0  -0.333171  0  3.261788  0  0  -0.268996  0  3.541257  0  0  -0.284804  0  3.557809  0  -1.200477  0  -0.327687  -0.258238  0  3.529927  0
N  N109  1  0.39195263  0.09924207  0.53615552  1  0  -0.33318  0  3.261878  0  0  -0.269057  0  3.541353  0  0  -0.28485  0  3.557895  0  -1.20043  0  -0.327715  -0.258297  0  3.53002  0
N  N110  1  0.86716973  0.12635235  0.49250147  1  0  -0.356379  0  3.269033  0  0  -0.303775  0  3.54381  0  0  -0.317598  0  3.556314  0  -1.216844  0  -0.326776  -0.294535  0  3.535396  0
N  N111  1  0.13282936  0.87364106  0.50749842  1  0  -0.356354  0  3.268974  0  0  -0.303725  0  3.543782  0  0  -0.317552  0  3.556292  0  -1.216793  0  -0.326725  -0.294485  0  3.535367  0
N  N112  1  0.04737618  0.12866420  0.62693476  1  0  -0.327677  0  3.209732  0  0  -0.269871  0  3.485358  0  0  -0.284362  0  3.501178  0  -1.20858  0  -0.319358  -0.259885  0  3.474562  0
N  N113  1  0.95262408  0.87133641  0.37306593  1  0  -0.327797  0  3.209739  0  0  -0.27001  0  3.485394  0  0  -0.284503  0  3.501213  0  -1.208608  0  -0.319409  -0.260031  0  3.474613  0
O  O114  1  0.40280969  0.36956567  0.39995049  1  0  -0.651145  0  1.901919  0  0  -0.608759  0  2.141096  0  0  -0.62937  0  2.126843  0  -1.331725  0  -0.345838  -0.594008  0  2.150105  0
O  O115  1  0.59719024  0.63043392  0.60004906  1  0  -0.651093  0  1.901914  0  0  -0.608728  0  2.141099  0  0  -0.629337  0  2.126847  0  -1.33174  0  -0.345816  -0.593976  0  2.150109  0
O  O116  1  0.21180819  0.16773212  0.32322167  1  0  -0.662769  0  2.052457  0  0  -0.597764  0  2.325096  0  0  -0.621157  0  2.309217  0  -1.311947  0  -0.354635  -0.58107  0  2.335566  0
O  O117  1  0.78819289  0.83226747  0.67677798  1  0  -0.662753  0  2.052491  0  0  -0.597754  0  2.325133  0  0  -0.621145  0  2.309255  0  -1.311942  0  -0.354645  -0.581061  0  2.335605  0
O  O118  1  0.41179624  0.32976179  0.26854460  1  0  -0.666995  0  1.932243  0  0  -0.612872  0  2.166343  0  0  -0.634063  0  2.151371  0  -1.327433  0  -0.340686  -0.598038  0  2.176434  0
O  O119  1  0.58820369  0.67023779  0.73145495  1  0  -0.66695  0  1.932247  0  0  -0.612836  0  2.166354  0  0  -0.634025  0  2.151381  0  -1.327409  0  -0.340665  -0.598003  0  2.176447  0
O  O120  1  0.22168239  0.80618548  0.17840634  1  0  -0.62559  0  1.913629  0  0  -0.578953  0  2.14479  0  0  -0.600679  0  2.131747  0  -1.32753  0  -0.324105  -0.564146  0  2.15415  0
O  O121  1  0.77831705  0.19381616  0.82159430  1  0  -0.625558  0  1.913694  0  0  -0.578906  0  2.144846  0  0  -0.600634  0  2.131804  0  -1.327526  0  -0.324063  -0.564102  0  2.15421  0
O  O122  1  0.22543482  0.60553668  0.10147005  1  0  -0.770203  0  2.056931  0  0  -0.721834  0  2.329827  0  0  -0.743265  0  2.313607  0  -1.353915  0  -0.39755  -0.698762  0  2.340623  0
O  O123  1  0.77456280  0.39446290  0.89852986  1  0  -0.770195  0  2.056879  0  0  -0.72183  0  2.329792  0  0  -0.743262  0  2.313569  0  -1.353709  0  -0.397567  -0.698755  0  2.34059  0
O  O124  1  0.97403340  0.67028205  0.09845842  1  0  -0.772219  0  2.100242  0  0  -0.730136  0  2.374321  0  0  -0.750454  0  2.357615  0  -1.349753  0  -0.402865  -0.707662  0  2.38679  0
O  O125  1  0.02596489  0.32971959  0.90154159  1  0  -0.772209  0  2.100303  0  0  -0.730124  0  2.374381  0  0  -0.750438  0  2.35767  0  -1.349727  0  -0.402888  -0.707653  0  2.38685  0
O  O126  1  0.15819219  0.14428828  0.99652238  1  0  -0.690886  0  1.964009  0  0  -0.648872  0  2.199252  0  0  -0.672389  0  2.187853  0  -1.174532  0  -0.376824  -0.626155  0  2.206301  0
O  O127  1  0.84180807  0.85571233  0.00347722  1  0  -0.69091  0  1.96392  0  0  -0.64889  0  2.19917  0  0  -0.672405  0  2.187766  0  -1.174541  0  -0.376839  -0.626171  0  2.206218  0
O  O128  1  0.34668032  0.29026774  0.94997610  1  0  -0.729388  0  2.025942  0  0  -0.677501  0  2.265585  0  0  -0.702843  0  2.254487  0  -1.1977  0  -0.38054  -0.654111  0  2.273813  0
O  O129  1  0.65331484  0.70973493  0.05002205  1  0  -0.729446  0  2.026053  0  0  -0.677541  0  2.265702  0  0  -0.702884  0  2.254606  0  -1.198426  0  -0.380563  -0.654144  0  2.273929  0
O  O130  1  0.29095798  0.57908311  0.94929636  1  0  -0.722279  0  2.076904  0  0  -0.666422  0  2.31833  0  0  -0.692177  0  2.307017  0  -1.188842  0  -0.365377  -0.642042  0  2.327718  0
O  O131  1  0.70904097  0.42092059  0.05070483  1  0  -0.722251  0  2.076951  0  0  -0.666465  0  2.318388  0  0  -0.692195  0  2.307012  0  -1.188833  0  -0.365442  -0.642079  0  2.327774  0
O  O132  1  0.06517797  0.63757432  0.95153319  1  0  -0.805974  0  2.140598  0  0  -0.770076  0  2.417797  0  0  -0.794063  0  2.403304  0  -1.220973  0  -0.417924  -0.739837  0  2.426184  0
O  O133  1  0.93482066  0.36242835  0.04846578  1  0  -0.805987  0  2.140566  0  0  -0.77013  0  2.417727  0  0  -0.794123  0  2.403232  0  -1.220916  0  -0.417992  -0.739896  0  2.426111  0
O  O134  1  0.22103458  0.26354757  0.13369779  1  0  -0.919859  0  1.839485  0  0  -0.880729  0  2.021773  0  0  -0.898672  0  1.991933  0  -1.273319  0  -0.638926  -0.859819  0  2.047161  0
O  O135  1  0.77896419  0.73645201  0.86630221  1  0  -0.919919  0  1.839431  0  0  -0.880795  0  2.021725  0  0  -0.898737  0  1.991882  0  -1.273317  0  -0.638966  -0.859882  0  2.047118  0
O  O136  1  0.46262895  0.48469429  0.08993524  1  0  -0.920875  0  1.831454  0  0  -0.884819  0  2.021786  0  0  -0.902443  0  1.987842  0  -1.313825  0  -0.659266  -0.864623  0  2.049169  0
O  O137  1  0.53737017  0.51530632  0.91006481  1  0  -0.920832  0  1.831484  0  0  -0.884786  0  2.021822  0  0  -0.902407  0  1.987878  0  -1.31377  0  -0.659278  -0.86459  0  2.049216  0
