# generated using pymatgen
data_Zn2H22C25(NO4)2
_symmetry_space_group_name_H-M   'P 1'
_cell_length_a   9.90806022
_cell_length_b   11.07197618
_cell_length_c   11.03713812
_cell_angle_alpha   95.61867055
_cell_angle_beta   92.43033627
_cell_angle_gamma   84.96984353
_symmetry_Int_Tables_number   1
_chemical_formula_structural   Zn2H22C25(NO4)2
_chemical_formula_sum   'Zn2 H22 C25 N2 O8'
_cell_volume   1199.63735841
_cell_formula_units_Z   1
loop_
 _symmetry_equiv_pos_site_id
 _symmetry_equiv_pos_as_xyz
  1  'x, y, z'
loop_
 _atom_site_type_symbol
 _atom_site_label
 _atom_site_symmetry_multiplicity
 _atom_site_fract_x
 _atom_site_fract_y
 _atom_site_fract_z
 _atom_site_occupancy
 _atom_site_pbe_bader_charge
 _atom_site_pbe_bader_spin_density
 _atom_site_pbe_cm5_charge
 _atom_site_pbe_ddec_charge
 _atom_site_pbe_ddec_spin_density
 _atom_site_pbe_ddec_sum_bond_order
 _atom_site_pbe_magmom
Zn  Zn0  1  0.64722339  0.48949842  0.51477886  1  1.296919  0  0.670564  0.844168  0  2.350491  0
Zn  Zn1  1  0.35618061  0.49574062  0.50221976  1  1.298606  0  0.670602  0.831178  0  2.415304  0
H  H2  1  0.30818639  0.10632382  0.40237486  1  0.077279  0  0.104186  0.10514  0  0.989945  0
H  H3  1  0.84250268  0.46548502  0.89666607  1  0.047727  0  0.092695  0.100815  0  0.991844  0
H  H4  1  0.82415665  0.24425163  0.51202251  1  0.102841  0  0.104992  0.167003  0  1.007396  0
H  H5  1  0.97757131  0.21078950  0.59987092  1  0.031407  0  0.098942  0.140027  0  0.991886  0
H  H6  1  0.83512464  0.30127846  0.66582081  1  0.112668  0  0.108081  0.164743  0  0.97681  0
H  H7  1  0.92039196  0.78683744  0.68500965  1  0.028797  0  0.08837  0.117461  0  1.00085  0
H  H8  1  0.85176496  0.90273227  0.59380165  1  0.013065  0  0.089276  0.121047  0  0.9985  0
H  H9  1  0.74683104  0.78987367  0.63251581  1  0.077636  0  0.091782  0.139441  0  1.035175  0
H  H10  1  0.10619284  0.78449125  0.52834186  1  0.110698  0  0.109099  0.140487  0  0.975198  0
H  H11  1  0.21868461  0.90612459  0.31320008  1  0.01968  0  0.090851  0.122241  0  0.998961  0
H  H12  1  0.37072658  0.87560687  0.23427716  1  0.051863  0  0.096059  0.134905  0  0.981263  0
H  H13  1  0.15891753  0.31765725  0.54770430  1  0.150926  0  0.127703  0.118919  0  1.000972  0
H  H14  1  0.31854225  0.76506486  0.32609585  1  0.064341  0  0.095062  0.144248  0  1.020227  0
H  H15  1  0.30318560  0.45738647  0.89264539  1  0.093054  0  0.099556  0.104863  0  1.00385  0
H  H16  1  0.85162112  0.48154372  0.12661237  1  0.066217  0  0.093493  0.102753  0  0.986087  0
H  H17  1  0.82100114  0.74524836  0.41571579  1  0.08023  0  0.109147  0.092872  0  0.95612  0
H  H18  1  0.06976243  0.73698189  0.37201455  1  0.05635  0  0.108718  0.129172  0  0.980041  0
H  H19  1  0.61006908  0.07553541  0.47984594  1  0.05733  0  0.101948  0.119091  0  1.004492  0
H  H20  1  0.51979603  0.91567050  0.58821712  1  0.056863  0  0.104951  0.126196  0  1.005131  0
H  H21  1  0.31185915  0.46629086  0.11943830  1  0.100752  0  0.099952  0.106881  0  1.004783  0
H  H22  1  0.79903088  0.64017955  0.12999147  1  0.061388  0  0.091832  0.097532  0  0.990704  0
H  H23  1  0.79220788  0.62436349  0.90035091  1  0.066952  0  0.093551  0.101958  0  0.987491  0
C  C24  1  0.51050081  0.48383787  0.74276238  1  1.548491  0  0.21405  0.600443  0  4.180649  0
C  C25  1  0.08890579  0.39745333  0.53541332  1  0.428178  0  0.055785  -0.022323  0  3.832181  0
C  C26  1  0.94902235  0.39340643  0.54899267  1  0.485584  0  0.135903  0.2792  0  3.904868  0
C  C27  1  0.46648450  0.73071661  0.52698579  1  1.566403  0  0.212789  0.647708  0  4.180983  0
C  C28  1  0.91922934  0.59120065  0.50925800  1  0.521347  0  0.142163  0.158625  0  3.853204  0
C  C29  1  0.89027716  0.72616493  0.49318821  1  0.043606  0  -0.06687  0.018349  0  3.816896  0
C  C30  1  0.04736116  0.72401615  0.46626489  1  -0.029363  0  -0.1436  -0.275392  0  3.825049  0
C  C31  1  0.52333614  0.50536008  0.27615055  1  1.543172  0  0.213373  0.597555  0  4.177724  0
C  C32  1  0.49756318  0.25504858  0.47113408  1  1.579562  0  0.20638  0.637376  0  4.184696  0
C  C33  1  0.40275457  0.05528622  0.42938916  1  -0.008235  0  -0.075776  -0.077916  0  3.976914  0
C  C34  1  0.50959302  0.12002723  0.46143565  1  -0.08302  0  -0.104309  -0.248414  0  3.937614  0
C  C35  1  0.51266917  0.49050823  0.87829525  1  -0.041374  0  -0.016572  -0.074271  0  3.97892  0
C  C36  1  0.39984286  0.92309161  0.42608254  1  -0.116777  0  -0.006529  0.190378  0  3.995621  0
C  C37  1  0.46320473  0.86389246  0.51685433  1  0.05914  0  -0.097777  -0.302963  0  3.847036  0
C  C38  1  0.62964168  0.51370677  0.94807225  1  0.07675  0  -0.007503  0.058311  0  3.894532  0
C  C39  1  0.89479881  0.28032102  0.58337657  1  -0.066514  0  -0.235162  -0.4671  0  3.939641  0
C  C40  1  0.84938340  0.80621060  0.60859491  1  -0.059008  0  -0.241692  -0.388872  0  3.947574  0
C  C41  1  0.32279921  0.86273622  0.31980355  1  -0.053488  0  -0.238025  -0.417727  0  3.958415  0
C  C42  1  0.39722737  0.47482281  0.94381838  1  -0.078925  0  -0.09079  -0.107343  0  4.001128  0
C  C43  1  0.40179026  0.48051178  0.07075742  1  -0.01474  0  -0.090759  -0.107005  0  3.994823  0
C  C44  1  0.52125764  0.50334565  0.14074609  1  -0.012959  0  -0.016125  -0.075267  0  3.973794  0
C  C45  1  0.63401612  0.52092434  0.07523945  1  -0.07003  0  -0.007927  0.057501  0  3.886645  0
C  C46  1  0.78143361  0.54949279  0.08521185  1  -0.037938  0  -0.154015  -0.197083  0  3.891594  0
C  C47  1  0.77640065  0.54020735  0.94113395  1  -0.082177  0  -0.154913  -0.196832  0  3.896096  0
C  C48  1  0.05790593  0.59286090  0.49382384  1  0.553805  0  0.139234  0.189438  0  3.904619  0
N  N49  1  0.14608957  0.49686905  0.50538262  1  -1.213026  0  -0.289042  -0.176591  0  3.480498  0
N  N50  1  0.86012653  0.49300392  0.53256459  1  -1.200377  0  -0.281216  -0.239461  0  3.371402  0
O  O51  1  0.62642054  0.47517330  0.69452494  1  -1.165932  0  -0.317512  -0.552136  0  2.339248  0
O  O52  1  0.39592751  0.48805588  0.68604002  1  -1.167054  0  -0.320292  -0.554229  0  2.321152  0
O  O53  1  0.58331962  0.67536499  0.54232756  1  -1.173201  0  -0.31098  -0.555039  0  2.311519  0
O  O54  1  0.35411836  0.68244662  0.52078932  1  -1.165066  0  -0.312524  -0.544026  0  2.317222  0
O  O55  1  0.63889123  0.50826545  0.33204455  1  -1.156774  0  -0.320782  -0.547212  0  2.28903  0
O  O56  1  0.40959937  0.50341254  0.32535596  1  -1.175415  0  -0.319505  -0.557899  0  2.3447  0
O  O57  1  0.60808522  0.30687018  0.47513798  1  -1.17536  0  -0.317802  -0.562461  0  2.313369  0
O  O58  1  0.37869626  0.30959614  0.47596096  1  -1.182873  0  -0.323088  -0.560462  0  2.33053  0
