# generated using pymatgen
data_ZnH8C6(IN)2
_symmetry_space_group_name_H-M   'P 1'
_cell_length_a   6.69089322
_cell_length_b   8.94058043
_cell_length_c   9.97795911
_cell_angle_alpha   112.17763532
_cell_angle_beta   90.02929939
_cell_angle_gamma   111.93838833
_symmetry_Int_Tables_number   1
_chemical_formula_structural   ZnH8C6(IN)2
_chemical_formula_sum   'Zn2 H16 C12 I4 N4'
_cell_volume   505.69362541
_cell_formula_units_Z   2
loop_
 _symmetry_equiv_pos_site_id
 _symmetry_equiv_pos_as_xyz
  1  'x, y, z'
loop_
 _atom_site_type_symbol
 _atom_site_label
 _atom_site_symmetry_multiplicity
 _atom_site_fract_x
 _atom_site_fract_y
 _atom_site_fract_z
 _atom_site_occupancy
 _atom_site_hle17_bader_spin_density
 _atom_site_hle17_ddec_charge
 _atom_site_hle17_ddec_spin_density
 _atom_site_hle17_ddec_sum_bond_order
 _atom_site_hle17_magmom
 _atom_site_hse06_10hf_bader_spin_density
 _atom_site_hse06_10hf_ddec_charge
 _atom_site_hse06_10hf_ddec_spin_density
 _atom_site_hse06_10hf_ddec_sum_bond_order
 _atom_site_hse06_10hf_magmom
 _atom_site_hse06_bader_spin_density
 _atom_site_hse06_ddec_charge
 _atom_site_hse06_ddec_spin_density
 _atom_site_hse06_ddec_sum_bond_order
 _atom_site_hse06_magmom
 _atom_site_pbe_bader_spin_density
 _atom_site_pbe_cm5_charge
 _atom_site_pbe_ddec_charge
 _atom_site_pbe_ddec_spin_density
 _atom_site_pbe_ddec_sum_bond_order
 _atom_site_pbe_magmom
Zn  Zn0  1  0.13058468  0.99964156  0.74977600  1  0  0.67324  0  2.127457  0  0  0.51508  0  2.565322  0  0  0.557983  0  2.527464  0  0  0.456776  0.485935  0  2.592319  0
Zn  Zn1  1  0.86942290  0.00035582  0.25023668  1  0  0.673224  0  2.127419  0  0  0.515034  0  2.565301  0  0  0.557936  0  2.527455  0  0  0.456772  0.485888  0  2.5923  0
H  H2  1  0.16676878  0.74792251  0.46937162  1  0  0.088762  0  0.971514  0  0  0.095861  0  1.038948  0  0  0.098942  0  1.036735  0  0  0.106317  0.093103  0  1.041833  0
H  H3  1  0.41799891  0.25171789  0.03016648  1  0  0.088494  0  0.971303  0  0  0.095522  0  1.038819  0  0  0.098581  0  1.036665  0  0  0.106708  0.092849  0  1.041571  0
H  H4  1  0.83321432  0.25208276  0.53062066  1  0  0.088689  0  0.9715  0  0  0.095865  0  1.038861  0  0  0.099013  0  1.036579  0  0  0.106341  0.093101  0  1.041751  0
H  H5  1  0.58197791  0.74829271  0.96985566  1  0  0.088519  0  0.971326  0  0  0.095538  0  1.038816  0  0  0.098592  0  1.036665  0  0  0.106724  0.092865  0  1.041576  0
H  H6  1  0.44064290  0.36376373  0.73416983  1  0  0.119925  0  0.98221  0  0  0.138102  0  1.049419  0  0  0.139643  0  1.048866  0  0  0.081658  0.136619  0  1.050641  0
H  H7  1  0.07791736  0.63556537  0.76596865  1  0  0.120284  0  0.981404  0  0  0.138584  0  1.048545  0  0  0.14015  0  1.04797  0  0  0.081932  0.137091  0  1.049753  0
H  H8  1  0.55935736  0.63623098  0.26582892  1  0  0.119868  0  0.98207  0  0  0.138045  0  1.049315  0  0  0.139581  0  1.048767  0  0  0.08163  0.136562  0  1.050535  0
H  H9  1  0.92204922  0.36441877  0.23402052  1  0  0.120428  0  0.981805  0  0  0.138792  0  1.04881  0  0  0.140348  0  1.048244  0  0  0.081998  0.1373  0  1.050019  0
H  H10  1  0.72745113  0.43227428  0.73476043  1  0  0.123527  0  0.970392  0  0  0.142772  0  1.03327  0  0  0.144958  0  1.032177  0  0  0.083835  0.140953  0  1.034437  0
H  H11  1  0.29692579  0.56772083  0.76502190  1  0  0.124083  0  0.968943  0  0  0.142887  0  1.032312  0  0  0.145073  0  1.031214  0  0  0.084193  0.141092  0  1.033446  0
H  H12  1  0.27254350  0.56771515  0.26523553  1  0  0.123434  0  0.970385  0  0  0.142709  0  1.033246  0  0  0.144903  0  1.032142  0  0  0.083816  0.140877  0  1.034422  0
H  H13  1  0.70310918  0.43226858  0.23496906  1  0  0.124089  0  0.969018  0  0  0.142936  0  1.032329  0  0  0.145116  0  1.031236  0  0  0.084258  0.141146  0  1.033462  0
H  H14  1  0.60067239  0.32367713  0.84752028  1  0  0.118661  0  0.975146  0  0  0.136137  0  1.044578  0  0  0.137175  0  1.04486  0  0  0.082705  0.135344  0  1.044257  0
H  H15  1  0.27729015  0.67617638  0.65240731  1  0  0.118579  0  0.975014  0  0  0.136224  0  1.044425  0  0  0.137216  0  1.044753  0  0  0.082584  0.135441  0  1.044086  0
H  H16  1  0.39932650  0.67632682  0.15247858  1  0  0.118614  0  0.975059  0  0  0.136088  0  1.044532  0  0  0.13712  0  1.044814  0  0  0.082697  0.135297  0  1.044201  0
H  H17  1  0.72274123  0.32383278  0.34756124  1  0  0.118534  0  0.975436  0  0  0.13627  0  1.044694  0  0  0.137259  0  1.045023  0  0  0.08265  0.135489  0  1.044355  0
C  C18  1  0.53786148  0.15577438  0.61775049  1  0  0.286916  0  3.69106  0  0  0.288505  0  3.941745  0  0  0.294717  0  3.960396  0  0  0.128306  0.284161  0  3.928849  0
C  C19  1  0.38259921  0.84416901  0.88222137  1  0  0.287416  0  3.6896  0  0  0.289983  0  3.939332  0  0  0.296203  0  3.957961  0  0  0.128794  0.285643  0  3.926442  0
C  C20  1  0.46212996  0.84422959  0.38225839  1  0  0.286942  0  3.691335  0  0  0.288498  0  3.941985  0  0  0.294712  0  3.960626  0  0  0.128202  0.284153  0  3.929087  0
C  C21  1  0.61744689  0.15587855  0.11781827  1  0  0.287728  0  3.688065  0  0  0.290187  0  3.938049  0  0  0.296403  0  3.956679  0  0  0.128751  0.285848  0  3.925154  0
C  C22  1  0.31795194  0.86061400  0.48294777  1  0  0.038725  0  3.637896  0  0  -0.000387  0  3.890228  0  0  0.002815  0  3.905572  0  0  0.051651  -0.003139  0  3.880973  0
C  C23  1  0.45696359  0.13920537  0.01677548  1  0  0.038828  0  3.636772  0  0  8.1e-05  0  3.889334  0  0  0.00328  0  3.904698  0  0  0.051139  -0.002705  0  3.880017  0
C  C24  1  0.68203139  0.13937674  0.51704263  1  0  0.038933  0  3.637807  0  0  -0.000268  0  3.890145  0  0  0.002886  0  3.905453  0  0  0.051669  -0.003018  0  3.880897  0
C  C25  1  0.54299225  0.86076028  0.98320545  1  0  0.03903  0  3.637676  0  0  0.000294  0  3.890171  0  0  0.003488  0  3.905533  0  0  0.051064  -0.00249  0  3.880857  0
C  C26  1  0.57974839  0.32827353  0.74028790  1  0  -0.39501  0  3.748093  0  0  -0.477308  0  3.978631  0  0  -0.480801  0  3.98676  0  0  -0.2556  -0.474233  0  3.972264  0
C  C27  1  0.25250878  0.67157402  0.75970044  1  0  -0.396197  0  3.747939  0  0  -0.4786  0  3.978184  0  0  -0.482017  0  3.986205  0  0  -0.25612  -0.475575  0  3.971952  0
C  C28  1  0.42025246  0.67174629  0.25972733  1  0  -0.394818  0  3.747998  0  0  -0.4771  0  3.978472  0  0  -0.480586  0  3.986605  0  0  -0.255445  -0.474012  0  3.972111  0
C  C29  1  0.74756800  0.32848408  0.24033473  1  0  -0.396245  0  3.748764  0  0  -0.478879  0  3.979073  0  0  -0.482275  0  3.987092  0  0  -0.256354  -0.475868  0  3.972856  0
I  I30  1  0.78029550  0.72571752  0.60945455  1  0  -0.431345  0  1.111562  0  0  -0.373027  0  1.439349  0  0  -0.39274  0  1.419951  0  0  -0.202677  -0.358078  0  1.456281  0
I  I31  1  0.05313491  0.27310123  0.89015887  1  0  -0.43161  0  1.110665  0  0  -0.373562  0  1.438291  0  0  -0.393305  0  1.419012  0  0  -0.20314  -0.3586  0  1.455115  0
I  I32  1  0.21970045  0.27427456  0.39054832  1  0  -0.431292  0  1.111566  0  0  -0.372989  0  1.43939  0  0  -0.392708  0  1.420001  0  0  -0.202666  -0.358044  0  1.456323  0
I  I33  1  0.94685391  0.72688556  0.10983119  1  0  -0.431608  0  1.110573  0  0  -0.373571  0  1.438223  0  0  -0.393291  0  1.418905  0  0  -0.203157  -0.358602  0  1.455038  0
N  N34  1  0.35479904  0.01189889  0.59881662  1  0  -0.286879  0  3.239312  0  0  -0.208004  0  3.496558  0  0  -0.223518  0  3.512751  0  0  -0.304397  -0.197525  0  3.486356  0
N  N35  1  0.34297055  0.98784362  0.90085995  1  0  -0.286664  0  3.237812  0  0  -0.209081  0  3.496045  0  0  -0.224599  0  3.512204  0  0  -0.304678  -0.198606  0  3.485886  0
N  N36  1  0.64519242  0.98809317  0.40117422  1  0  -0.286979  0  3.239394  0  0  -0.208001  0  3.496514  0  0  -0.223522  0  3.512733  0  0  -0.304432  -0.197522  0  3.486314  0
N  N37  1  0.65700177  0.01211014  0.09910794  1  0  -0.286824  0  3.237282  0  0  -0.209216  0  3.495527  0  0  -0.224732  0  3.511695  0  0  -0.304506  -0.198738  0  3.485363  0
