# generated using pymatgen
data_HgHC2S2N2Cl
_symmetry_space_group_name_H-M   'P 1'
_cell_length_a   7.52969983
_cell_length_b   9.19601187
_cell_length_c   9.66727206
_cell_angle_alpha   90.00010209
_cell_angle_beta   89.99990423
_cell_angle_gamma   104.96971504
_symmetry_Int_Tables_number   1
_chemical_formula_structural   HgHC2S2N2Cl
_chemical_formula_sum   'Hg4 H4 C8 S8 N8 Cl4'
_cell_volume   646.67541435
_cell_formula_units_Z   4
loop_
 _symmetry_equiv_pos_site_id
 _symmetry_equiv_pos_as_xyz
  1  'x, y, z'
loop_
 _atom_site_type_symbol
 _atom_site_label
 _atom_site_symmetry_multiplicity
 _atom_site_fract_x
 _atom_site_fract_y
 _atom_site_fract_z
 _atom_site_occupancy
 _atom_site_hle17_bader_spin_density
 _atom_site_hle17_ddec_charge
 _atom_site_hle17_ddec_spin_density
 _atom_site_hle17_ddec_sum_bond_order
 _atom_site_hle17_magmom
 _atom_site_hse06_10hf_bader_spin_density
 _atom_site_hse06_10hf_ddec_charge
 _atom_site_hse06_10hf_ddec_spin_density
 _atom_site_hse06_10hf_ddec_sum_bond_order
 _atom_site_hse06_10hf_magmom
 _atom_site_hse06_bader_spin_density
 _atom_site_hse06_ddec_charge
 _atom_site_hse06_ddec_spin_density
 _atom_site_hse06_ddec_sum_bond_order
 _atom_site_hse06_magmom
 _atom_site_pbe_bader_spin_density
 _atom_site_pbe_cm5_charge
 _atom_site_pbe_ddec_charge
 _atom_site_pbe_ddec_spin_density
 _atom_site_pbe_ddec_sum_bond_order
 _atom_site_pbe_magmom
Hg  Hg0  1  0.16684252  0.84506997  0.23685748  1  0  0.651223  0  2.108185  0  0  0.512566  0  2.602613  0  0  0.555616  0  2.573725  0  0  0.472969  0.483114  0  2.622023  0
Hg  Hg1  1  0.33315100  0.15492336  0.73685824  1  0  0.651205  0  2.108295  0  0  0.51253  0  2.602756  0  0  0.555583  0  2.573867  0  0  0.472955  0.483083  0  2.622164  0
Hg  Hg2  1  0.83315727  0.15493344  0.76314247  1  0  0.651199  0  2.108412  0  0  0.512533  0  2.602873  0  0  0.555585  0  2.573981  0  0  0.472971  0.483085  0  2.622283  0
Hg  Hg3  1  0.66684655  0.84507330  0.26314171  1  0  0.651193  0  2.108313  0  0  0.512522  0  2.602766  0  0  0.555577  0  2.573875  0  0  0.472956  0.483072  0  2.622173  0
H  H4  1  0.67578031  0.44094031  0.97460991  1  0  0.132133  0  0.939121  0  0  0.138906  0  1.002427  0  0  0.141338  0  1.000566  0  0  0.117141  0.137118  0  1.003854  0
H  H5  1  0.82422169  0.55905435  0.47460847  1  0  0.132101  0  0.939088  0  0  0.13886  0  1.002414  0  0  0.141291  0  1.000554  0  0  0.117148  0.137075  0  1.003841  0
H  H6  1  0.32422460  0.55905852  0.02539107  1  0  0.132102  0  0.939109  0  0  0.138862  0  1.002427  0  0  0.141294  0  1.000566  0  0  0.117141  0.137074  0  1.003855  0
H  H7  1  0.17578209  0.44094110  0.52539045  1  0  0.132096  0  0.939175  0  0  0.13884  0  1.002521  0  0  0.141272  0  1.000659  0  0  0.117124  0.137054  0  1.003947  0
C  C8  1  0.46442071  0.15520623  0.19933423  1  0  0.098018  0  3.854214  0  0  0.092515  0  4.156303  0  0  0.105009  0  4.173695  0  0  0.095706  0.084016  0  4.144464  0
C  C9  1  0.03557684  0.84478699  0.69932412  1  0  0.097915  0  3.854471  0  0  0.092442  0  4.1565  0  0  0.104937  0  4.173887  0  0  0.09574  0.083943  0  4.144662  0
C  C10  1  0.53558040  0.84479717  0.80066986  1  0  0.097922  0  3.854333  0  0  0.092464  0  4.156372  0  0  0.10496  0  4.173757  0  0  0.095717  0.083967  0  4.14453  0
C  C11  1  0.96443336  0.15521177  0.30065928  1  0  0.098158  0  3.853837  0  0  0.092569  0  4.156026  0  0  0.105066  0  4.173416  0  0  0.095662  0.08407  0  4.144187  0
C  C12  1  0.59799693  0.34550407  0.03442118  1  0  0.003947  0  3.650873  0  0  -0.035052  0  3.942906  0  0  -0.025714  0  3.954443  0  0  0.040011  -0.041224  0  3.935052  0
C  C13  1  0.90199330  0.65449232  0.53442475  1  0  0.004016  0  3.650795  0  0  -0.03498  0  3.942851  0  0  -0.025636  0  3.954384  0  0  0.039978  -0.041158  0  3.935005  0
C  C14  1  0.40199702  0.65449377  0.96557463  1  0  0.004044  0  3.650416  0  0  -0.034955  0  3.942486  0  0  -0.025613  0  3.95402  0  0  0.040015  -0.041129  0  3.934639  0
C  C15  1  0.09801216  0.34551216  0.46557624  1  0  0.003957  0  3.650307  0  0  -0.035038  0  3.942376  0  0  -0.025698  0  3.95391  0  0  0.039982  -0.041214  0  3.934529  0
S  S16  1  0.40242050  0.04091890  0.34260624  1  0  -0.19575  0  2.385199  0  0  -0.16212  0  2.784558  0  0  -0.18362  0  2.782239  0  0  -0.10775  -0.147718  0  2.786183  0
S  S17  1  0.09757191  0.95907574  0.84261072  1  0  -0.195765  0  2.384973  0  0  -0.162126  0  2.784286  0  0  -0.183635  0  2.78198  0  0  -0.107759  -0.147723  0  2.785912  0
S  S18  1  0.59757890  0.95909130  0.65739061  1  0  -0.195744  0  2.385097  0  0  -0.162101  0  2.784392  0  0  -0.183607  0  2.782083  0  0  -0.107754  -0.147699  0  2.786019  0
S  S19  1  0.90242676  0.04092430  0.15739440  1  0  -0.19573  0  2.385242  0  0  -0.162033  0  2.784581  0  0  -0.183544  0  2.78228  0  0  -0.107712  -0.14763  0  2.786203  0
S  S20  1  0.63018131  0.32655540  0.20864713  1  0  0.166412  0  2.563611  0  0  0.170088  0  2.902577  0  0  0.169005  0  2.904489  0  0  0.114757  0.170252  0  2.901651  0
S  S21  1  0.86981206  0.67343557  0.70865698  1  0  0.16644  0  2.56348  0  0  0.170111  0  2.902413  0  0  0.169024  0  2.904327  0  0  0.11477  0.170278  0  2.901493  0
S  S22  1  0.36981299  0.67345147  0.79134041  1  0  0.166462  0  2.563464  0  0  0.17012  0  2.902405  0  0  0.169037  0  2.904318  0  0  0.11477  0.170284  0  2.901482  0
S  S23  1  0.13019550  0.32656323  0.29133987  1  0  0.16648  0  2.563448  0  0  0.170203  0  2.902402  0  0  0.16912  0  2.904318  0  0  0.114852  0.170368  0  2.901477  0
N  N24  1  0.39568292  0.12396081  0.07368143  1  0  -0.23794  0  3.067663  0  0  -0.211457  0  3.350828  0  0  -0.223203  0  3.369691  0  0  -0.235173  -0.203183  0  3.337741  0
N  N25  1  0.10430877  0.87603795  0.57368990  1  0  -0.237845  0  3.067928  0  0  -0.211344  0  3.351  0  0  -0.223087  0  3.36986  0  0  -0.235153  -0.203069  0  3.337913  0
N  N26  1  0.60430818  0.87604046  0.92631645  1  0  -0.237857  0  3.067967  0  0  -0.211368  0  3.351072  0  0  -0.223112  0  3.369935  0  0  -0.235095  -0.203094  0  3.337984  0
N  N27  1  0.89568803  0.12395647  0.42632660  1  0  -0.238184  0  3.067408  0  0  -0.211705  0  3.350636  0  0  -0.223451  0  3.3695  0  0  -0.235191  -0.20343  0  3.337547  0
N  N28  1  0.47323171  0.23288694  0.98098293  1  0  -0.17266  0  3.220758  0  0  -0.116569  0  3.504841  0  0  -0.130436  0  3.524794  0  0  -0.220106  -0.106939  0  3.49083  0
N  N29  1  0.02675348  0.76710688  0.48098532  1  0  -0.172724  0  3.220628  0  0  -0.116641  0  3.504699  0  0  -0.130512  0  3.524651  0  0  -0.220119  -0.107007  0  3.49069  0
N  N30  1  0.52676978  0.76711759  0.01902116  1  0  -0.172762  0  3.220594  0  0  -0.11669  0  3.504715  0  0  -0.13056  0  3.524668  0  0  -0.220188  -0.107058  0  3.490704  0
N  N31  1  0.97323727  0.23288535  0.51902290  1  0  -0.172607  0  3.220575  0  0  -0.116506  0  3.504621  0  0  -0.130373  0  3.524577  0  0  -0.22013  -0.106875  0  3.490608  0
Cl  Cl32  1  0.96807577  0.64203448  0.11736081  1  0  -0.445374  0  1.077933  0  0  -0.388868  0  1.380727  0  0  -0.407977  0  1.36443  0  0  -0.277546  -0.375431  0  1.391649  0
Cl  Cl33  1  0.53191662  0.35795297  0.61735714  1  0  -0.445375  0  1.077947  0  0  -0.38888  0  1.380774  0  0  -0.408003  0  1.364506  0  0  -0.277573  -0.375449  0  1.39171  0
Cl  Cl34  1  0.03192726  0.35795872  0.88263810  1  0  -0.44536  0  1.078028  0  0  -0.388854  0  1.380839  0  0  -0.407971  0  1.364556  0  0  -0.277561  -0.375418  0  1.391762  0
Cl  Cl35  1  0.46807828  0.64204373  0.38264177  1  0  -0.445349  0  1.07796  0  0  -0.388844  0  1.380768  0  0  -0.407963  0  1.364489  0  0  -0.277554  -0.375407  0  1.391692  0
