# generated using pymatgen
data_H4PbC7SN2O3
_symmetry_space_group_name_H-M   'P 1'
_cell_length_a   7.28862638
_cell_length_b   9.30852760
_cell_length_c   13.95951594
_cell_angle_alpha   89.99963706
_cell_angle_beta   89.99999770
_cell_angle_gamma   108.35779665
_symmetry_Int_Tables_number   1
_chemical_formula_structural   H4PbC7SN2O3
_chemical_formula_sum   'H16 Pb4 C28 S4 N8 O12'
_cell_volume   898.90291699
_cell_formula_units_Z   4
loop_
 _symmetry_equiv_pos_site_id
 _symmetry_equiv_pos_as_xyz
  1  'x, y, z'
loop_
 _atom_site_type_symbol
 _atom_site_label
 _atom_site_symmetry_multiplicity
 _atom_site_fract_x
 _atom_site_fract_y
 _atom_site_fract_z
 _atom_site_occupancy
 _atom_site_hle17_bader_spin_density
 _atom_site_hle17_ddec_charge
 _atom_site_hle17_ddec_spin_density
 _atom_site_hle17_ddec_sum_bond_order
 _atom_site_hle17_magmom
 _atom_site_hse06_10hf_bader_spin_density
 _atom_site_hse06_10hf_ddec_charge
 _atom_site_hse06_10hf_ddec_spin_density
 _atom_site_hse06_10hf_ddec_sum_bond_order
 _atom_site_hse06_10hf_magmom
 _atom_site_hse06_bader_spin_density
 _atom_site_hse06_ddec_charge
 _atom_site_hse06_ddec_spin_density
 _atom_site_hse06_ddec_sum_bond_order
 _atom_site_hse06_magmom
 _atom_site_pbe_bader_spin_density
 _atom_site_pbe_cm5_charge
 _atom_site_pbe_ddec_charge
 _atom_site_pbe_ddec_spin_density
 _atom_site_pbe_ddec_sum_bond_order
 _atom_site_pbe_magmom
H  H0  1  0.89308788  0.59091247  0.02883926  1  0  0.1195  0  0.962128  0  0  0.123049  0  1.031569  0  0  0.126735  0  1.030022  0  0  0.105355  0.120362  0  1.032877  0
H  H1  1  0.60692247  0.40908948  0.52884553  1  0  0.119493  0  0.96219  0  0  0.123016  0  1.031632  0  0  0.126701  0  1.030084  0  0  0.105329  0.120329  0  1.032941  0
H  H2  1  0.10691541  0.40908927  0.97115891  1  0  0.119508  0  0.962126  0  0  0.123014  0  1.031613  0  0  0.126698  0  1.030065  0  0  0.105346  0.120326  0  1.032917  0
H  H3  1  0.39308082  0.59091227  0.47115909  1  0  0.119476  0  0.962134  0  0  0.122979  0  1.031632  0  0  0.126664  0  1.030084  0  0  0.10534  0.120301  0  1.032932  0
H  H4  1  0.89513382  0.81144522  0.92358044  1  0  0.129077  0  0.958964  0  0  0.135468  0  1.021596  0  0  0.138485  0  1.019297  0  0  0.130822  0.133212  0  1.023427  0
H  H5  1  0.60486451  0.18855696  0.42358444  1  0  0.128987  0  0.959049  0  0  0.135402  0  1.02168  0  0  0.138418  0  1.019381  0  0  0.130841  0.13315  0  1.023505  0
H  H6  1  0.10486399  0.18855313  0.07641558  1  0  0.129086  0  0.959019  0  0  0.135498  0  1.02164  0  0  0.138515  0  1.019338  0  0  0.130841  0.133238  0  1.023469  0
H  H7  1  0.39514107  0.81144366  0.57642017  1  0  0.12903  0  0.959052  0  0  0.135438  0  1.021674  0  0  0.138455  0  1.019375  0  0  0.130837  0.133181  0  1.023501  0
H  H8  1  0.46920813  0.53832606  0.74765373  1  0  0.122244  0  0.922265  0  0  0.130921  0  0.982147  0  0  0.134157  0  0.979453  0  0  0.131245  0.128569  0  0.984176  0
H  H9  1  0.03077659  0.46167450  0.24765307  1  0  0.122319  0  0.92223  0  0  0.130949  0  0.982134  0  0  0.134185  0  0.97944  0  0  0.131273  0.128594  0  0.984164  0
H  H10  1  0.53078236  0.46167115  0.25234659  1  0  0.12228  0  0.922258  0  0  0.130936  0  0.982142  0  0  0.134171  0  0.979449  0  0  0.131279  0.128582  0  0.984172  0
H  H11  1  0.96921022  0.53832722  0.75234868  1  0  0.122243  0  0.92227  0  0  0.130929  0  0.982154  0  0  0.134164  0  0.979462  0  0  0.131226  0.128576  0  0.98418  0
H  H12  1  0.44583032  0.30660333  0.84730164  1  0  0.109847  0  0.982331  0  0  0.115621  0  1.049742  0  0  0.11878  0  1.048513  0  0  0.103937  0.113342  0  1.05079  0
H  H13  1  0.05415172  0.69340066  0.34729717  1  0  0.10982  0  0.982405  0  0  0.115579  0  1.049826  0  0  0.11873  0  1.048615  0  0  0.10395  0.113303  0  1.050871  0
H  H14  1  0.55416245  0.69339614  0.15269940  1  0  0.109782  0  0.982441  0  0  0.115601  0  1.049795  0  0  0.118754  0  1.04858  0  0  0.103949  0.113324  0  1.050841  0
H  H15  1  0.94583325  0.30660332  0.65270100  1  0  0.10981  0  0.982434  0  0  0.115595  0  1.049823  0  0  0.11875  0  1.048603  0  0  0.103948  0.113318  0  1.050867  0
Pb  Pb16  1  0.57284788  0.04782468  0.15141842  1  0  1.302333  0  1.480815  0  0  1.120377  0  1.894062  0  0  1.17913  0  1.853798  0  0  0.627252  1.078342  0  1.921947  0
Pb  Pb17  1  0.92716384  0.95217708  0.65142458  1  0  1.302275  0  1.48092  0  0  1.12032  0  1.89418  0  0  1.179069  0  1.853918  0  0  0.627234  1.078296  0  1.922069  0
Pb  Pb18  1  0.42716590  0.95218613  0.84857546  1  0  1.302283  0  1.480915  0  0  1.120324  0  1.894177  0  0  1.179077  0  1.853916  0  0  0.627249  1.078294  0  1.922056  0
Pb  Pb19  1  0.07284537  0.04783260  0.34857430  1  0  1.302274  0  1.480859  0  0  1.120317  0  1.894099  0  0  1.179067  0  1.853836  0  0  0.627256  1.078295  0  1.921993  0
C  C20  1  0.65059564  0.29892360  0.01186149  1  0  0.629772  0  3.930609  0  0  0.578635  0  4.222534  0  0  0.613424  0  4.216129  0  0  0.203986  0.555043  0  4.225835  0
C  C21  1  0.84940058  0.70108078  0.51186152  1  0  0.629718  0  3.930821  0  0  0.578515  0  4.22277  0  0  0.613302  0  4.216365  0  0  0.203901  0.554916  0  4.226066  0
C  C22  1  0.34940399  0.70107927  0.98813883  1  0  0.629737  0  3.930824  0  0  0.578578  0  4.222737  0  0  0.613365  0  4.216333  0  0  0.20392  0.554983  0  4.226037  0
C  C23  1  0.15059355  0.29892208  0.48814167  1  0  0.629714  0  3.930673  0  0  0.578593  0  4.222599  0  0  0.613381  0  4.216195  0  0  0.203975  0.555001  0  4.2259  0
C  C24  1  0.66808935  0.43007662  0.94643446  1  0  -0.031964  0  3.738069  0  0  -0.018418  0  3.976265  0  0  -0.020613  0  3.994823  0  0  -0.009444  -0.016905  0  3.96382  0
C  C25  1  0.83191209  0.56992644  0.44643402  1  0  -0.032047  0  3.738158  0  0  -0.018341  0  3.976118  0  0  -0.020532  0  3.994671  0  0  -0.009456  -0.016824  0  3.963674  0
C  C26  1  0.33191119  0.56992512  0.05356514  1  0  -0.03199  0  3.738243  0  0  -0.018337  0  3.976266  0  0  -0.020529  0  3.994818  0  0  -0.009444  -0.016821  0  3.963823  0
C  C27  1  0.16808524  0.43007756  0.55356487  1  0  -0.031893  0  3.738088  0  0  -0.018392  0  3.976315  0  0  -0.020586  0  3.994869  0  0  -0.009414  -0.016875  0  3.963875  0
C  C28  1  0.79742442  0.57324879  0.96705450  1  0  -0.078195  0  3.69978  0  0  -0.099308  0  3.952676  0  0  -0.102319  0  3.970376  0  0  -0.068381  -0.097566  0  3.941014  0
C  C29  1  0.70256915  0.42675517  0.46705609  1  0  -0.078102  0  3.699966  0  0  -0.099173  0  3.952725  0  0  -0.102194  0  3.970445  0  0  -0.068342  -0.097429  0  3.941063  0
C  C30  1  0.20257063  0.42675295  0.03294367  1  0  -0.078178  0  3.699805  0  0  -0.099234  0  3.952593  0  0  -0.102261  0  3.970328  0  0  -0.06839  -0.097487  0  3.94093  0
C  C31  1  0.29742772  0.57324770  0.53294566  1  0  -0.078182  0  3.699812  0  0  -0.099225  0  3.95267  0  0  -0.102247  0  3.9704  0  0  -0.068388  -0.097488  0  3.941  0
C  C32  1  0.80076747  0.69655948  0.91120776  1  0  0.0289  0  3.532343  0  0  -0.013303  0  3.79427  0  0  -0.006509  0  3.804856  0  0  0.048181  -0.017648  0  3.787341  0
C  C33  1  0.69923274  0.30344057  0.41121271  1  0  0.028846  0  3.532519  0  0  -0.013424  0  3.794494  0  0  -0.006632  0  3.805078  0  0  0.04811  -0.017765  0  3.787564  0
C  C34  1  0.19922944  0.30343660  0.08878826  1  0  0.028816  0  3.532368  0  0  -0.013458  0  3.794347  0  0  -0.006666  0  3.804928  0  0  0.048128  -0.017796  0  3.787413  0
C  C35  1  0.30077329  0.69656118  0.58879119  1  0  0.028923  0  3.532375  0  0  -0.013293  0  3.79429  0  0  -0.006501  0  3.804872  0  0  0.048144  -0.017633  0  3.787359  0
C  C36  1  0.55687778  0.54030759  0.81075906  1  0  0.02566  0  3.567576  0  0  -0.014835  0  3.830087  0  0  -0.007878  0  3.840231  0  0  0.045006  -0.01936  0  3.823496  0
C  C37  1  0.94311413  0.45968901  0.31075975  1  0  0.025516  0  3.567637  0  0  -0.014881  0  3.830054  0  0  -0.007923  0  3.840194  0  0  0.044976  -0.019404  0  3.823458  0
C  C38  1  0.44312003  0.45969075  0.18924055  1  0  0.025694  0  3.56745  0  0  -0.014752  0  3.829912  0  0  -0.007794  0  3.840052  0  0  0.045006  -0.019278  0  3.823323  0
C  C39  1  0.05687499  0.54030819  0.68924129  1  0  0.025666  0  3.567601  0  0  -0.014847  0  3.830083  0  0  -0.007891  0  3.840226  0  0  0.045035  -0.019369  0  3.823489  0
C  C40  1  0.54861020  0.41552179  0.86618602  1  0  -0.099538  0  3.743241  0  0  -0.12053  0  3.995023  0  0  -0.124032  0  4.01407  0  0  -0.075339  -0.118476  0  3.982465  0
C  C41  1  0.95137874  0.58447760  0.36618334  1  0  -0.099484  0  3.743356  0  0  -0.12054  0  3.995085  0  0  -0.124042  0  4.014129  0  0  -0.075349  -0.118484  0  3.982525  0
C  C42  1  0.45138029  0.58447541  0.13381359  1  0  -0.09951  0  3.743436  0  0  -0.120583  0  3.995144  0  0  -0.124085  0  4.014189  0  0  -0.075357  -0.11853  0  3.982589  0
C  C43  1  0.04860670  0.41552412  0.63381340  1  0  -0.099544  0  3.743366  0  0  -0.120534  0  3.99517  0  0  -0.124036  0  4.014218  0  0  -0.075353  -0.11848  0  3.982612  0
C  C44  1  0.95836409  0.90285633  0.12940658  1  0  0.276187  0  4.084731  0  0  0.25762  0  4.386947  0  0  0.280138  0  4.402924  0  0  0.148066  0.242339  0  4.375492  0
C  C45  1  0.54165410  0.09715133  0.62940911  1  0  0.27604  0  4.084392  0  0  0.257474  0  4.386617  0  0  0.279997  0  4.4026  0  0  0.148004  0.242196  0  4.375161  0
C  C46  1  0.04164792  0.09713977  0.87059303  1  0  0.275994  0  4.084432  0  0  0.257417  0  4.386664  0  0  0.279935  0  4.402645  0  0  0.147986  0.242139  0  4.375212  0
C  C47  1  0.45835236  0.90285834  0.37059050  1  0  0.276011  0  4.084672  0  0  0.257435  0  4.3869  0  0  0.279953  0  4.402879  0  0  0.148048  0.242158  0  4.375445  0
S  S48  1  0.09159563  0.80227165  0.16374331  1  0  -0.378461  0  2.142004  0  0  -0.340941  0  2.44801  0  0  -0.363808  0  2.448767  0  0  -0.118287  -0.324752  0  2.447203  0
S  S49  1  0.40843473  0.19772649  0.66374535  1  0  -0.378353  0  2.142453  0  0  -0.340831  0  2.448481  0  0  -0.363696  0  2.44924  0  0  -0.118276  -0.324646  0  2.44767  0
S  S50  1  0.90842419  0.19771655  0.83625486  1  0  -0.378431  0  2.142451  0  0  -0.340897  0  2.448473  0  0  -0.36376  0  2.449229  0  0  -0.118333  -0.324716  0  2.447661  0
S  S51  1  0.59158230  0.80227189  0.33625139  1  0  -0.378438  0  2.142007  0  0  -0.340913  0  2.448031  0  0  -0.363781  0  2.448786  0  0  -0.118321  -0.324719  0  2.447229  0
N  N52  1  0.67840623  0.67967820  0.83512279  1  0  0.282504  0  3.692802  0  0  0.332784  0  3.953726  0  0  0.334022  0  3.974357  0  0  -0.105014  0.331313  0  3.93987  0
N  N53  1  0.82158740  0.32032267  0.33512980  1  0  0.282591  0  3.693042  0  0  0.332856  0  3.953944  0  0  0.334096  0  3.974576  0  0  -0.105004  0.331384  0  3.940086  0
N  N54  1  0.32159112  0.32031902  0.16487108  1  0  0.282446  0  3.692829  0  0  0.332719  0  3.953751  0  0  0.333957  0  3.974383  0  0  -0.105061  0.331247  0  3.939896  0
N  N55  1  0.17840812  0.67967680  0.66487482  1  0  0.28245  0  3.692969  0  0  0.33273  0  3.953893  0  0  0.333969  0  3.974527  0  0  -0.105029  0.331259  0  3.940033  0
N  N56  1  0.86376637  0.97983885  0.10492493  1  0  -0.553275  0  2.830412  0  0  -0.496704  0  3.091568  0  0  -0.519064  0  3.099053  0  0  -0.359789  -0.481163  0  3.086204  0
N  N57  1  0.63626339  0.02015665  0.60492345  1  0  -0.553164  0  2.829642  0  0  -0.496604  0  3.090829  0  0  -0.518969  0  3.098318  0  0  -0.359689  -0.481063  0  3.085464  0
N  N58  1  0.13624795  0.02014934  0.89507826  1  0  -0.553083  0  2.829725  0  0  -0.496514  0  3.090919  0  0  -0.518877  0  3.09841  0  0  -0.35966  -0.480979  0  3.085556  0
N  N59  1  0.36375412  0.97983606  0.39507329  1  0  -0.55306  0  2.830202  0  0  -0.496487  0  3.091364  0  0  -0.518846  0  3.098852  0  0  -0.359746  -0.480946  0  3.086  0
O  O60  1  0.74527398  0.32219829  0.08971227  1  0  -0.606169  0  1.929733  0  0  -0.547975  0  2.162365  0  0  -0.575704  0  2.15694  0  0  -0.296602  -0.528435  0  2.165288  0
O  O61  1  0.75472332  0.67780525  0.58971241  1  0  -0.606156  0  1.929764  0  0  -0.547961  0  2.162426  0  0  -0.57569  0  2.157002  0  0  -0.296586  -0.52842  0  2.165366  0
O  O62  1  0.25471646  0.67781249  0.91029092  1  0  -0.606147  0  1.92976  0  0  -0.547954  0  2.162381  0  0  -0.575681  0  2.156954  0  0  -0.296558  -0.528418  0  2.16532  0
O  O63  1  0.24526992  0.32219196  0.41029006  1  0  -0.606174  0  1.929808  0  0  -0.54802  0  2.162493  0  0  -0.575747  0  2.157065  0  0  -0.296646  -0.52848  0  2.165431  0
O  O64  1  0.53280484  0.16856208  0.98942575  1  0  -0.675448  0  2.033376  0  0  -0.596528  0  2.273869  0  0  -0.62987  0  2.26913  0  0  -0.295376  -0.572961  0  2.27614  0
O  O65  1  0.96718225  0.83144277  0.48942135  1  0  -0.675391  0  2.033497  0  0  -0.59647  0  2.273998  0  0  -0.629802  0  2.269251  0  0  -0.295317  -0.572949  0  2.27639  0
O  O66  1  0.46719571  0.83143967  0.01057386  1  0  -0.675456  0  2.033431  0  0  -0.596534  0  2.2739  0  0  -0.629872  0  2.269159  0  0  -0.29537  -0.572981  0  2.276206  0
O  O67  1  0.03280457  0.16855896  0.51057753  1  0  -0.675412  0  2.03336  0  0  -0.596454  0  2.273767  0  0  -0.629792  0  2.269028  0  0  -0.295338  -0.572904  0  2.276086  0
O  O68  1  0.67204070  0.80003316  0.78651986  1  0  -0.602936  0  1.831667  0  0  -0.545905  0  2.079812  0  0  -0.575037  0  2.082379  0  0  -0.215601  -0.525226  0  2.077671  0
O  O69  1  0.82794761  0.19997163  0.28652162  1  0  -0.602908  0  1.831767  0  0  -0.545901  0  2.079959  0  0  -0.575033  0  2.082528  0  0  -0.215595  -0.525219  0  2.077817  0
O  O70  1  0.32795481  0.19996632  0.21347760  1  0  -0.602887  0  1.831708  0  0  -0.545822  0  2.079802  0  0  -0.57495  0  2.082368  0  0  -0.215544  -0.525141  0  2.077662  0
O  O71  1  0.17205476  0.80003125  0.71347941  1  0  -0.602874  0  1.831753  0  0  -0.545863  0  2.079939  0  0  -0.574994  0  2.082508  0  0  -0.215581  -0.525179  0  2.077791  0
