# generated using pymatgen
data_CuH12C6(BrN4)2
_symmetry_space_group_name_H-M   'P 1'
_cell_length_a   6.91140266
_cell_length_b   7.60079730
_cell_length_c   12.31003958
_cell_angle_alpha   102.13394470
_cell_angle_beta   89.99930048
_cell_angle_gamma   89.99992555
_symmetry_Int_Tables_number   1
_chemical_formula_structural   CuH12C6(BrN4)2
_chemical_formula_sum   'Cu2 H24 C12 Br4 N16'
_cell_volume   632.22569632
_cell_formula_units_Z   2
loop_
 _symmetry_equiv_pos_site_id
 _symmetry_equiv_pos_as_xyz
  1  'x, y, z'
loop_
 _atom_site_type_symbol
 _atom_site_label
 _atom_site_symmetry_multiplicity
 _atom_site_fract_x
 _atom_site_fract_y
 _atom_site_fract_z
 _atom_site_occupancy
 _atom_site_hle17_ddec_charge
 _atom_site_hle17_ddec_spin_density
 _atom_site_hle17_ddec_sum_bond_order
 _atom_site_hle17_magmom
 _atom_site_hse06_10hf_ddec_charge
 _atom_site_hse06_10hf_ddec_spin_density
 _atom_site_hse06_10hf_ddec_sum_bond_order
 _atom_site_hse06_10hf_magmom
 _atom_site_hse06_ddec_charge
 _atom_site_hse06_ddec_spin_density
 _atom_site_hse06_ddec_sum_bond_order
 _atom_site_hse06_magmom
 _atom_site_pbe_cm5_charge
 _atom_site_pbe_ddec_charge
 _atom_site_pbe_ddec_spin_density
 _atom_site_pbe_ddec_sum_bond_order
 _atom_site_pbe_magmom
Cu  Cu0  1  0.00000645  0.00000084  0.99999770  1  0.662198  -0.532917  1.942988  -0.385  0.658581  -0.662059  2.32066  -0.514  0.758751  -0.766468  2.237446  -0.614  0.547144  0.607442  -0.584269  2.369813  -0.447
Cu  Cu1  1  0.49999237  0.50001383  0.99999911  1  0.662183  0.532919  1.943113  0.385  0.658633  0.662063  2.320769  0.514  0.758757  0.766498  2.237531  0.614  0.54718  0.607468  0.584269  2.369909  0.446
H  H2  1  0.54105388  0.98631550  0.62288282  1  0.075007  -5.5e-05  0.91477  0.0  0.091516  -3.2e-05  0.975587  0.0  0.091339  -2.7e-05  0.976089  0.0  0.1121  0.091566  -3.2e-05  0.975296  0.0
H  H3  1  0.04097655  0.51369802  0.37714557  1  0.075041  5.7e-05  0.914521  0.0  0.091484  3.2e-05  0.975374  0.0  0.091312  2.7e-05  0.975866  0.0  0.112138  0.091535  3.2e-05  0.975086  0.0
H  H4  1  0.45896782  0.01368563  0.37712729  1  0.075001  -5.7e-05  0.914694  0.0  0.091484  -3.2e-05  0.975497  0.0  0.091299  -2.7e-05  0.975994  0.0  0.112114  0.091533  -3.2e-05  0.975206  0.0
H  H5  1  0.95898438  0.48630040  0.62286580  1  0.075007  5.4e-05  0.91469  0.0  0.091473  3.2e-05  0.975499  0.0  0.091297  2.7e-05  0.975993  0.0  0.112069  0.091529  3.2e-05  0.975209  0.0
H  H6  1  0.66247817  0.92395722  0.73642564  1  0.086193  0.000553  0.958083  0.0  0.099177  0.000416  1.028833  0.0  0.101659  0.000344  1.026237  0.0  0.103332  0.097357  0.000436  1.030632  0.0
H  H7  1  0.16245085  0.57600901  0.26359076  1  0.086055  -0.000551  0.95771  0.0  0.098957  -0.000416  1.028582  0.0  0.101462  -0.000344  1.025955  0.0  0.103192  0.097135  -0.000436  1.030384  0.0
H  H8  1  0.33753340  0.07602375  0.26357854  1  0.086113  0.000551  0.957935  0.0  0.09904  0.000416  1.028731  0.0  0.101524  0.000344  1.026132  0.0  0.103271  0.097215  0.000436  1.030532  0.0
H  H9  1  0.83753178  0.42396789  0.73641613  1  0.086199  -0.000553  0.957891  0.0  0.099104  -0.000416  1.028699  0.0  0.101598  -0.000344  1.026088  0.0  0.103302  0.09728  -0.000436  1.030504  0.0
H  H10  1  0.72933956  0.70085482  0.56009704  1  0.108855  -5.1e-05  0.950319  0.0  0.131473  -4.6e-05  1.010451  0.0  0.132601  -3.4e-05  1.010439  0.0  0.092616  0.130576  -5.1e-05  1.010556  0.0
H  H11  1  0.22930906  0.79913572  0.43989939  1  0.108955  5.2e-05  0.950379  0.0  0.131555  4.6e-05  1.010498  0.0  0.132671  3.4e-05  1.010502  0.0  0.092604  0.130659  5.1e-05  1.010602  0.0
H  H12  1  0.27067346  0.29913973  0.43989676  1  0.108889  -5.6e-05  0.950427  0.0  0.131548  -4.6e-05  1.010486  0.0  0.132657  -3.4e-05  1.010497  0.0  0.092611  0.13065  -5.1e-05  1.010592  0.0
H  H13  1  0.77068081  0.20084664  0.56010010  1  0.108896  5e-05  0.950516  0.0  0.131538  4.6e-05  1.010587  0.0  0.13264  3.4e-05  1.010608  0.0  0.092617  0.130642  5.1e-05  1.010693  0.0
H  H14  1  0.47885526  0.65710563  0.53900818  1  0.102413  -1.8e-05  0.966512  0.0  0.121012  -2.7e-05  1.033461  0.0  0.122147  -1.8e-05  1.033618  0.0  0.088702  0.120118  -3.1e-05  1.033438  0.0
H  H15  1  0.97883968  0.84291799  0.46099988  1  0.10249  1.9e-05  0.966481  0.0  0.121028  2.7e-05  1.033473  0.0  0.122161  1.8e-05  1.033616  0.0  0.088699  0.120134  3.1e-05  1.033456  0.0
H  H16  1  0.52114908  0.34290368  0.46099164  1  0.102423  -2e-05  0.96655  0.0  0.121021  -2.7e-05  1.033495  0.0  0.122154  -1.8e-05  1.033653  0.0  0.088689  0.120128  -3.1e-05  1.033471  0.0
H  H17  1  0.02115598  0.15708994  0.53900301  1  0.102435  1.7e-05  0.966481  0.0  0.120967  2.7e-05  1.033505  0.0  0.122097  1.8e-05  1.033654  0.0  0.088674  0.120077  3.1e-05  1.033481  0.0
H  H18  1  0.59790518  0.59761252  0.65496093  1  0.108557  4e-06  0.969162  0.0  0.125069  2.8e-05  1.038652  0.0  0.126433  2.1e-05  1.039141  0.0  0.086794  0.124058  3e-05  1.038304  0.0
H  H19  1  0.09789810  0.90238634  0.34503832  1  0.10856  -2e-06  0.969197  0.0  0.125077  -2.8e-05  1.038664  0.0  0.126441  -2.1e-05  1.039149  0.0  0.086792  0.124068  -3e-05  1.038314  0.0
H  H20  1  0.40209047  0.40237934  0.34503170  1  0.108617  -2e-06  0.969203  0.0  0.125108  2.8e-05  1.03871  0.0  0.126471  2.1e-05  1.039198  0.0  0.086813  0.124093  3e-05  1.038364  0.0
H  H21  1  0.90210479  0.09760410  0.65496225  1  0.108586  -3e-06  0.969088  0.0  0.125091  -2.8e-05  1.038584  0.0  0.126455  -2.1e-05  1.039066  0.0  0.086776  0.124082  -3e-05  1.038234  0.0
H  H22  1  0.43937851  0.01943259  0.90176404  1  0.124989  -8.4e-05  0.96473  0.0  0.131681  -0.000122  1.032695  0.0  0.136052  -0.000104  1.026823  0.0  0.127886  0.128545  -0.000144  1.036568  0.0
H  H23  1  0.93936892  0.48058845  0.09823628  1  0.124848  8.4e-05  0.964994  0.0  0.131617  0.000122  1.03291  0.0  0.135988  0.000104  1.027033  0.0  0.127908  0.128482  0.000143  1.036781  0.0
H  H24  1  0.56063885  0.98057542  0.09823074  1  0.124895  -8.5e-05  0.964939  0.0  0.131662  -0.000122  1.032835  0.0  0.136032  -0.000104  1.026965  0.0  0.127876  0.128526  -0.000144  1.036706  0.0
H  H25  1  0.06061806  0.51944382  0.90175767  1  0.125054  8.6e-05  0.964654  0.0  0.131728  0.000122  1.032617  0.0  0.1361  0.000104  1.026741  0.0  0.127909  0.128589  0.000144  1.03649  0.0
C  C26  1  0.55026293  0.88300767  0.67306434  1  0.032454  -0.000246  3.628613  0.0  -0.039186  -8.8e-05  3.887649  0.0  -0.03513  -7.3e-05  3.898089  0.0  -0.049979  -0.041575  -0.000121  3.88032  0.0
C  C27  1  0.05021527  0.61700329  0.32694741  1  0.032503  0.000238  3.628125  0.0  -0.038973  9e-05  3.886933  0.0  -0.034954  7.5e-05  3.897439  0.0  -0.049856  -0.041363  0.000121  3.879602  0.0
C  C28  1  0.44975298  0.11698813  0.32693857  1  0.032624  -0.000242  3.628437  0.0  -0.038876  -8.8e-05  3.887321  0.0  -0.034768  -7.4e-05  3.897654  0.0  -0.049897  -0.041275  -0.000121  3.880014  0.0
C  C29  1  0.94976592  0.38299248  0.67305955  1  0.032414  0.000247  3.628694  0.0  -0.039041  9e-05  3.887451  0.0  -0.034981  7.4e-05  3.89788  0.0  -0.04991  -0.041444  0.000121  3.880129  0.0
C  C30  1  0.59030220  0.69758027  0.60258571  1  -0.312358  -8.9e-05  3.699373  0.0  -0.394552  -6.2e-05  3.951986  0.0  -0.397197  -5.5e-05  3.961722  0.0  -0.245683  -0.392387  -6.5e-05  3.945195  0.0
C  C31  1  0.09028275  0.80243605  0.39742079  1  -0.312514  8.4e-05  3.699385  0.0  -0.394672  6.2e-05  3.952026  0.0  -0.39729  5.5e-05  3.961752  0.0  -0.245707  -0.392509  6.5e-05  3.945236  0.0
C  C32  1  0.40970213  0.30241695  0.39741007  1  -0.312579  -7e-05  3.699638  0.0  -0.394857  -6.1e-05  3.952245  0.0  -0.397491  -5.5e-05  3.961993  0.0  -0.245755  -0.392688  -6.5e-05  3.945447  0.0
C  C33  1  0.90971146  0.19756516  0.60258121  1  -0.3124  9.2e-05  3.699452  0.0  -0.394612  6.1e-05  3.95203  0.0  -0.397219  5.4e-05  3.961768  0.0  -0.245647  -0.392447  6.5e-05  3.945237  0.0
C  C34  1  0.33233125  0.95598755  0.84164616  1  0.169371  0.00301  3.607313  0.003  0.092011  0.000223  3.868206  0.0  0.107403  0.001091  3.879407  0.001  0.172872  0.082684  -0.000424  3.860783  -0.001
C  C35  1  0.83231174  0.54402839  0.15834889  1  0.169703  -0.003008  3.607557  -0.003  0.092229  -0.000226  3.868427  0.0  0.107643  -0.001093  3.879606  -0.001  0.172949  0.082891  0.000422  3.861  0.001
C  C36  1  0.66767887  0.04401509  0.15834547  1  0.169443  0.003009  3.607427  0.003  0.092019  0.000226  3.868277  0.0  0.107416  0.001094  3.879481  0.001  0.172886  0.08269  -0.000422  3.860849  -0.001
C  C37  1  0.16767958  0.45598905  0.84164553  1  0.16933  -0.003007  3.607588  -0.003  0.091986  -0.000225  3.868473  0.0  0.10739  -0.001092  3.87966  -0.001  0.172897  0.082661  0.000423  3.861043  0.001
Br  Br38  1  0.21216448  0.80094610  0.08318324  1  -0.472721  -0.16364  1.075399  -0.16  -0.498035  -0.115446  1.410426  -0.117  -0.540239  -0.093426  1.384665  -0.097  -0.24666  -0.473948  -0.123003  1.428376  -0.123
Br  Br39  1  0.71216839  0.69905389  0.91681457  1  -0.472741  0.163659  1.075469  0.16  -0.498062  0.11546  1.410493  0.117  -0.540263  0.093415  1.38473  0.097  -0.246671  -0.473985  0.123019  1.42845  0.123
Br  Br40  1  0.78784999  0.19905517  0.91681146  1  -0.472747  -0.163658  1.075408  -0.16  -0.498053  -0.115459  1.410386  -0.117  -0.540256  -0.093439  1.384626  -0.097  -0.246681  -0.473977  -0.123015  1.428344  -0.123
Br  Br41  1  0.28785620  0.30094597  0.08318725  1  -0.472694  0.163663  1.075382  0.16  -0.497965  0.115459  1.410312  0.117  -0.540166  0.093431  1.384546  0.097  -0.246651  -0.473887  0.12302  1.428269  0.123
N  N42  1  0.14453999  0.93386953  0.85834160  1  -0.252354  -0.052513  3.311906  -0.067  -0.201571  -0.044201  3.626866  -0.059  -0.232572  -0.03988  3.64592  -0.055  -0.259446  -0.185499  -0.044928  3.617195  -0.058
N  N43  1  0.64453958  0.56612278  0.14162721  1  -0.252386  0.052489  3.311756  0.067  -0.201666  0.044192  3.626805  0.059  -0.232646  0.039876  3.645811  0.055  -0.259656  -0.185592  0.044918  3.617122  0.058
N  N44  1  0.85546868  0.06611974  0.14164012  1  -0.25238  -0.052497  3.311912  -0.067  -0.201629  -0.044195  3.6269  -0.059  -0.23263  -0.039877  3.645947  -0.055  -0.259576  -0.185558  -0.044921  3.617229  -0.058
N  N45  1  0.35545463  0.43389075  0.85835287  1  -0.252237  0.052496  3.311913  0.067  -0.201518  0.044194  3.626924  0.059  -0.232501  0.039875  3.645945  0.055  -0.25959  -0.185442  0.044919  3.617238  0.058
N  N46  1  0.06603472  0.85072165  0.75951919  1  -0.038572  0.003488  2.919867  0.003  -0.033846  0.001784  3.224769  0.002  -0.028503  0.001883  3.235351  0.002  -0.072331  -0.036851  0.001582  3.218338  0.001
N  N47  1  0.56602173  0.64928664  0.24048721  1  -0.038635  -0.003487  2.919677  -0.003  -0.033907  -0.001786  3.224589  -0.002  -0.028571  -0.001885  3.235155  -0.002  -0.072189  -0.036909  -0.001585  3.218154  -0.001
N  N48  1  0.93397251  0.14927006  0.24048966  1  -0.038524  0.003489  2.919602  0.003  -0.033772  0.001785  3.224486  0.002  -0.028432  0.001883  3.235064  0.002  -0.072143  -0.036779  0.001582  3.218055  0.001
N  N49  1  0.43397103  0.35072263  0.75951749  1  -0.038703  -0.003498  2.919799  -0.003  -0.033984  -0.001785  3.224742  -0.002  -0.028646  -0.001884  3.235315  -0.002  -0.072256  -0.036988  -0.001583  3.21831  -0.001
N  N50  1  0.20007206  0.82224141  0.68388445  1  -0.09982  -0.00371  2.834354  -0.004  -0.111868  -0.003065  3.109821  -0.004  -0.111015  -0.002189  3.118611  -0.003  -0.0687  -0.112047  -0.003673  3.103656  -0.004
N  N51  1  0.70003851  0.67776793  0.31612443  1  -0.099483  0.003709  2.835596  0.004  -0.111549  0.003058  3.110989  0.004  -0.110666  0.002183  3.119782  0.003  -0.068509  -0.11174  0.003664  3.104823  0.004
N  N52  1  0.79994095  0.17774628  0.31612143  1  -0.099657  -0.003717  2.834797  -0.004  -0.111743  -0.00306  3.110302  -0.004  -0.110883  -0.002186  3.119087  -0.003  -0.068677  -0.111927  -0.003668  3.104138  -0.004
N  N53  1  0.29994123  0.32223054  0.68388208  1  -0.099513  0.003724  2.834911  0.004  -0.111581  0.003062  3.110359  0.004  -0.110712  0.002186  3.119155  0.003  -0.06852  -0.111764  0.003669  3.104193  0.004
N  N54  1  0.36751353  0.88807539  0.73404260  1  0.036905  -0.001642  3.501817  -0.002  0.157847  -0.00102  3.688905  -0.001  0.147661  -0.001053  3.708271  -0.001  -0.115034  0.163725  -0.000975  3.67671  -0.001
N  N55  1  0.86746539  0.61194569  0.26597239  1  0.03647  0.001636  3.502253  0.002  0.157527  0.001022  3.689159  0.001  0.147274  0.001056  3.708624  0.001  -0.115301  0.163407  0.000977  3.676961  0.001
N  N56  1  0.63250961  0.11192444  0.26596247  1  0.036735  -0.001631  3.501709  -0.002  0.157672  -0.001021  3.688722  -0.001  0.147477  -0.001054  3.708095  -0.001  -0.115161  0.163551  -0.000976  3.676522  -0.001
N  N57  1  0.13250856  0.38806486  0.73403816  1  0.036607  0.001629  3.50246  0.002  0.157604  0.00102  3.689347  0.001  0.147369  0.001054  3.708799  0.001  -0.115228  0.163486  0.000976  3.677151  0.001
