# generated using pymatgen
data_CdH18C26(N3O2)2
_symmetry_space_group_name_H-M   'P 1'
_cell_length_a   8.04425351
_cell_length_b   13.12198143
_cell_length_c   13.87682538
_cell_angle_alpha   89.99987880
_cell_angle_beta   90.00015601
_cell_angle_gamma   103.52511362
_symmetry_Int_Tables_number   1
_chemical_formula_structural   CdH18C26(N3O2)2
_chemical_formula_sum   'Cd2 H36 C52 N12 O8'
_cell_volume   1424.16746945
_cell_formula_units_Z   2
loop_
 _symmetry_equiv_pos_site_id
 _symmetry_equiv_pos_as_xyz
  1  'x, y, z'
loop_
 _atom_site_type_symbol
 _atom_site_label
 _atom_site_symmetry_multiplicity
 _atom_site_fract_x
 _atom_site_fract_y
 _atom_site_fract_z
 _atom_site_occupancy
 _atom_site_hle17_bader_spin_density
 _atom_site_hle17_ddec_charge
 _atom_site_hle17_ddec_spin_density
 _atom_site_hle17_ddec_sum_bond_order
 _atom_site_hle17_magmom
 _atom_site_hse06_10hf_bader_spin_density
 _atom_site_hse06_10hf_ddec_charge
 _atom_site_hse06_10hf_ddec_spin_density
 _atom_site_hse06_10hf_ddec_sum_bond_order
 _atom_site_hse06_10hf_magmom
 _atom_site_hse06_bader_spin_density
 _atom_site_hse06_ddec_charge
 _atom_site_hse06_ddec_spin_density
 _atom_site_hse06_ddec_sum_bond_order
 _atom_site_hse06_magmom
 _atom_site_pbe_bader_spin_density
 _atom_site_pbe_cm5_charge
 _atom_site_pbe_ddec_charge
 _atom_site_pbe_ddec_spin_density
 _atom_site_pbe_ddec_sum_bond_order
 _atom_site_pbe_magmom
Cd  Cd0  1  0.00015592  0.99951652  0.82062473  1  0  1.096669  0  1.671271  0  0  0.90064  0  2.118486  0  0  0.958498  0  2.067293  0  0  0.78342  0.859803  0  2.153303  0
Cd  Cd1  1  0.00015691  0.49951584  0.17937626  1  0  1.096632  0  1.671321  0  0  0.900607  0  2.118539  0  0  0.958464  0  2.067346  0  0  0.783424  0.859773  0  2.153362  0
H  H2  1  0.13176870  0.68361219  0.98326682  1  0  0.10078  0  0.969722  0  0  0.105503  0  1.038374  0  0  0.108701  0  1.036542  0  0  0.101383  0.103213  0  1.039721  0
H  H3  1  0.13176872  0.18361099  0.01673430  1  0  0.100788  0  0.969707  0  0  0.105515  0  1.038357  0  0  0.108713  0  1.036524  0  0  0.101387  0.103228  0  1.039701  0
H  H4  1  0.34520739  0.57865265  0.02634722  1  0  0.122498  0  0.965728  0  0  0.129164  0  1.029345  0  0  0.133022  0  1.027134  0  0  0.104702  0.126389  0  1.030988  0
H  H5  1  0.34520880  0.07865302  0.97365444  1  0  0.122506  0  0.965717  0  0  0.129123  0  1.029385  0  0  0.13298  0  1.027174  0  0  0.104696  0.126368  0  1.031002  0
H  H6  1  0.74936158  0.82096837  0.90834729  1  0  0.119987  0  0.973008  0  0  0.12628  0  1.042778  0  0  0.130062  0  1.039586  0  0  0.106339  0.12352  0  1.045215  0
H  H7  1  0.74936249  0.32097176  0.09164947  1  0  0.119971  0  0.973012  0  0  0.126328  0  1.042703  0  0  0.130111  0  1.039511  0  0  0.106352  0.123564  0  1.045139  0
H  H8  1  0.53471362  0.92600533  0.86558292  1  0  0.112856  0  0.957647  0  0  0.118124  0  1.025077  0  0  0.122106  0  1.022068  0  0  0.103164  0.115228  0  1.027353  0
H  H9  1  0.53471564  0.42600786  0.13441402  1  0  0.112876  0  0.957673  0  0  0.118131  0  1.025114  0  0  0.122112  0  1.022105  0  0  0.103172  0.115235  0  1.027395  0
H  H10  1  0.90440839  0.71780230  0.18829162  1  0  0.138318  0  0.959041  0  0  0.154202  0  1.023626  0  0  0.156593  0  1.022309  0  0  0.102279  0.152472  0  1.024598  0
H  H11  1  0.90440729  0.21780137  0.81170704  1  0  0.138304  0  0.959045  0  0  0.154187  0  1.023635  0  0  0.156578  0  1.022318  0  0  0.102263  0.152455  0  1.024605  0
H  H12  1  0.68102944  0.71476253  0.17896655  1  0  0.132599  0  0.925442  0  0  0.15181  0  0.983575  0  0  0.15395  0  0.9827  0  0  0.101612  0.150318  0  0.984169  0
H  H13  1  0.68102898  0.21476315  0.82103105  1  0  0.132592  0  0.925526  0  0  0.151803  0  0.983655  0  0  0.153942  0  0.982779  0  0  0.10161  0.150313  0  0.984243  0
H  H14  1  0.83218213  0.80122001  0.10472698  1  0  0.152964  0  0.926487  0  0  0.169357  0  0.989348  0  0  0.172322  0  0.987397  0  0  0.109155  0.16722  0  0.990773  0
H  H15  1  0.83218352  0.30122129  0.89526996  1  0  0.152968  0  0.926472  0  0  0.169372  0  0.989322  0  0  0.172326  0  0.987379  0  0  0.109167  0.167231  0  0.990753  0
H  H16  1  0.43595564  0.36847346  0.31970206  1  0  0.120105  0  0.929435  0  0  0.130138  0  0.985751  0  0  0.133455  0  0.98408  0  0  0.115471  0.127687  0  0.987103  0
H  H17  1  0.43595381  0.86847045  0.68029916  1  0  0.120101  0  0.929407  0  0  0.130132  0  0.985727  0  0  0.133448  0  0.984056  0  0  0.115451  0.127678  0  0.987079  0
H  H18  1  0.23289122  0.29393901  0.45229066  1  0  0.114519  0  0.930148  0  0  0.128121  0  0.982681  0  0  0.131706  0  0.980632  0  0  0.11369  0.125477  0  0.984338  0
H  H19  1  0.23288946  0.79393778  0.54771040  1  0  0.114489  0  0.930217  0  0  0.1281  0  0.982739  0  0  0.131705  0  0.980666  0  0  0.11367  0.125458  0  0.984398  0
H  H20  1  0.65462625  0.24455251  0.62376614  1  0  0.115547  0  0.929349  0  0  0.129261  0  0.981393  0  0  0.132541  0  0.979989  0  0  0.11391  0.12687  0  0.982521  0
H  H21  1  0.65462594  0.74455392  0.37623496  1  0  0.115488  0  0.929368  0  0  0.129223  0  0.981394  0  0  0.132507  0  0.97999  0  0  0.113886  0.126832  0  0.982531  0
H  H22  1  0.85562576  0.31327299  0.48712907  1  0  0.10253  0  0.938126  0  0  0.112165  0  0.995645  0  0  0.11576  0  0.993252  0  0  0.106982  0.109554  0  0.99743  0
H  H23  1  0.85562445  0.81327339  0.51287365  1  0  0.102531  0  0.938134  0  0  0.112186  0  0.995628  0  0  0.115783  0  0.993233  0  0  0.106982  0.109568  0  0.997414  0
H  H24  1  0.09278879  0.98764546  0.59820003  1  0  0.154133  0  0.97425  0  0  0.17141  0  1.034166  0  0  0.174173  0  1.033007  0  0  0.10598  0.169411  0  1.035003  0
H  H25  1  0.09278726  0.48764521  0.40179970  1  0  0.154126  0  0.974245  0  0  0.171401  0  1.034166  0  0  0.174164  0  1.033006  0  0  0.105973  0.169403  0  1.035006  0
H  H26  1  0.27892363  0.04820347  0.52990163  1  0  0.12905  0  0.938524  0  0  0.148134  0  0.999412  0  0  0.149858  0  0.999258  0  0  0.100959  0.146904  0  0.99952  0
H  H27  1  0.27892339  0.54820394  0.47009927  1  0  0.129046  0  0.938523  0  0  0.148145  0  0.999397  0  0  0.14987  0  0.999241  0  0  0.100966  0.146917  0  0.999507  0
H  H28  1  0.08243434  0.08337572  0.50806287  1  0  0.133455  0  0.917575  0  0  0.155561  0  0.970734  0  0  0.157395  0  0.970441  0  0  0.106323  0.154297  0  0.970901  0
H  H29  1  0.08243295  0.58337616  0.49193764  1  0  0.133473  0  0.917569  0  0  0.155581  0  0.970728  0  0  0.157415  0  0.970434  0  0  0.106336  0.154318  0  0.970899  0
H  H30  1  0.49483690  0.36110409  0.88001975  1  0  0.112437  0  0.954787  0  0  0.119003  0  1.022862  0  0  0.121038  0  1.023759  0  0  0.109417  0.117489  0  1.022364  0
H  H31  1  0.49483681  0.86110278  0.11997942  1  0  0.112457  0  0.954716  0  0  0.119026  0  1.022786  0  0  0.121062  0  1.023681  0  0  0.109428  0.117519  0  1.022283  0
H  H32  1  0.73311236  0.67186605  0.77769507  1  0  0.112432  0  0.937797  0  0  0.121989  0  0.998188  0  0  0.125052  0  0.996497  0  0  0.110495  0.119779  0  0.99943  0
H  H33  1  0.73311010  0.17186610  0.22230125  1  0  0.112419  0  0.937775  0  0  0.121941  0  0.998209  0  0  0.125005  0  0.996517  0  0  0.110475  0.119732  0  0.999455  0
H  H34  1  0.59256948  0.62895178  0.61861395  1  0  0.08628  0  0.979089  0  0  0.093992  0  1.043141  0  0  0.095687  0  1.044474  0  0  0.096092  0.092786  0  1.042313  0
H  H35  1  0.59256941  0.12895234  0.38138296  1  0  0.086322  0  0.979103  0  0  0.094033  0  1.043152  0  0  0.095728  0  1.044485  0  0  0.096119  0.092825  0  1.042317  0
H  H36  1  0.40741549  0.45291243  0.58902508  1  0  0.083022  0  0.97956  0  0  0.093599  0  1.042495  0  0  0.095973  0  1.041716  0  0  0.097218  0.091912  0  1.043041  0
H  H37  1  0.40741719  0.95291221  0.41097377  1  0  0.083037  0  0.979603  0  0  0.093626  0  1.042521  0  0  0.096  0  1.041742  0  0  0.097219  0.09194  0  1.043063  0
C  C38  1  0.19403860  0.87255243  0.89374548  1  0  0.625478  0  3.94185  0  0  0.582573  0  4.220421  0  0  0.616837  0  4.21517  0  0  0.189582  0.559402  0  4.223034  0
C  C39  1  0.19404114  0.37255344  0.10625823  1  0  0.625481  0  3.941654  0  0  0.582583  0  4.220218  0  0  0.616847  0  4.214965  0  0  0.189573  0.559417  0  4.222818  0
C  C40  1  0.32073411  0.81054585  0.92173187  1  0  -0.062569  0  3.756403  0  0  -0.038293  0  3.98201  0  0  -0.046333  0  4.005179  0  0  -0.016825  -0.033162  0  3.966464  0
C  C41  1  0.32073344  0.31054534  0.07826856  1  0  -0.062545  0  3.756338  0  0  -0.038253  0  3.981914  0  0  -0.046296  0  4.005082  0  0  -0.016827  -0.033115  0  3.966362  0
C  C42  1  0.26664224  0.71283192  0.96665359  1  0  -0.046665  0  3.72833  0  0  -0.06868  0  3.97505  0  0  -0.067871  0  3.99412  0  0  -0.079241  -0.069063  0  3.962148  0
C  C43  1  0.26664139  0.21283149  0.03334912  1  0  -0.046728  0  3.728344  0  0  -0.068752  0  3.975062  0  0  -0.06794  0  3.994131  0  0  -0.079275  -0.069142  0  3.962164  0
C  C44  1  0.38459500  0.65403438  0.98967557  1  0  -0.147622  0  3.721175  0  0  -0.167925  0  3.971329  0  0  -0.171921  0  3.990845  0  0  -0.089201  -0.165228  0  3.958153  0
C  C45  1  0.38459560  0.15403476  0.01032672  1  0  -0.147604  0  3.721126  0  0  -0.167849  0  3.971287  0  0  -0.171851  0  3.990799  0  0  -0.089151  -0.165161  0  3.958098  0
C  C46  1  0.55644660  0.69444182  0.96661132  1  0  0.17524  0  3.793009  0  0  0.171994  0  4.039523  0  0  0.176482  0  4.063539  0  0  0.087458  0.169024  0  4.023242  0
C  C47  1  0.55644760  0.19444295  0.03338973  1  0  0.175275  0  3.793017  0  0  0.172009  0  4.039586  0  0  0.176511  0  4.063582  0  0  0.087404  0.169035  0  4.02331  0
C  C48  1  0.61352514  0.79225693  0.92341190  1  0  -0.146533  0  3.739008  0  0  -0.170376  0  3.998442  0  0  -0.174431  0  4.019302  0  0  -0.090015  -0.167634  0  3.984344  0
C  C49  1  0.61352662  0.29225878  0.07658615  1  0  -0.146525  0  3.739018  0  0  -0.170406  0  3.99846  0  0  -0.174468  0  4.019319  0  0  -0.089997  -0.167659  0  3.984365  0
C  C50  1  0.49439958  0.85031195  0.90114729  1  0  -0.063229  0  3.730497  0  0  -0.08919  0  3.985903  0  0  -0.089432  0  4.006793  0  0  -0.086955  -0.088827  0  3.971727  0
C  C51  1  0.49440209  0.35031297  0.09885262  1  0  -0.06329  0  3.730465  0  0  -0.089252  0  3.985888  0  0  -0.089491  0  4.006777  0  0  -0.086957  -0.088891  0  3.971716  0
C  C52  1  0.80114830  0.72324599  0.13861591  1  0  -0.392713  0  3.683259  0  0  -0.468898  0  3.91765  0  0  -0.473141  0  3.921827  0  0  -0.224908  -0.465754  0  3.914617  0
C  C53  1  0.80114831  0.22324733  0.86138258  1  0  -0.392714  0  3.683304  0  0  -0.468906  0  3.917706  0  0  -0.473136  0  3.921889  0  0  -0.224898  -0.465766  0  3.914675  0
C  C54  1  0.78363028  0.64083647  0.06399660  1  0  0.407371  0  3.663069  0  0  0.377887  0  3.933916  0  0  0.395747  0  3.946084  0  0  0.245688  0.36603  0  3.925397  0
C  C55  1  0.78362811  0.14083770  0.93600202  1  0  0.407399  0  3.663038  0  0  0.377921  0  3.933896  0  0  0.395781  0  3.946061  0  0  0.24567  0.366069  0  3.925366  0
C  C56  1  0.70345237  0.54858123  0.93274432  1  0  0.271581  0  3.725765  0  0  0.23845  0  4.003684  0  0  0.251618  0  4.016468  0  0  0.23258  0.2297  0  3.995041  0
C  C57  1  0.70345042  0.04858074  0.06725364  1  0  0.271815  0  3.725339  0  0  0.238508  0  4.003514  0  0  0.251668  0  4.016309  0  0  0.232641  0.229743  0  3.994888  0
C  C58  1  0.78349158  0.39711498  0.32122427  1  0  0.614784  0  3.965199  0  0  0.567703  0  4.255187  0  0  0.601007  0  4.250992  0  0  0.18687  0.545234  0  4.257051  0
C  C59  1  0.78348814  0.89711747  0.67877745  1  0  0.614906  0  3.965123  0  0  0.567778  0  4.255154  0  0  0.601081  0  4.250958  0  0  0.186855  0.545304  0  4.257021  0
C  C60  1  0.65808864  0.34720430  0.39716161  1  0  -0.043627  0  3.737858  0  0  -0.020352  0  3.967641  0  0  -0.026617  0  3.98885  0  0  -0.008729  -0.016454  0  3.953455  0
C  C61  1  0.65808679  0.84720220  0.60284144  1  0  -0.043779  0  3.73819  0  0  -0.020462  0  3.967924  0  0  -0.026725  0  3.989133  0  0  -0.008784  -0.016561  0  3.953723  0
C  C62  1  0.48251449  0.34005804  0.38594494  1  0  -0.047583  0  3.700841  0  0  -0.069787  0  3.94515  0  0  -0.069327  0  3.964381  0  0  -0.070802  -0.06994  0  3.932182  0
C  C63  1  0.48251238  0.84005514  0.61405713  1  0  -0.047482  0  3.701014  0  0  -0.069691  0  3.945303  0  0  -0.069233  0  3.964541  0  0  -0.070716  -0.069839  0  3.932325  0
C  C64  1  0.36949439  0.29857292  0.45987463  1  0  -0.150824  0  3.73967  0  0  -0.173136  0  3.996017  0  0  -0.176988  0  4.015323  0  0  -0.084609  -0.170578  0  3.982993  0
C  C65  1  0.36949135  0.79857171  0.54012591  1  0  -0.150865  0  3.739812  0  0  -0.173185  0  3.996165  0  0  -0.177053  0  4.015468  0  0  -0.084617  -0.170627  0  3.983142  0
C  C66  1  0.43425481  0.26723672  0.54560181  1  0  0.177683  0  3.809644  0  0  0.169884  0  4.067932  0  0  0.175096  0  4.091089  0  0  0.089601  0.1664  0  4.052229  0
C  C67  1  0.43425172  0.76723643  0.45439961  1  0  0.177791  0  3.809732  0  0  0.169957  0  4.06804  0  0  0.175169  0  4.091205  0  0  0.089608  0.166461  0  4.052352  0
C  C68  1  0.60816690  0.27073492  0.55648556  1  0  -0.146845  0  3.752289  0  0  -0.169139  0  4.005965  0  0  -0.172813  0  4.025797  0  0  -0.085496  -0.16668  0  3.992543  0
C  C69  1  0.60816471  0.77073386  0.44351613  1  0  -0.146818  0  3.752282  0  0  -0.169125  0  4.005967  0  0  -0.172805  0  4.025805  0  0  -0.085466  -0.166668  0  3.992554  0
C  C70  1  0.71929243  0.30971089  0.48136612  1  0  -0.063376  0  3.754412  0  0  -0.084014  0  3.999638  0  0  -0.08407  0  4.019243  0  0  -0.079366  -0.083843  0  3.986415  0
C  C71  1  0.71929024  0.80970893  0.51863639  1  0  -0.063346  0  3.754484  0  0  -0.08401  0  3.999692  0  0  -0.084069  0  4.0193  0  0  -0.079372  -0.083829  0  3.986455  0
C  C72  1  0.16276759  0.06092435  0.56469695  1  0  -0.395598  0  3.703472  0  0  -0.472075  0  3.937244  0  0  -0.476709  0  3.943068  0  0  -0.227715  -0.46868  0  3.933053  0
C  C73  1  0.16276567  0.56092409  0.43530374  1  0  -0.395641  0  3.703414  0  0  -0.472136  0  3.937183  0  0  -0.476769  0  3.943004  0  0  -0.22774  -0.468739  0  3.932998  0
C  C74  1  0.20762261  0.14346996  0.63933933  1  0  0.388411  0  3.688084  0  0  0.360383  0  3.96113  0  0  0.376613  0  3.975014  0  0  0.235429  0.349615  0  3.951452  0
C  C75  1  0.20762224  0.64347139  0.36066126  1  0  0.388474  0  3.687986  0  0  0.360437  0  3.961025  0  0  0.376668  0  3.974908  0  0  0.235459  0.349677  0  3.951343  0
C  C76  1  0.33225546  0.29006010  0.71408332  1  0  0.264245  0  3.734927  0  0  0.22974  0  4.012407  0  0  0.243205  0  4.025197  0  0  0.226048  0.220807  0  4.003716  0
C  C77  1  0.33225790  0.79006008  0.28591645  1  0  0.264221  0  3.735118  0  0  0.229773  0  4.012482  0  0  0.243238  0  4.025271  0  0  0.226035  0.22084  0  4.003795  0
C  C78  1  0.44101545  0.39456641  0.73193609  1  0  -0.002105  0  3.815885  0  0  0.018472  0  4.054133  0  0  0.01466  0  4.077277  0  0  -0.006619  0.020822  0  4.038493  0
C  C79  1  0.44101751  0.89456563  0.26806365  1  0  -0.002146  0  3.815975  0  0  0.018423  0  4.054186  0  0  0.014612  0  4.077329  0  0  -0.00663  0.020765  0  4.038555  0
C  C80  1  0.51731283  0.41941609  0.82259663  1  0  -0.098694  0  3.655185  0  0  -0.128807  0  3.894651  0  0  -0.128949  0  3.914583  0  0  -0.069676  -0.128455  0  3.881167  0
C  C81  1  0.51731328  0.91941547  0.17740245  1  0  -0.098697  0  3.65514  0  0  -0.128804  0  3.894572  0  0  -0.128947  0  3.914502  0  0  -0.069638  -0.128455  0  3.881085  0
C  C82  1  0.62101912  0.51950334  0.83898797  1  0  0.012121  0  3.79187  0  0  0.031799  0  4.029092  0  0  0.028467  0  4.051792  0  0  0.001797  0.03382  0  4.013769  0
C  C83  1  0.62101909  0.01950348  0.16101064  1  0  0.012066  0  3.791776  0  0  0.031793  0  4.029026  0  0  0.028464  0  4.051724  0  0  0.001775  0.033824  0  4.013702  0
C  C84  1  0.64903569  0.59488147  0.76515619  1  0  -0.074967  0  3.696326  0  0  -0.101248  0  3.940831  0  0  -0.101015  0  3.9599  0  0  -0.074912  -0.101152  0  3.927831  0
C  C85  1  0.64903502  0.09488227  0.23484159  1  0  -0.07485  0  3.696246  0  0  -0.101087  0  3.940717  0  0  -0.100854  0  3.959784  0  0  -0.074845  -0.100997  0  3.927723  0
C  C86  1  0.57164120  0.57033486  0.67567531  1  0  -0.062838  0  3.786946  0  0  -0.070921  0  4.034965  0  0  -0.074206  0  4.057066  0  0  -0.090402  -0.068841  0  4.019967  0
C  C87  1  0.57164214  0.07033551  0.32432240  1  0  -0.062922  0  3.787107  0  0  -0.071016  0  4.035154  0  0  -0.0743  0  4.057255  0  0  -0.090417  -0.068931  0  4.020144  0
C  C88  1  0.46803974  0.47108288  0.65906995  1  0  -0.094476  0  3.751793  0  0  -0.120001  0  3.996801  0  0  -0.120312  0  4.017407  0  0  -0.088002  -0.119513  0  3.982704  0
C  C89  1  0.46804116  0.97108277  0.34092824  1  0  -0.094497  0  3.751945  0  0  -0.120042  0  3.996972  0  0  -0.120353  0  4.017579  0  0  -0.088046  -0.119546  0  3.982862  0
N  N90  1  0.86716606  0.56471094  0.05791898  1  0  -0.338488  0  3.161401  0  0  -0.269994  0  3.45509  0  0  -0.29075  0  3.469825  0  0  -0.246437  -0.255895  0  3.444791  0
N  N91  1  0.86716206  0.06471059  0.94207920  1  0  -0.338558  0  3.161508  0  0  -0.27005  0  3.455172  0  0  -0.290808  0  3.46991  0  0  -0.24643  -0.255941  0  3.444856  0
N  N92  1  0.81790769  0.50663976  0.97560152  1  0  -0.251738  0  2.905477  0  0  -0.245925  0  3.186091  0  0  -0.252139  0  3.199575  0  0  -0.224303  -0.241643  0  3.1769  0
N  N93  1  0.81790154  0.00663856  0.02439671  1  0  -0.251827  0  2.905457  0  0  -0.245948  0  3.186122  0  0  -0.252159  0  3.199609  0  0  -0.224342  -0.241672  0  3.176939  0
N  N94  1  0.67770484  0.63246146  0.98621898  1  0  -0.206111  0  3.490165  0  0  -0.12539  0  3.705082  0  0  -0.142656  0  3.725338  0  0  -0.210204  -0.113978  0  3.691283  0
N  N95  1  0.67770607  0.13246340  0.01378093  1  0  -0.20617  0  3.490036  0  0  -0.125424  0  3.70506  0  0  -0.142694  0  3.725317  0  0  -0.21022  -0.114009  0  3.691259  0
N  N96  1  0.14734721  0.14116020  0.72848792  1  0  -0.326611  0  3.137742  0  0  -0.265796  0  3.428097  0  0  -0.284336  0  3.442803  0  0  -0.23971  -0.253197  0  3.417905  0
N  N97  1  0.14734805  0.64115942  0.27151186  1  0  -0.326562  0  3.137634  0  0  -0.265758  0  3.428004  0  0  -0.284298  0  3.442709  0  0  -0.239703  -0.253163  0  3.417814  0
N  N98  1  0.22427337  0.23237426  0.77554764  1  0  -0.247995  0  2.903714  0  0  -0.236453  0  3.180903  0  0  -0.243691  0  3.195204  0  0  -0.220994  -0.231481  0  3.171154  0
N  N99  1  0.22427650  0.73237355  0.22445136  1  0  -0.248017  0  2.90373  0  0  -0.236499  0  3.180907  0  0  -0.243737  0  3.195206  0  0  -0.221003  -0.231523  0  3.171158  0
N  N100  1  0.32487441  0.23679152  0.62698564  1  0  -0.222277  0  3.49649  0  0  -0.141623  0  3.71669  0  0  -0.159027  0  3.736942  0  0  -0.218356  -0.130074  0  3.702853  0
N  N101  1  0.32487378  0.73679215  0.37301495  1  0  -0.222355  0  3.496597  0  0  -0.141677  0  3.716735  0  0  -0.159082  0  3.73699  0  0  -0.218363  -0.130132  0  3.702907  0
O  O102  1  0.25460893  0.96174905  0.85258905  1  0  -0.649169  0  1.964877  0  0  -0.582661  0  2.199983  0  0  -0.612363  0  2.189428  0  0  -0.344783  -0.561844  0  2.206384  0
O  O103  1  0.25461412  0.46174998  0.14741314  1  0  -0.64913  0  1.964766  0  0  -0.582625  0  2.199872  0  0  -0.612328  0  2.189321  0  0  -0.344743  -0.561809  0  2.206266  0
O  O104  1  0.03614022  0.83696820  0.90952062  1  0  -0.621157  0  1.912067  0  0  -0.567501  0  2.136389  0  0  -0.594122  0  2.127148  0  0  -0.330266  -0.548863  0  2.142001  0
O  O105  1  0.03614021  0.33696923  0.09048508  1  0  -0.621156  0  1.911972  0  0  -0.567526  0  2.136322  0  0  -0.594148  0  2.127078  0  0  -0.330293  -0.548889  0  2.141929  0
O  O106  1  0.74173098  0.46513549  0.26630310  1  0  -0.633868  0  1.945341  0  0  -0.574226  0  2.178936  0  0  -0.603252  0  2.17066  0  0  -0.336288  -0.553883  0  2.18381  0
O  O107  1  0.74172437  0.96513554  0.73369769  1  0  -0.633869  0  1.945386  0  0  -0.574208  0  2.178978  0  0  -0.603233  0  2.170703  0  0  -0.336227  -0.553864  0  2.183848  0
O  O108  1  0.92653075  0.37168926  0.31676589  1  0  -0.639398  0  1.918514  0  0  -0.584902  0  2.13913  0  0  -0.611126  0  2.12943  0  0  -0.33884  -0.566502  0  2.145022  0
O  O109  1  0.92653257  0.87169565  0.68323538  1  0  -0.639476  0  1.918393  0  0  -0.58498  0  2.139053  0  0  -0.611202  0  2.129351  0  0  -0.338888  -0.566585  0  2.14496  0
