# generated using pymatgen
data_ZnH9C14NO4
_symmetry_space_group_name_H-M   'P 1'
_cell_length_a   7.46182528
_cell_length_b   10.22120515
_cell_length_c   17.89968663
_cell_angle_alpha   88.30715356
_cell_angle_beta   78.83517439
_cell_angle_gamma   70.56710771
_symmetry_Int_Tables_number   1
_chemical_formula_structural   ZnH9C14NO4
_chemical_formula_sum   'Zn4 H36 C56 N4 O16'
_cell_volume   1262.15283742
_cell_formula_units_Z   4
loop_
 _symmetry_equiv_pos_site_id
 _symmetry_equiv_pos_as_xyz
  1  'x, y, z'
loop_
 _atom_site_type_symbol
 _atom_site_label
 _atom_site_symmetry_multiplicity
 _atom_site_fract_x
 _atom_site_fract_y
 _atom_site_fract_z
 _atom_site_occupancy
 _atom_site_pbe_bader_charge
 _atom_site_pbe_bader_spin_density
 _atom_site_pbe_cm5_charge
 _atom_site_pbe_ddec_charge
 _atom_site_pbe_ddec_spin_density
 _atom_site_pbe_ddec_sum_bond_order
 _atom_site_pbe_magmom
Zn  Zn0  1  0.00357205  0.45243426  0.22183414  1  1.323997  0  0.688879  0.8836  0  2.239338  0
Zn  Zn1  1  0.99642619  0.54756472  0.77816604  1  1.324025  0  0.688862  0.88355  0  2.239442  0
Zn  Zn2  1  0.64305944  0.46502708  0.70781153  1  1.287895  0  0.704486  0.860505  0  2.347452  0
Zn  Zn3  1  0.35694435  0.53496878  0.29218827  1  1.287627  0  0.70451  0.860519  0  2.347367  0
H  H4  1  0.92373711  0.46449645  0.39712278  1  0.113669  0  0.116821  0.091628  0  1.009046  0
H  H5  1  0.07626427  0.53550461  0.60287766  1  0.113668  0  0.116824  0.091634  0  1.009061  0
H  H6  1  0.01423677  0.29400729  0.50036779  1  0.133308  0  0.104876  0.122792  0  1.047576  0
H  H7  1  0.98575914  0.70599378  0.49963309  1  0.133345  0  0.104864  0.122777  0  1.047618  0
H  H8  1  0.27405263  0.97323970  0.32213852  1  0.080231  0  0.107278  0.115159  0  1.048775  0
H  H9  1  0.72594746  0.02675826  0.67786264  1  0.080285  0  0.107299  0.11518  0  1.048747  0
H  H10  1  0.17510540  0.15593135  0.22842004  1  0.148229  0  0.127741  0.109139  0  0.98529  0
H  H11  1  0.82489380  0.84406557  0.77158066  1  0.148208  0  0.127761  0.109178  0  0.985315  0
H  H12  1  0.16822122  0.06836721  0.53712582  1  0.12179  0  0.105353  0.114595  0  1.032386  0
H  H13  1  0.83177926  0.93163282  0.46287584  1  0.121825  0  0.105326  0.11458  0  1.032415  0
H  H14  1  0.39905384  0.85209480  0.40582726  1  0.078457  0  0.104069  0.106054  0  1.030185  0
H  H15  1  0.60094207  0.14790627  0.59417362  1  0.078408  0  0.104073  0.106079  0  1.030194  0
H  H16  1  0.24912887  0.92422564  0.62392680  1  0.113268  0  0.110514  0.118309  0  1.021495  0
H  H17  1  0.75087162  0.07577438  0.37607318  1  0.113448  0  0.110515  0.118321  0  1.021494  0
H  H18  1  0.38227426  0.74374819  0.71282605  1  0.175366  0  0.124394  0.102549  0  1.014018  0
H  H19  1  0.61773034  0.25625183  0.28717359  1  0.175361  0  0.124387  0.102523  0  1.014014  0
H  H20  1  0.73546675  0.47114505  0.53546988  1  0.109119  0  0.117591  0.083094  0  1.015921  0
H  H21  1  0.26453238  0.52885496  0.46452908  1  0.109132  0  0.117586  0.083107  0  1.015892  0
H  H22  1  0.61176046  0.63815394  0.43744996  1  0.129421  0  0.10822  0.125446  0  1.02704  0
H  H23  1  0.38823771  0.36184815  0.56254960  1  0.129434  0  0.108232  0.125469  0  1.02701  0
H  H24  1  0.01403360  0.35721547  0.97800583  1  0.106844  0  0.104829  0.114565  0  1.008078  0
H  H25  1  0.98596697  0.64278143  0.02199421  1  0.106823  0  0.104816  0.114599  0  1.008074  0
H  H26  1  0.89974656  0.29590183  0.86815703  1  0.081347  0  0.094842  0.091948  0  1.038246  0
H  H27  1  0.10025442  0.70409715  0.13184293  1  0.081351  0  0.094851  0.091952  0  1.038219  0
H  H28  1  0.57061259  0.27390216  0.88503256  1  0.031868  0  0.096303  0.096652  0  1.02781  0
H  H29  1  0.42938190  0.72610201  0.11496670  1  0.031894  0  0.096303  0.096669  0  1.027794  0
H  H30  1  0.35983217  0.31231416  0.01447462  1  0.0741  0  0.106672  0.112889  0  1.001955  0
H  H31  1  0.64016374  0.68768690  0.98552514  1  0.07389  0  0.106682  0.112903  0  1.001957  0
H  H32  1  0.03299902  0.93423029  0.24950809  1  0.062498  0  0.101473  0.102237  0  1.016675  0
H  H33  1  0.96700373  0.06577076  0.75049112  1  0.062501  0  0.101449  0.102194  0  1.016653  0
H  H34  1  0.85121658  0.10437184  0.16584303  1  0.1604  0  0.103761  0.11856  0  1.047865  0
H  H35  1  0.14878891  0.89562921  0.83415596  1  0.160431  0  0.103753  0.118573  0  1.047796  0
H  H36  1  0.55281296  0.07923201  0.13285027  1  0.07562  0  0.105161  0.108026  0  1.002866  0
H  H37  1  0.44718786  0.92077320  0.86715014  1  0.075668  0  0.105162  0.108015  0  1.00291  0
H  H38  1  0.43497335  0.88919264  0.18872905  1  0.09786  0  0.106332  0.104355  0  1.014628  0
H  H39  1  0.56502660  0.11081151  0.81126921  1  0.09787  0  0.106387  0.104436  0  1.014593  0
C  C40  1  0.00144800  0.35431330  0.38405790  1  0.425596  0  0.043006  0.091556  0  3.959646  0
C  C41  1  0.99855249  0.64568672  0.61594208  1  0.425588  0  0.043004  0.091481  0  3.959673  0
C  C42  1  0.05109287  0.26038879  0.44043221  1  -0.011262  0  -0.086822  -0.188668  0  3.925833  0
C  C43  1  0.94890577  0.73961228  0.55956901  1  -0.011296  0  -0.086794  -0.188605  0  3.925861  0
C  C44  1  0.15644969  0.11993215  0.41993637  1  -0.004639  0  0.011645  0.157183  0  3.991446  0
C  C45  1  0.84355312  0.88006581  0.58006514  1  -0.004876  0  0.011597  0.157091  0  3.991531  0
C  C46  1  0.19805495  0.08075276  0.34206616  1  0.023899  0  -0.079712  -0.175956  0  3.91422  0
C  C47  1  0.80194561  0.91924416  0.65793499  1  0.023931  0  -0.079732  -0.175897  0  3.914218  0
C  C48  1  0.14358054  0.18094224  0.28935468  1  0.429691  0  0.051586  0.0978  0  3.930175  0
C  C49  1  0.85641865  0.81905468  0.71064657  1  0.429669  0  0.051538  0.097632  0  3.930163  0
C  C50  1  0.22104367  0.02432770  0.47884971  1  -0.017079  0  -0.073129  -0.103561  0  3.912049  0
C  C51  1  0.77895722  0.97567441  0.52115131  1  -0.016851  0  -0.073054  -0.103456  0  3.912027  0
C  C52  1  0.34506722  0.89286401  0.46457873  1  -0.062213  0  -0.076726  -0.108442  0  3.915503  0
C  C53  1  0.65493191  0.10713602  0.53542192  1  -0.062221  0  -0.076725  -0.108505  0  3.915594  0
C  C54  1  0.41814093  0.79678602  0.52178245  1  0.008443  0  0.013771  0.154806  0  4.002533  0
C  C55  1  0.58186045  0.20321503  0.47821743  1  0.00845  0  0.01374  0.154795  0  4.002471  0
C  C56  1  0.35632374  0.82556666  0.60092201  1  -0.044851  0  -0.07425  -0.159421  0  3.893636  0
C  C57  1  0.64368222  0.17443336  0.39907808  1  -0.044957  0  -0.074297  -0.159505  0  3.893689  0
C  C58  1  0.43069265  0.72642318  0.65130108  1  0.397485  0  0.052412  0.106313  0  3.902897  0
C  C59  1  0.56931146  0.27357788  0.34869915  1  0.397384  0  0.052459  0.106415  0  3.902918  0
C  C60  1  0.62734102  0.57292892  0.55194105  1  0.428008  0  0.045085  0.088735  0  3.979699  0
C  C61  1  0.37265996  0.42707006  0.44805891  1  0.428015  0  0.045093  0.088748  0  3.979688  0
C  C62  1  0.55793154  0.66625184  0.49801787  1  -0.00771  0  -0.080571  -0.173875  0  3.907241  0
C  C63  1  0.44206760  0.33374818  0.50198166  1  -0.007734  0  -0.080551  -0.173874  0  3.907274  0
C  C64  1  0.56955813  0.35200748  0.06897890  1  -0.02931  0  -0.019901  -0.084682  0  3.965752  0
C  C65  1  0.43044061  0.64799045  0.93101958  1  -0.029499  0  -0.019937  -0.08473  0  3.965793  0
C  C66  1  0.75552642  0.36438612  0.05934211  1  -0.017443  0  0.000651  -0.014456  0  3.91084  0
C  C67  1  0.24447189  0.63560976  0.94065868  1  -0.017788  0  0.000683  -0.014394  0  3.910723  0
C  C68  1  0.87244312  0.34411730  0.98662451  1  -0.022433  0  -0.086089  -0.109822  0  3.950742  0
C  C69  1  0.12755560  0.65588065  0.01337565  1  -0.022348  0  -0.086064  -0.109866  0  3.950733  0
C  C70  1  0.80717263  0.30992542  0.92441090  1  -0.047787  0  -0.084866  -0.051841  0  3.986245  0
C  C71  1  0.19282883  0.69007252  0.07558904  1  -0.04793  0  -0.084869  -0.051847  0  3.986274  0
C  C72  1  0.62419008  0.29616609  0.93394176  1  -0.005349  0  -0.096203  -0.095704  0  4.010233  0
C  C73  1  0.37581131  0.70383495  0.06605701  1  -0.005371  0  -0.096182  -0.095682  0  4.010165  0
C  C74  1  0.50575133  0.31764719  0.00597128  1  -0.017594  0  -0.08012  -0.081152  0  3.975674  0
C  C75  1  0.49424742  0.68235073  0.99402608  1  -0.017259  0  -0.080127  -0.081176  0  3.975696  0
C  C76  1  0.43332609  0.38600135  0.14401423  1  1.54602  0  0.221741  0.596384  0  4.184872  0
C  C77  1  0.56667360  0.61399450  0.85598478  1  1.545968  0  0.221734  0.596432  0  4.184779  0
C  C78  1  0.84005459  0.39110724  0.12462196  1  1.580364  0  0.202189  0.588193  0  4.194905  0
C  C79  1  0.15994551  0.60889070  0.87537753  1  1.580884  0  0.202145  0.588197  0  4.195015  0
C  C80  1  0.66808435  0.80413950  0.24888299  1  -0.039237  0  -0.021553  -0.075922  0  3.979476  0
C  C81  1  0.33191616  0.19586050  0.75111531  1  -0.038545  0  -0.021541  -0.075879  0  3.979422  0
C  C82  1  0.83844240  0.81628569  0.26559771  1  -0.042379  0  -0.010076  -0.048324  0  3.956504  0
C  C83  1  0.16155527  0.18371748  0.73440522  1  -0.04243  0  -0.010099  -0.048304  0  3.956576  0
C  C84  1  0.90095401  0.92558030  0.23596969  1  -0.043328  0  -0.088111  -0.112124  0  3.973843  0
C  C85  1  0.09904873  0.07442076  0.76403064  1  -0.043293  0  -0.088087  -0.112125  0  3.973916  0
C  C86  1  0.79985392  0.01982134  0.18818981  1  -0.053185  0  -0.079475  -0.057869  0  3.95102  0
C  C87  1  0.20015061  0.98018177  0.81180867  1  -0.053151  0  -0.079508  -0.057906  0  3.951137  0
C  C88  1  0.63214945  0.00642454  0.17047027  1  -0.00774  0  -0.085498  -0.07884  0  3.975914  0
C  C89  1  0.36785330  0.99357650  0.82952838  1  -0.007581  0  -0.085481  -0.078789  0  3.976121  0
C  C90  1  0.56621764  0.90044960  0.20141952  1  -0.084294  0  -0.078448  -0.08371  0  3.972457  0
C  C91  1  0.43378601  0.09955248  0.79857904  1  -0.0853  0  -0.078479  -0.083814  0  3.972553  0
C  C92  1  0.59627836  0.69001349  0.28010344  1  1.54372  0  0.20631  0.571953  0  4.207658  0
C  C93  1  0.40372352  0.30998652  0.71989531  1  1.54374  0  0.206304  0.572026  0  4.207513  0
C  C94  1  0.96607174  0.71554291  0.31184810  1  1.584555  0  0.219997  0.607287  0  4.166694  0
C  C95  1  0.03392830  0.28445811  0.68814798  1  1.584515  0  0.219935  0.607109  0  4.167121  0
N  N96  1  0.04897986  0.31611978  0.30963394  1  -1.255307  0  -0.327167  -0.240302  0  3.570603  0
N  N97  1  0.95101660  0.68387714  0.69036698  1  -1.255404  0  -0.327177  -0.240188  0  3.57048  0
N  N98  1  0.56503583  0.60142636  0.62740181  1  -1.245523  0  -0.337491  -0.255859  0  3.619405  0
N  N99  1  0.43496515  0.39857261  0.37259758  1  -1.245536  0  -0.337503  -0.255902  0  3.619469  0
O  O100  1  0.26972773  0.36993888  0.15070804  1  -1.184332  0  -0.313847  -0.558389  0  2.371014  0
O  O101  1  0.73027004  0.63006113  0.84929103  1  -1.18429  0  -0.313847  -0.558405  0  2.371003  0
O  O102  1  0.49394715  0.43080905  0.19710414  1  -1.181624  0  -0.3179  -0.54677  0  2.430331  0
O  O103  1  0.50605015  0.56919198  0.80289384  1  -1.18194  0  -0.317894  -0.546814  0  2.430335  0
O  O104  1  0.91128052  0.29045715  0.16498623  1  -1.184665  0  -0.318206  -0.559154  0  2.206139  0
O  O105  1  0.08871256  0.70954707  0.83501760  1  -1.184624  0  -0.318174  -0.559158  0  2.206147  0
O  O106  1  0.85287719  0.51166723  0.13471233  1  -1.149805  0  -0.320514  -0.539536  0  2.200695  0
O  O107  1  0.14712470  0.48833275  0.86528418  1  -1.149836  0  -0.320511  -0.539565  0  2.200866  0
O  O108  1  0.08673436  0.60196187  0.27358999  1  -1.192262  0  -0.33027  -0.596267  0  2.521269  0
O  O109  1  0.91326426  0.39803923  0.72641402  1  -1.192132  0  -0.330312  -0.596234  0  2.521249  0
O  O110  1  0.97131324  0.74507355  0.37785211  1  -1.173288  0  -0.302816  -0.524363  0  2.135949  0
O  O111  1  0.02868898  0.25492862  0.62215439  1  -1.173386  0  -0.302698  -0.524196  0  2.136595  0
O  O112  1  0.70869663  0.58139331  0.30347523  1  -1.192923  0  -0.312966  -0.571591  0  2.277072  0
O  O113  1  0.29130525  0.41860668  0.69652240  1  -1.192917  0  -0.31297  -0.571571  0  2.276847  0
O  O114  1  0.41421976  0.71042346  0.28288686  1  -1.155186  0  -0.325268  -0.545721  0  2.308732  0
O  O115  1  0.58577980  0.28957861  0.71711036  1  -1.155165  0  -0.325256  -0.545788  0  2.308756  0
