# generated using pymatgen
data_CdH18C26(NO)4
_symmetry_space_group_name_H-M   'P 1'
_cell_length_a   8.60447731
_cell_length_b   10.79251013
_cell_length_c   12.95187652
_cell_angle_alpha   114.11013564
_cell_angle_beta   90.00007018
_cell_angle_gamma   89.99996220
_symmetry_Int_Tables_number   1
_chemical_formula_structural   CdH18C26(NO)4
_chemical_formula_sum   'Cd2 H36 C52 N8 O8'
_cell_volume   1097.83525007
_cell_formula_units_Z   2
loop_
 _symmetry_equiv_pos_site_id
 _symmetry_equiv_pos_as_xyz
  1  'x, y, z'
loop_
 _atom_site_type_symbol
 _atom_site_label
 _atom_site_symmetry_multiplicity
 _atom_site_fract_x
 _atom_site_fract_y
 _atom_site_fract_z
 _atom_site_occupancy
 _atom_site_hle17_bader_spin_density
 _atom_site_hle17_ddec_charge
 _atom_site_hle17_ddec_spin_density
 _atom_site_hle17_ddec_sum_bond_order
 _atom_site_hle17_magmom
 _atom_site_hse06_10hf_bader_spin_density
 _atom_site_hse06_10hf_ddec_charge
 _atom_site_hse06_10hf_ddec_spin_density
 _atom_site_hse06_10hf_ddec_sum_bond_order
 _atom_site_hse06_10hf_magmom
 _atom_site_hse06_bader_spin_density
 _atom_site_hse06_ddec_charge
 _atom_site_hse06_ddec_spin_density
 _atom_site_hse06_ddec_sum_bond_order
 _atom_site_hse06_magmom
 _atom_site_pbe_bader_spin_density
 _atom_site_pbe_cm5_charge
 _atom_site_pbe_ddec_charge
 _atom_site_pbe_ddec_spin_density
 _atom_site_pbe_ddec_sum_bond_order
 _atom_site_pbe_magmom
Cd  Cd0  1  0.49999950  0.99999928  0.99999962  1  0  1.126094  0  1.752042  0  0  0.9414  0  2.200191  0  0  0.997279  0  2.147093  0  0  0.779595  0.901592  0  2.236457  0
Cd  Cd1  1  0.00000005  0.99999999  0.49999967  1  0  1.12609  0  1.752033  0  0  0.941407  0  2.20017  0  0  0.997284  0  2.147075  0  0  0.779583  0.901599  0  2.236435  0
H  H2  1  0.91198017  0.66412483  0.63369731  1  0  0.107216  0  1.008894  0  0  0.114791  0  1.079079  0  0  0.117833  0  1.081201  0  0  0.090027  0.112701  0  1.077536  0
H  H3  1  0.41197920  0.33587370  0.86630007  1  0  0.107203  0  1.008899  0  0  0.114781  0  1.079084  0  0  0.117824  0  1.081205  0  0  0.090028  0.112693  0  1.077535  0
H  H4  1  0.08802181  0.33587339  0.36630062  1  0  0.107199  0  1.008932  0  0  0.11478  0  1.07911  0  0  0.117822  0  1.081232  0  0  0.090037  0.112692  0  1.077565  0
H  H5  1  0.58801930  0.66412452  0.13369785  1  0  0.107192  0  1.008896  0  0  0.114772  0  1.079073  0  0  0.117814  0  1.081196  0  0  0.090028  0.112681  0  1.077536  0
H  H6  1  0.26324933  0.97140654  0.79664806  1  0  0.082972  0  0.957118  0  0  0.088076  0  1.027985  0  0  0.090842  0  1.025454  0  0  0.114028  0.086124  0  1.029699  0
H  H7  1  0.76325095  0.02859304  0.70335341  1  0  0.082959  0  0.957089  0  0  0.088064  0  1.027958  0  0  0.09083  0  1.025427  0  0  0.114011  0.086112  0  1.029673  0
H  H8  1  0.73674917  0.02859269  0.20335175  1  0  0.082975  0  0.957093  0  0  0.088077  0  1.027968  0  0  0.090844  0  1.025437  0  0  0.114021  0.086127  0  1.029679  0
H  H9  1  0.23675103  0.97140722  0.29664752  1  0  0.082977  0  0.957106  0  0  0.088079  0  1.027976  0  0  0.090845  0  1.025446  0  0  0.114034  0.086129  0  1.029688  0
H  H10  1  0.21017749  0.86529942  0.06792526  1  0  0.081527  0  0.952553  0  0  0.088733  0  1.018616  0  0  0.091139  0  1.0165  0  0  0.114389  0.086803  0  1.020478  0
H  H11  1  0.71017596  0.13470253  0.43207622  1  0  0.081516  0  0.952554  0  0  0.088768  0  1.018574  0  0  0.091174  0  1.016457  0  0  0.114392  0.08683  0  1.020447  0
H  H12  1  0.78982333  0.13470185  0.93207447  1  0  0.081536  0  0.952482  0  0  0.088733  0  1.018586  0  0  0.091136  0  1.016472  0  0  0.114409  0.086814  0  1.020416  0
H  H13  1  0.28982370  0.86529874  0.56792505  1  0  0.081532  0  0.952538  0  0  0.088733  0  1.018614  0  0  0.091137  0  1.016499  0  0  0.114393  0.086808  0  1.020461  0
H  H14  1  0.95185738  0.76054864  0.99888009  1  0  0.106784  0  0.958362  0  0  0.112483  0  1.02492  0  0  0.115556  0  1.024277  0  0  0.106269  0.110172  0  1.025702  0
H  H15  1  0.45185814  0.23945295  0.50112222  1  0  0.106817  0  0.95837  0  0  0.112533  0  1.024908  0  0  0.115605  0  1.024266  0  0  0.106285  0.110217  0  1.025694  0
H  H16  1  0.04814344  0.23945162  0.00112162  1  0  0.106772  0  0.958406  0  0  0.112485  0  1.024946  0  0  0.115556  0  1.024305  0  0  0.106275  0.110169  0  1.025733  0
H  H17  1  0.54814268  0.76054934  0.49888017  1  0  0.106814  0  0.958337  0  0  0.112514  0  1.02489  0  0  0.115587  0  1.024247  0  0  0.106276  0.110203  0  1.025673  0
H  H18  1  0.84629240  0.76152394  0.81849164  1  0  0.100316  0  0.959201  0  0  0.110005  0  1.02297  0  0  0.112944  0  1.020508  0  0  0.106503  0.107884  0  1.02472  0
H  H19  1  0.34629233  0.23847562  0.68150835  1  0  0.100382  0  0.959156  0  0  0.110036  0  1.022958  0  0  0.112976  0  1.020494  0  0  0.106513  0.107915  0  1.024708  0
H  H20  1  0.15370842  0.23847428  0.18150783  1  0  0.100334  0  0.959194  0  0  0.110024  0  1.022961  0  0  0.112964  0  1.020495  0  0  0.106511  0.107903  0  1.02471  0
H  H21  1  0.65370732  0.76152463  0.31849258  1  0  0.10036  0  0.959213  0  0  0.110037  0  1.022989  0  0  0.112977  0  1.020525  0  0  0.106509  0.107916  0  1.024738  0
H  H22  1  0.72971342  0.53835429  0.57071645  1  0  0.064228  0  0.953215  0  0  0.076155  0  1.01594  0  0  0.078517  0  1.013617  0  0  0.10771  0.074392  0  1.017721  0
H  H23  1  0.22971363  0.46164631  0.92928379  1  0  0.064207  0  0.953253  0  0  0.07613  0  1.015977  0  0  0.078492  0  1.013654  0  0  0.107705  0.074359  0  1.017766  0
H  H24  1  0.27028623  0.46164596  0.42928371  1  0  0.064238  0  0.953247  0  0  0.076165  0  1.015962  0  0  0.078526  0  1.013639  0  0  0.107719  0.074392  0  1.017752  0
H  H25  1  0.77028719  0.53835395  0.07071636  1  0  0.064232  0  0.95324  0  0  0.07616  0  1.015961  0  0  0.078522  0  1.013638  0  0  0.107713  0.074395  0  1.017744  0
H  H26  1  0.55125384  0.26087282  0.26907906  1  0  0.077811  0  0.93406  0  0  0.085161  0  0.998927  0  0  0.0886  0  0.995262  0  0  0.111681  0.082673  0  1.001679  0
H  H27  1  0.05125578  0.73912712  0.23092007  1  0  0.077817  0  0.934048  0  0  0.085165  0  0.99892  0  0  0.088604  0  0.995256  0  0  0.111691  0.082677  0  1.001672  0
H  H28  1  0.44874349  0.73912743  0.73092110  1  0  0.077825  0  0.934035  0  0  0.085165  0  0.998914  0  0  0.088604  0  0.995249  0  0  0.111693  0.082676  0  1.001666  0
H  H29  1  0.94874620  0.26087313  0.76907932  1  0  0.07782  0  0.934043  0  0  0.08517  0  0.998908  0  0  0.088608  0  0.995244  0  0  0.111688  0.082681  0  1.001661  0
H  H30  1  0.67939280  0.37554307  0.15896242  1  0  0.104488  0  0.953539  0  0  0.114474  0  1.012908  0  0  0.117349  0  1.013218  0  0  0.104439  0.112487  0  1.012744  0
H  H31  1  0.17939387  0.62445685  0.34103681  1  0  0.104482  0  0.953527  0  0  0.114469  0  1.012894  0  0  0.117345  0  1.013205  0  0  0.104441  0.112483  0  1.01273  0
H  H32  1  0.32060570  0.62445718  0.84103696  1  0  0.104498  0  0.953546  0  0  0.114485  0  1.012911  0  0  0.11736  0  1.013222  0  0  0.10445  0.112499  0  1.012747  0
H  H33  1  0.82060695  0.37554442  0.65896292  1  0  0.104485  0  0.953539  0  0  0.114474  0  1.012908  0  0  0.117349  0  1.013219  0  0  0.104438  0.112488  0  1.012744  0
H  H34  1  0.84335396  0.58411130  0.26469201  1  0  0.092214  0  0.965797  0  0  0.100475  0  1.033931  0  0  0.103868  0  1.030604  0  0  0.103879  0.098051  0  1.036248  0
H  H35  1  0.34335501  0.41588860  0.23530812  1  0  0.092212  0  0.965795  0  0  0.100473  0  1.03393  0  0  0.103865  0  1.030604  0  0  0.103871  0.098049  0  1.036246  0
H  H36  1  0.15664453  0.41588895  0.73530815  1  0  0.092208  0  0.965818  0  0  0.100473  0  1.033944  0  0  0.103864  0  1.030619  0  0  0.103874  0.098049  0  1.03626  0
H  H37  1  0.65664465  0.58411166  0.76469281  1  0  0.09223  0  0.965799  0  0  0.100493  0  1.033934  0  0  0.103886  0  1.030605  0  0  0.103877  0.098067  0  1.036255  0
C  C38  1  0.00628304  0.86018767  0.67800154  1  0  0.425362  0  3.830543  0  0  0.404842  0  4.094234  0  0  0.432774  0  4.099654  0  0  0.116399  0.386063  0  4.090126  0
C  C39  1  0.50628363  0.13981195  0.82199897  1  0  0.425501  0  3.83041  0  0  0.405032  0  4.094012  0  0  0.432968  0  4.099431  0  0  0.116477  0.386252  0  4.089905  0
C  C40  1  0.99371545  0.13981157  0.32199828  1  0  0.425426  0  3.830514  0  0  0.404893  0  4.09423  0  0  0.432825  0  4.099649  0  0  0.116411  0.386118  0  4.090116  0
C  C41  1  0.49371603  0.86018831  0.17800274  1  0  0.425298  0  3.830595  0  0  0.404771  0  4.09431  0  0  0.432702  0  4.09973  0  0  0.11638  0.385994  0  4.090197  0
C  C42  1  0.93137350  0.74174014  0.60187788  1  0  -0.437986  0  3.733781  0  0  -0.466877  0  4.003699  0  0  -0.493925  0  4.026106  0  0  -0.159915  -0.448402  0  3.987913  0
C  C43  1  0.43137730  0.25826042  0.89812174  1  0  -0.438035  0  3.733788  0  0  -0.466934  0  4.003706  0  0  -0.493982  0  4.026117  0  0  -0.159907  -0.448461  0  3.987916  0
C  C44  1  0.06862383  0.25826011  0.39812073  1  0  -0.437987  0  3.733755  0  0  -0.466877  0  4.003712  0  0  -0.493921  0  4.026121  0  0  -0.159923  -0.448405  0  3.987921  0
C  C45  1  0.56862468  0.74173983  0.10187841  1  0  -0.437928  0  3.733718  0  0  -0.466815  0  4.003657  0  0  -0.493862  0  4.026067  0  0  -0.159903  -0.448342  0  3.987866  0
C  C46  1  0.88637939  0.70857189  0.48857829  1  0  0.427686  0  3.827076  0  0  0.407835  0  4.088351  0  0  0.436036  0  4.093993  0  0  0.118107  0.3889  0  4.084012  0
C  C47  1  0.38638245  0.29142902  0.01142067  1  0  0.427854  0  3.826942  0  0  0.407945  0  4.088286  0  0  0.436138  0  4.093942  0  0  0.118211  0.389018  0  4.083932  0
C  C48  1  0.11361794  0.29142836  0.51142033  1  0  0.427809  0  3.82687  0  0  0.407918  0  4.088215  0  0  0.436109  0  4.093872  0  0  0.118194  0.388993  0  4.08386  0
C  C49  1  0.61361953  0.70857124  0.98857871  1  0  0.42778  0  3.826992  0  0  0.407908  0  4.088279  0  0  0.436106  0  4.093928  0  0  0.118212  0.388978  0  4.083933  0
C  C50  1  0.04995343  0.86280687  0.79075418  1  0  -0.06538  0  3.739012  0  0  -0.039499  0  3.965721  0  0  -0.050079  0  3.989487  0  0  -0.010963  -0.032881  0  3.950344  0
C  C51  1  0.54995498  0.13719275  0.70924713  1  0  -0.065368  0  3.739004  0  0  -0.039487  0  3.965659  0  0  -0.050076  0  3.989437  0  0  -0.010915  -0.032868  0  3.95028  0
C  C52  1  0.95004506  0.13719136  0.20924529  1  0  -0.065357  0  3.738991  0  0  -0.039455  0  3.965679  0  0  -0.050042  0  3.989454  0  0  -0.010918  -0.032837  0  3.950298  0
C  C53  1  0.45004584  0.86280649  0.29075423  1  0  -0.065297  0  3.739094  0  0  -0.039421  0  3.965805  0  0  -0.05  0  3.989569  0  0  -0.010942  -0.032802  0  3.950424  0
C  C54  1  0.19093471  0.92358704  0.83899066  1  0  0.104379  0  3.694126  0  0  0.064834  0  3.947657  0  0  0.07275  0  3.965472  0  0  0.049233  0.059969  0  3.935604  0
C  C55  1  0.69093505  0.07641357  0.66101033  1  0  0.104339  0  3.694193  0  0  0.064787  0  3.947724  0  0  0.072706  0  3.965541  0  0  0.049199  0.059921  0  3.935672  0
C  C56  1  0.80906611  0.07641220  0.16100916  1  0  0.104326  0  3.694213  0  0  0.064769  0  3.947746  0  0  0.072687  0  3.965562  0  0  0.049189  0.059905  0  3.93569  0
C  C57  1  0.30906577  0.92358668  0.33898982  1  0  0.104314  0  3.694206  0  0  0.064772  0  3.94774  0  0  0.072688  0  3.965557  0  0  0.049176  0.059907  0  3.935686  0
C  C58  1  0.16019622  0.86475578  0.99051408  1  0  0.125996  0  3.706014  0  0  0.092426  0  3.9647  0  0  0.100574  0  3.981621  0  0  0.045945  0.087398  0  3.953288  0
C  C59  1  0.66019624  0.13524483  0.50948688  1  0  0.126076  0  3.70593  0  0  0.092468  0  3.964614  0  0  0.100619  0  3.981534  0  0  0.045949  0.087447  0  3.953201  0
C  C60  1  0.83980460  0.13524346  0.00948573  1  0  0.126058  0  3.705886  0  0  0.092468  0  3.964594  0  0  0.100617  0  3.981515  0  0  0.045937  0.087444  0  3.953186  0
C  C61  1  0.33980458  0.86475644  0.49051439  1  0  0.126036  0  3.705986  0  0  0.092462  0  3.964668  0  0  0.100612  0  3.981589  0  0  0.04594  0.087437  0  3.953259  0
C  C62  1  0.01610843  0.80625481  0.95097927  1  0  -0.103006  0  3.726548  0  0  -0.116905  0  3.984398  0  0  -0.12409  0  4.005432  0  0  -0.079785  -0.112337  0  3.970504  0
C  C63  1  0.51610847  0.19374582  0.54902081  1  0  -0.103193  0  3.726414  0  0  -0.117114  0  3.984286  0  0  -0.124299  0  4.005317  0  0  -0.079847  -0.112541  0  3.970392  0
C  C64  1  0.98389238  0.19374442  0.04901977  1  0  -0.103042  0  3.726488  0  0  -0.116949  0  3.984357  0  0  -0.124131  0  4.005387  0  0  -0.079803  -0.112379  0  3.970465  0
C  C65  1  0.48389118  0.80625545  0.45097969  1  0  -0.103125  0  3.726444  0  0  -0.117028  0  3.984298  0  0  -0.124212  0  4.00533  0  0  -0.079835  -0.112461  0  3.970404  0
C  C66  1  0.96012152  0.80487967  0.84967675  1  0  -0.028882  0  3.67994  0  0  -0.053452  0  3.920594  0  0  -0.049156  0  3.938837  0  0  -0.062738  -0.056158  0  3.908331  0
C  C67  1  0.46012143  0.19511988  0.65032410  1  0  -0.02883  0  3.679643  0  0  -0.053372  0  3.920291  0  0  -0.049073  0  3.938533  0  0  -0.062693  -0.056079  0  3.908026  0
C  C68  1  0.03987813  0.19511855  0.15032349  1  0  -0.028902  0  3.679797  0  0  -0.053476  0  3.920451  0  0  -0.049179  0  3.938694  0  0  -0.062752  -0.056182  0  3.908184  0
C  C69  1  0.53987822  0.80487936  0.34967648  1  0  -0.028881  0  3.679823  0  0  -0.053436  0  3.920461  0  0  -0.049141  0  3.938703  0  0  -0.062697  -0.056142  0  3.908195  0
C  C70  1  0.80061125  0.57791594  0.42608219  1  0  -0.081725  0  3.735525  0  0  -0.056354  0  3.961064  0  0  -0.066479  0  3.984217  0  0  -0.017062  -0.049926  0  3.945461  0
C  C71  1  0.30061083  0.42208498  0.07391747  1  0  -0.081726  0  3.735521  0  0  -0.05634  0  3.961072  0  0  -0.066462  0  3.984227  0  0  -0.017068  -0.049914  0  3.945464  0
C  C72  1  0.19938957  0.42208533  0.57391753  1  0  -0.081676  0  3.735489  0  0  -0.056342  0  3.961106  0  0  -0.066464  0  3.984262  0  0  -0.017041  -0.049916  0  3.945498  0
C  C73  1  0.69938766  0.57791527  0.92608269  1  0  -0.081715  0  3.735596  0  0  -0.056334  0  3.961142  0  0  -0.066458  0  3.984297  0  0  -0.017078  -0.049906  0  3.945536  0
C  C74  1  0.72452187  0.50435035  0.47898665  1  0  0.102282  0  3.713926  0  0  0.070168  0  3.970175  0  0  0.077512  0  3.985969  0  0  0.047325  0.06552  0  3.959401  0
C  C75  1  0.22452246  0.49564956  0.02101261  1  0  0.102387  0  3.714017  0  0  0.070276  0  3.970252  0  0  0.077621  0  3.986045  0  0  0.047392  0.065633  0  3.95948  0
C  C76  1  0.27547662  0.49564888  0.52101239  1  0  0.10231  0  3.713973  0  0  0.070216  0  3.970222  0  0  0.077561  0  3.986015  0  0  0.047358  0.065576  0  3.959451  0
C  C77  1  0.77547836  0.50435069  0.97898755  1  0  0.102334  0  3.71399  0  0  0.070214  0  3.970231  0  0  0.077559  0  3.986024  0  0  0.047365  0.065568  0  3.959459  0
C  C78  1  0.62358015  0.35059897  0.31185155  1  0  0.116034  0  3.72966  0  0  0.089634  0  3.99323  0  0  0.096451  0  4.008743  0  0  0.0414  0.085263  0  3.982775  0
C  C79  1  0.12358092  0.64940096  0.18814764  1  0  0.116056  0  3.729585  0  0  0.089655  0  3.993155  0  0  0.096473  0  4.008667  0  0  0.041408  0.085284  0  3.9827  0
C  C80  1  0.37641835  0.64940128  0.68814784  1  0  0.116048  0  3.72961  0  0  0.089655  0  3.993176  0  0  0.096473  0  4.008689  0  0  0.041419  0.085285  0  3.982721  0
C  C81  1  0.87641990  0.35059929  0.81185252  1  0  0.116032  0  3.729696  0  0  0.08963  0  3.993267  0  0  0.096448  0  4.00878  0  0  0.041403  0.085258  0  3.982815  0
C  C82  1  0.69476393  0.41527253  0.25030021  1  0  -0.12129  0  3.75231  0  0  -0.133169  0  4.003347  0  0  -0.140804  0  4.026614  0  0  -0.089362  -0.128235  0  3.987584  0
C  C83  1  0.19476371  0.58472739  0.24969903  1  0  -0.121263  0  3.752267  0  0  -0.133137  0  4.003303  0  0  -0.140773  0  4.026569  0  0  -0.089355  -0.128203  0  3.987539  0
C  C84  1  0.30523456  0.58472772  0.74969918  1  0  -0.121287  0  3.752312  0  0  -0.133161  0  4.003346  0  0  -0.140797  0  4.026612  0  0  -0.089361  -0.128226  0  3.987582  0
C  C85  1  0.80523595  0.41527287  0.75030112  1  0  -0.12127  0  3.752332  0  0  -0.133148  0  4.003374  0  0  -0.140783  0  4.026641  0  0  -0.089351  -0.128214  0  3.98761  0
C  C86  1  0.78477987  0.52960215  0.30819444  1  0  -0.03905  0  3.719257  0  0  -0.064775  0  3.964461  0  0  -0.060813  0  3.982534  0  0  -0.071114  -0.066916  0  3.951923  0
C  C87  1  0.28478079  0.47039878  0.19180676  1  0  -0.039114  0  3.719224  0  0  -0.064844  0  3.964434  0  0  -0.060882  0  3.982506  0  0  -0.07114  -0.066985  0  3.951896  0
C  C88  1  0.21521863  0.47039709  0.69180538  1  0  -0.039113  0  3.719293  0  0  -0.06483  0  3.96452  0  0  -0.060867  0  3.982592  0  0  -0.071156  -0.06697  0  3.951984  0
C  C89  1  0.71521770  0.52960249  0.80819529  1  0  -0.039139  0  3.719298  0  0  -0.064878  0  3.964519  0  0  -0.060915  0  3.982593  0  0  -0.071161  -0.067019  0  3.951981  0
N  N90  1  0.24595964  0.92314988  0.93566710  1  0  -0.338475  0  3.27093  0  0  -0.263211  0  3.540446  0  0  -0.283128  0  3.559161  0  0  -0.329538  -0.249692  0  3.527248  0
N  N91  1  0.74595980  0.07684970  0.56433358  1  0  -0.338477  0  3.27089  0  0  -0.263218  0  3.540431  0  0  -0.283134  0  3.559144  0  0  -0.32953  -0.249699  0  3.527229  0
N  N92  1  0.75404118  0.07684834  0.06433159  1  0  -0.338478  0  3.270895  0  0  -0.263204  0  3.540426  0  0  -0.28312  0  3.559141  0  0  -0.329515  -0.249688  0  3.527228  0
N  N93  1  0.25404102  0.92315055  0.43566735  1  0  -0.338475  0  3.270913  0  0  -0.263215  0  3.540432  0  0  -0.283131  0  3.559146  0  0  -0.329513  -0.249697  0  3.527234  0
N  N94  1  0.63852943  0.39320652  0.42427693  1  0  -0.312376  0  3.088227  0  0  -0.275455  0  3.363096  0  0  -0.287136  0  3.378578  0  0  -0.321101  -0.267422  0  3.352601  0
N  N95  1  0.13853002  0.60679239  0.07572192  1  0  -0.31246  0  3.088172  0  0  -0.275541  0  3.363043  0  0  -0.287223  0  3.378524  0  0  -0.321164  -0.267508  0  3.352547  0
N  N96  1  0.36146907  0.60679272  0.57572211  1  0  -0.31243  0  3.088172  0  0  -0.275506  0  3.363031  0  0  -0.287188  0  3.378512  0  0  -0.321163  -0.267474  0  3.352535  0
N  N97  1  0.86147079  0.39320684  0.92427712  1  0  -0.312382  0  3.088206  0  0  -0.275454  0  3.36307  0  0  -0.287135  0  3.378553  0  0  -0.321106  -0.267423  0  3.352577  0
O  O98  1  0.04651204  0.96481990  0.66138821  1  0  -0.57911  0  1.997974  0  0  -0.513372  0  2.239533  0  0  -0.540339  0  2.229908  0  0  -0.316264  -0.494673  0  2.245552  0
O  O99  1  0.54651042  0.03518073  0.83861190  1  0  -0.579217  0  1.997829  0  0  -0.513504  0  2.239386  0  0  -0.540472  0  2.229757  0  0  -0.31639  -0.494806  0  2.245402  0
O  O100  1  0.95348878  0.03518036  0.33861118  1  0  -0.579161  0  1.997934  0  0  -0.513415  0  2.239519  0  0  -0.540382  0  2.229892  0  0  -0.316298  -0.494723  0  2.245547  0
O  O101  1  0.45348807  0.96481952  0.16138826  1  0  -0.579102  0  1.997989  0  0  -0.513344  0  2.239552  0  0  -0.540313  0  2.229926  0  0  -0.316258  -0.49465  0  2.245578  0
O  O102  1  0.91088515  0.77960261  0.43183916  1  0  -0.575054  0  2.025523  0  0  -0.507715  0  2.271675  0  0  -0.535425  0  2.263575  0  0  -0.309282  -0.488548  0  2.276744  0
O  O103  1  0.41088838  0.22039829  0.06815904  1  0  -0.57519  0  2.025545  0  0  -0.507813  0  2.271709  0  0  -0.535519  0  2.263611  0  0  -0.30937  -0.488649  0  2.276776  0
O  O104  1  0.08911334  0.22039764  0.56815868  1  0  -0.575175  0  2.025551  0  0  -0.5078  0  2.271694  0  0  -0.535505  0  2.263598  0  0  -0.309358  -0.488635  0  2.27676  0
O  O105  1  0.58911244  0.77960197  0.93184034  1  0  -0.575153  0  2.02557  0  0  -0.507806  0  2.271726  0  0  -0.535514  0  2.263627  0  0  -0.309379  -0.48864  0  2.276795  0
