# generated using pymatgen
data_Zn4H7C24S4BrO13
_symmetry_space_group_name_H-M   'P 1'
_cell_length_a   19.67603449
_cell_length_b   19.68471825
_cell_length_c   33.39480420
_cell_angle_alpha   79.13109358
_cell_angle_beta   79.15719396
_cell_angle_gamma   63.92979729
_symmetry_Int_Tables_number   1
_chemical_formula_structural   Zn4H7C24S4BrO13
_chemical_formula_sum   'Zn16 H28 C96 S16 Br4 O52'
_cell_volume   11328.47039736
_cell_formula_units_Z   4
loop_
 _symmetry_equiv_pos_site_id
 _symmetry_equiv_pos_as_xyz
  1  'x, y, z'
loop_
 _atom_site_type_symbol
 _atom_site_label
 _atom_site_symmetry_multiplicity
 _atom_site_fract_x
 _atom_site_fract_y
 _atom_site_fract_z
 _atom_site_occupancy
 _atom_site_pbe_bader_charge
 _atom_site_pbe_bader_spin_density
 _atom_site_pbe_cm5_charge
 _atom_site_pbe_ddec_charge
 _atom_site_pbe_ddec_spin_density
 _atom_site_pbe_ddec_sum_bond_order
 _atom_site_pbe_magmom
Zn  Zn0  1  0.05469334  0.40018634  0.47794211  1  1.315771  0  0.671812  0.972127  0  2.344406  0
Zn  Zn1  1  0.98425695  0.48328560  0.56093281  1  1.303905  0  0.670914  0.965704  0  2.351357  0
Zn  Zn2  1  0.05984064  0.55923036  0.48210214  1  1.320119  0  0.672309  0.967074  0  2.388711  0
Zn  Zn3  1  0.90152589  0.55622294  0.47939316  1  1.31884  0  0.672443  0.967231  0  2.387444  0
Zn  Zn4  1  0.69418516  0.34912491  0.27195981  1  1.315386  0  0.67211  0.968426  0  2.366351  0
Zn  Zn5  1  0.68937989  0.18921434  0.26629787  1  1.311177  0  0.671665  0.969795  0  2.344348  0
Zn  Zn6  1  0.76793363  0.26799113  0.19061739  1  1.314837  0  0.672198  0.967473  0  2.384568  0
Zn  Zn7  1  0.84881780  0.19481205  0.27213538  1  1.315557  0  0.670774  0.961579  0  2.37088  0
Zn  Zn8  1  0.26704523  0.76636311  0.68966356  1  1.311329  0  0.671184  0.961377  0  2.374537  0
Zn  Zn9  1  0.34932109  0.69532591  0.77220778  1  1.316161  0  0.671769  0.96994  0  2.34506  0
Zn  Zn10  1  0.19338696  0.84790050  0.77088229  1  1.316964  0  0.672694  0.970449  0  2.382687  0
Zn  Zn11  1  0.18980518  0.68899947  0.76671062  1  1.313511  0  0.671267  0.965992  0  2.366336  0
Zn  Zn12  1  0.56020463  0.06034075  0.98319034  1  1.316946  0  0.671912  0.965354  0  2.367194  0
Zn  Zn13  1  0.40122766  0.05511100  0.97827682  1  1.313919  0  0.671624  0.961966  0  2.372571  0
Zn  Zn14  1  0.55512320  0.90121074  0.97820325  1  1.314338  0  0.6715  0.967649  0  2.365937  0
Zn  Zn15  1  0.48330111  0.98354047  0.06039116  1  1.312188  0  0.671752  0.966369  0  2.364854  0
H  H16  1  0.95448122  0.24894906  0.35167060  1  0.093646  0  0.111267  0.117903  0  0.990364  0
H  H17  1  0.74706645  0.45341579  0.35007321  1  0.134114  0  0.110076  0.128618  0  0.998169  0
H  H18  1  0.99915540  0.30043009  0.39977939  1  0.124703  0  0.112743  0.120854  0  0.990422  0
H  H19  1  0.09694657  0.59675397  0.69970284  1  0.121016  0  0.111785  0.118554  0  0.990372  0
H  H20  1  0.20142990  0.70148834  0.59825973  1  0.084005  0  0.109074  0.127122  0  1.000114  0
H  H21  1  0.05059128  0.55053801  0.64983423  1  0.095923  0  0.112475  0.119871  0  0.99271  0
H  H22  1  0.28576083  0.51024031  0.40930132  1  0.136354  0  0.121339  0.147584  0  0.970042  0
H  H23  1  0.46415354  0.23912791  0.34069737  1  0.124797  0  0.120811  0.146863  0  0.969905  0
H  H24  1  0.77162759  0.54689597  0.64868768  1  0.100546  0  0.120536  0.146422  0  0.970235  0
H  H25  1  0.47857305  0.70277560  0.60158130  1  0.114196  0  0.121563  0.14813  0  0.968363  0
H  H26  1  0.04724892  0.27118595  0.64850813  1  0.113857  0  0.120805  0.14736  0  0.969537  0
H  H27  1  0.20313928  0.97834121  0.60145948  1  0.105143  0  0.121231  0.147472  0  0.96882  0
H  H28  1  0.80082147  0.77912215  0.40233106  1  0.137038  0  0.121229  0.14716  0  0.969736  0
H  H29  1  0.94914211  0.97092499  0.34778068  1  0.132309  0  0.120678  0.146376  0  0.969693  0
H  H30  1  0.55033619  0.05044076  0.15314024  1  0.105252  0  0.111821  0.118427  0  0.990286  0
H  H31  1  0.65177052  0.15187995  0.04855154  1  0.10303  0  0.109613  0.128051  0  0.999332  0
H  H32  1  0.60025530  0.10014823  0.19944112  1  0.082911  0  0.112564  0.120526  0  0.991647  0
H  H33  1  0.70283719  0.47864997  0.10178318  1  0.117502  0  0.121465  0.148228  0  0.97062  0
H  H34  1  0.54694028  0.77192901  0.14827292  1  0.111348  0  0.121226  0.147672  0  0.969168  0
H  H35  1  0.08700812  0.10836247  0.21011124  1  0.126486  0  0.120905  0.147429  0  0.96991  0
H  H36  1  0.16334183  0.14117825  0.04008400  1  0.130282  0  0.12139  0.147274  0  0.969252  0
H  H37  1  0.50120041  0.79539759  0.89838758  1  0.093375  0  0.112319  0.119544  0  0.989743  0
H  H38  1  0.29679696  0.00291553  0.89977568  1  0.133756  0  0.109091  0.126907  0  1.000285  0
H  H39  1  0.44971913  0.75080659  0.85028130  1  0.097317  0  0.112451  0.120246  0  0.991048  0
H  H40  1  0.44897195  0.47094678  0.84769098  1  0.135443  0  0.12141  0.147335  0  0.968987  0
H  H41  1  0.30090358  0.27892219  0.90231744  1  0.133563  0  0.121134  0.147164  0  0.969153  0
H  H42  1  0.96359366  0.73893431  0.84079629  1  0.124584  0  0.120808  0.147072  0  0.969801  0
H  H43  1  0.78612496  0.01039635  0.90924745  1  0.13493  0  0.121697  0.148202  0  0.968282  0
C  C44  1  0.06136819  0.31584747  0.56175571  1  1.56939  0  0.218065  0.611527  0  4.218635  0
C  C45  1  0.06875230  0.56908976  0.56938032  1  1.583658  0  0.228275  0.616187  0  4.158951  0
C  C46  1  0.18396265  0.43856817  0.43828773  1  1.572067  0  0.217277  0.609425  0  4.216597  0
C  C47  1  0.93807483  0.68421459  0.43850027  1  1.542937  0  0.216935  0.606858  0  4.219982  0
C  C48  1  0.93153657  0.43019620  0.43086193  1  1.573439  0  0.227549  0.615054  0  4.15891  0
C  C49  1  0.81622462  0.56156583  0.56198123  1  1.558751  0  0.217039  0.60763  0  4.223027  0
C  C50  1  0.56564493  0.31116025  0.31130624  1  1.565688  0  0.218467  0.613271  0  4.214516  0
C  C51  1  0.68076422  0.18070022  0.18113795  1  1.528075  0  0.227153  0.614411  0  4.159406  0
C  C52  1  0.68899825  0.43452220  0.18858586  1  1.566179  0  0.217682  0.610355  0  4.216754  0
C  C53  1  0.93471891  0.18882814  0.18902243  1  1.551869  0  0.216863  0.609277  0  4.216694  0
C  C54  1  0.81955330  0.31947453  0.31938812  1  1.556176  0  0.231103  0.605873  0  4.160298  0
C  C55  1  0.81191995  0.06585186  0.31144975  1  1.544168  0  0.217847  0.611282  0  4.214294  0
C  C56  1  0.43394777  0.68893483  0.68834000  1  1.561249  0  0.217405  0.610658  0  4.218058  0
C  C57  1  0.31975591  0.81842112  0.81914261  1  1.571709  0  0.227449  0.614231  0  4.158371  0
C  C58  1  0.18864038  0.93356333  0.68814503  1  1.556997  0  0.217349  0.608972  0  4.221181  0
C  C59  1  0.06530397  0.81067122  0.81116111  1  1.58804  0  0.217599  0.609933  0  4.219715  0
C  C60  1  0.18044892  0.68052284  0.68060103  1  1.551378  0  0.231199  0.606447  0  4.16367  0
C  C61  1  0.31161865  0.56573674  0.81140703  1  1.539733  0  0.218424  0.612689  0  4.213194  0
C  C62  1  0.43815678  0.18409498  0.93860042  1  1.542579  0  0.217619  0.61054  0  4.214319  0
C  C63  1  0.43074094  0.93042103  0.93060502  1  1.564611  0  0.231221  0.605844  0  4.161447  0
C  C64  1  0.68400261  0.93899641  0.93859063  1  1.542016  0  0.218215  0.612229  0  4.213328  0
C  C65  1  0.56122713  0.81621554  0.06152360  1  1.562179  0  0.217088  0.61004  0  4.21733  0
C  C66  1  0.56936354  0.06946470  0.06947560  1  1.557174  0  0.230604  0.604364  0  4.164808  0
C  C67  1  0.31568744  0.06170469  0.06124844  1  1.528737  0  0.217994  0.611957  0  4.217764  0
C  C68  1  0.89915429  0.40522526  0.40213075  1  -0.030323  0  -0.014472  -0.079441  0  3.916648  0
C  C69  1  0.84800961  0.34843609  0.34802961  1  -0.063738  0  -0.009076  -0.00914  0  3.967164  0
C  C70  1  0.82730499  0.44845063  0.38777924  1  -0.031845  0  -0.002803  0.108282  0  3.909292  0
C  C71  1  0.91942166  0.30467521  0.36193962  1  0.022489  0  -0.080728  -0.096973  0  3.976258  0
C  C72  1  0.80245456  0.41996953  0.36102450  1  0.008373  0  -0.086308  -0.148573  0  3.955132  0
C  C73  1  0.94392672  0.33324204  0.38851019  1  -0.035529  0  -0.076835  -0.07765  0  3.966317  0
C  C74  1  0.09929283  0.59956924  0.59626869  1  0.026499  0  -0.01507  -0.079539  0  3.917561  0
C  C75  1  0.15194129  0.65198410  0.65178323  1  -0.102758  0  -0.009606  -0.009371  0  3.966185  0
C  C76  1  0.14239817  0.64265924  0.58184623  1  -0.102845  0  -0.002456  0.108755  0  3.910665  0
C  C77  1  0.10932509  0.60928352  0.66669607  1  0.017801  0  -0.080779  -0.097443  0  3.976403  0
C  C78  1  0.16822261  0.66835479  0.60949291  1  0.076923  0  -0.086028  -0.147882  0  3.957671  0
C  C79  1  0.08378850  0.58384114  0.63908320  1  0.00151  0  -0.076875  -0.077126  0  3.968676  0
C  C80  1  0.30342759  0.45341729  0.40121395  1  0.03727  0  -0.088654  -0.135336  0  3.967046  0
C  C81  1  0.44657274  0.29591543  0.34879905  1  0.037616  0  -0.088967  -0.136019  0  3.973156  0
C  C82  1  0.25895492  0.41308448  0.41356664  1  -0.208844  0  -0.024989  -0.118484  0  3.988861  0
C  C83  1  0.49097740  0.33628448  0.33636684  1  -0.172742  0  -0.025456  -0.120216  0  3.991557  0
C  C84  1  0.37834865  0.33838591  0.37245626  1  -0.146811  0  -0.021929  -0.009004  0  4.068959  0
C  C85  1  0.37177086  0.41084444  0.37767441  1  -0.133082  0  -0.020761  -0.006545  0  4.064446  0
C  C86  1  0.72644893  0.57594785  0.62898196  1  -0.001028  0  -0.089178  -0.137486  0  3.974434  0
C  C87  1  0.52373520  0.67370990  0.62129361  1  0.027097  0  -0.088449  -0.135422  0  3.969836  0
C  C88  1  0.74117637  0.58628220  0.58662135  1  -0.09404  0  -0.024847  -0.116704  0  3.988366  0
C  C89  1  0.50901361  0.66352959  0.66367069  1  -0.085123  0  -0.025612  -0.118909  0  3.989852  0
C  C90  1  0.60283446  0.64186749  0.60860205  1  -0.197838  0  -0.021783  -0.009806  0  4.067528  0
C  C91  1  0.64736185  0.60771964  0.64165860  1  -0.161385  0  -0.021521  -0.006048  0  4.067928  0
C  C92  1  0.07633392  0.22603118  0.62882393  1  -0.00572  0  -0.089016  -0.137145  0  3.973227  0
C  C93  1  0.17412909  0.02344649  0.62117576  1  0.037132  0  -0.088505  -0.135595  0  3.972009  0
C  C94  1  0.08654843  0.24078071  0.58644748  1  -0.08649  0  -0.025084  -0.118042  0  3.989213  0
C  C95  1  0.16379183  0.00864032  0.66354023  1  -0.092407  0  -0.025264  -0.118324  0  3.98903  0
C  C96  1  0.14231506  0.10251431  0.60849604  1  -0.214059  0  -0.021949  -0.008468  0  4.068962  0
C  C97  1  0.10813122  0.14696536  0.64154986  1  -0.154189  0  -0.021749  -0.008585  0  4.068798  0
C  C98  1  0.84487430  0.79998130  0.39759804  1  0.096245  0  -0.087735  -0.133968  0  3.966728  0
C  C99  1  0.90507636  0.95010214  0.35245995  1  0.100337  0  -0.08868  -0.134771  0  3.970858  0
C  C100  1  0.91363901  0.75899882  0.41359346  1  -0.204649  0  -0.024761  -0.116801  0  3.986785  0
C  C101  1  0.83635522  0.99105854  0.33641264  1  -0.205677  0  -0.02547  -0.119505  0  3.989381  0
C  C102  1  0.90835918  0.88049243  0.37468357  1  -0.181807  0  -0.022072  -0.009012  0  4.067306  0
C  C103  1  0.84172593  0.86947403  0.37528301  1  -0.179903  0  -0.021417  -0.007772  0  4.065931  0
C  C104  1  0.65389650  0.15377539  0.15059610  1  0.052591  0  -0.014299  -0.078499  0  3.912413  0
C  C105  1  0.59820652  0.09833382  0.09800015  1  0.024968  0  -0.008223  -0.008019  0  3.965502  0
C  C106  1  0.66828329  0.16819673  0.10748356  1  -0.110351  0  -0.002636  0.108333  0  3.908468  0
C  C107  1  0.58336125  0.08342866  0.14068045  1  -0.03092  0  -0.081318  -0.097262  0  3.976299  0
C  C108  1  0.64053877  0.14060722  0.08171876  1  0.00119  0  -0.08693  -0.149239  0  3.957839  0
C  C109  1  0.61102912  0.11097046  0.16618924  1  -0.005163  0  -0.076115  -0.077229  0  3.967413  0
C  C110  1  0.67374887  0.52394114  0.12138525  1  0.019921  0  -0.088002  -0.135556  0  3.969204  0
C  C111  1  0.57596943  0.72668604  0.12864329  1  0.027835  0  -0.088593  -0.136326  0  3.971522  0
C  C112  1  0.66353707  0.50946788  0.16378170  1  -0.082805  0  -0.024893  -0.11808  0  3.986356  0
C  C113  1  0.58622713  0.74122894  0.08625615  1  -0.084074  0  -0.025466  -0.118761  0  3.988358  0
C  C114  1  0.60768122  0.64767050  0.14149431  1  -0.206216  0  -0.021104  -0.007461  0  4.067247  0
C  C115  1  0.64182135  0.60297033  0.10853098  1  -0.194546  0  -0.021726  -0.008344  0  4.067127  0
C  C116  1  0.08009334  0.12462415  0.17766481  1  0.021678  0  -0.088971  -0.137554  0  3.973851  0
C  C117  1  0.17023059  0.12484371  0.07253098  1  0.02392  0  -0.088158  -0.134467  0  3.969486  0
C  C118  1  0.00922334  0.16354475  0.16379742  1  -0.151765  0  -0.024672  -0.117741  0  3.988141  0
C  C119  1  0.24112385  0.08617530  0.08641577  1  -0.12073  0  -0.025202  -0.119622  0  3.989385  0
C  C120  1  0.11152561  0.13884067  0.10567930  1  -0.169083  0  -0.02162  -0.008022  0  4.065251  0
C  C121  1  0.13873450  0.11044156  0.14449776  1  -0.21369  0  -0.021745  -0.007535  0  4.067932  0
C  C122  1  0.34490730  0.85078718  0.84783057  1  0.082122  0  -0.014314  -0.078496  0  3.912774  0
C  C123  1  0.40182035  0.90200632  0.90191496  1  -0.047469  0  -0.008892  -0.008952  0  3.965712  0
C  C124  1  0.30174950  0.92265669  0.86212233  1  -0.130874  0  -0.003696  0.106023  0  3.910748  0
C  C125  1  0.44549357  0.83055532  0.88807732  1  0.031579  0  -0.080728  -0.097677  0  3.974123  0
C  C126  1  0.33027401  0.94754118  0.88884917  1  -0.007986  0  -0.086495  -0.147685  0  3.956671  0
C  C127  1  0.41690377  0.80604377  0.86150332  1  -0.02898  0  -0.076229  -0.07644  0  3.964431  0
C  C128  1  0.40495684  0.45004562  0.85240920  1  0.099886  0  -0.08864  -0.134952  0  3.969019  0
C  C129  1  0.34494088  0.29979330  0.89761236  1  0.097562  0  -0.088195  -0.135062  0  3.969717  0
C  C130  1  0.33625193  0.49089609  0.83634947  1  -0.21173  0  -0.025296  -0.118965  0  3.98726  0
C  C131  1  0.41366526  0.25889439  0.91366924  1  -0.202668  0  -0.025268  -0.119348  0  3.98896  0
C  C132  1  0.34171508  0.36931067  0.87529166  1  -0.175173  0  -0.021707  -0.007472  0  4.065964  0
C  C133  1  0.40827979  0.38043990  0.87468912  1  -0.185156  0  -0.02145  -0.008536  0  4.065076  0
C  C134  1  0.94614288  0.79574655  0.84883326  1  0.034758  0  -0.088805  -0.136732  0  3.972807  0
C  C135  1  0.80352701  0.95358567  0.90122270  1  0.034356  0  -0.088295  -0.135234  0  3.969209  0
C  C136  1  0.99072658  0.83591902  0.83630656  1  -0.191234  0  -0.024752  -0.118139  0  3.988884  0
C  C137  1  0.75884033  0.91350519  0.91369907  1  -0.174998  0  -0.024936  -0.119354  0  3.989151  0
C  C138  1  0.87170933  0.91083297  0.87762044  1  -0.151901  0  -0.021048  -0.007876  0  4.064821  0
C  C139  1  0.87800599  0.83843078  0.87248654  1  -0.135182  0  -0.021635  -0.007582  0  4.066358  0
S  S140  1  0.29978770  0.32350344  0.39681379  1  0.264659  0  0.081717  0.119919  0  2.728759  0
S  S141  1  0.45029558  0.42575847  0.35326317  1  0.260886  0  0.083626  0.122448  0  2.727774  0
S  S142  1  0.65937639  0.63436899  0.56200217  1  0.257475  0  0.083832  0.122658  0  2.728437  0
S  S143  1  0.59084010  0.61536271  0.68825766  1  0.257322  0  0.080334  0.117542  0  2.730979  0
S  S144  1  0.13473845  0.15903463  0.56188025  1  0.264902  0  0.082408  0.120654  0  2.729825  0
S  S145  1  0.11562664  0.09038603  0.68815061  1  0.250867  0  0.082967  0.121691  0  2.72825  0
S  S146  1  0.97461045  0.80444969  0.40170516  1  0.268646  0  0.082822  0.120731  0  2.730148  0
S  S147  1  0.77553772  0.94544487  0.34820161  1  0.264769  0  0.08155  0.119712  0  2.729395  0
S  S148  1  0.61523067  0.59141104  0.18819521  1  0.262335  0  0.083735  0.122313  0  2.727087  0
S  S149  1  0.63431963  0.65926308  0.06183148  1  0.267502  0  0.082276  0.1206  0  2.726761  0
S  S150  1  0.01334532  0.18296474  0.11058312  1  0.267145  0  0.084018  0.122678  0  2.727495  0
S  S151  1  0.23691061  0.06659811  0.13962471  1  0.287388  0  0.081104  0.119252  0  2.729531  0
S  S152  1  0.27548731  0.44520519  0.84818451  1  0.275034  0  0.081133  0.118648  0  2.729802  0
S  S153  1  0.47448766  0.30452004  0.90180388  1  0.26338  0  0.082469  0.120893  0  2.727881  0
S  S154  1  0.95033818  0.92545148  0.85311202  1  0.261783  0  0.084616  0.123577  0  2.728881  0
S  S155  1  0.79929980  0.82390081  0.89694073  1  0.264989  0  0.081742  0.119889  0  2.728334  0
Br  Br156  1  0.75703707  0.54670328  0.40204962  1  -0.031125  0  0.016702  -0.063064  0  1.387314  0
Br  Br157  1  0.17045399  0.67074938  0.52555850  1  -0.035302  0  0.016055  -0.063898  0  1.386765  0
Br  Br158  1  0.72471782  0.22431694  0.07935520  1  -0.028588  0  0.016297  -0.063273  0  1.385644  0
Br  Br159  1  0.20341941  0.99287178  0.84786385  1  -0.029769  0  0.017684  -0.061794  0  1.389548  0
O  O160  1  0.00055933  0.49831632  0.50058632  1  -1.21835  0  -0.570558  -1.029262  0  2.521468  0
O  O161  1  0.07706562  0.31569867  0.52277084  1  -1.176886  0  -0.320433  -0.54896  0  2.333797  0
O  O162  1  0.03096259  0.53083285  0.58751289  1  -1.154607  0  -0.314282  -0.544644  0  2.319606  0
O  O163  1  0.15655495  0.50528564  0.44923735  1  -1.169641  0  -0.316464  -0.537167  0  2.318696  0
O  O164  1  0.02631064  0.37398903  0.58134581  1  -1.174782  0  -0.317872  -0.541442  0  2.312156  0
O  O165  1  0.15292312  0.39163743  0.44650403  1  -1.160437  0  -0.320146  -0.549551  0  2.330614  0
O  O166  1  0.08255289  0.58343579  0.53082563  1  -1.190249  0  -0.314301  -0.546768  0  2.455822  0
O  O167  1  0.00512392  0.65611782  0.44935132  1  -1.172462  0  -0.319366  -0.546336  0  2.340514  0
O  O168  1  0.89120498  0.49505175  0.44308221  1  -1.17668  0  -0.314298  -0.547151  0  2.458594  0
O  O169  1  0.89061187  0.65399196  0.44711700  1  -1.155438  0  -0.315376  -0.53617  0  2.317323  0
O  O170  1  0.99759117  0.38398641  0.44085621  1  -1.164975  0  -0.312868  -0.542157  0  2.316776  0
O  O171  1  0.87462285  0.52597749  0.58136499  1  -1.164441  0  -0.316898  -0.540777  0  2.311867  0
O  O172  1  0.81582255  0.57836675  0.52303267  1  -1.168305  0  -0.319338  -0.544511  0  2.342673  0
O  O173  1  0.74972802  0.24980910  0.25078227  1  -1.219969  0  -0.570256  -1.02943  0  2.521066  0
O  O174  1  0.59645771  0.35833874  0.30349848  1  -1.181428  0  -0.321131  -0.549022  0  2.333469  0
O  O175  1  0.66264517  0.16263719  0.21917170  1  -1.147771  0  -0.31277  -0.542778  0  2.318356  0
O  O176  1  0.72513346  0.37632971  0.16909104  1  -1.169432  0  -0.316082  -0.537948  0  2.318407  0
O  O177  1  0.59289657  0.24507752  0.29960989  1  -1.173187  0  -0.317196  -0.542136  0  2.310904  0
O  O178  1  0.67267466  0.43444469  0.22757129  1  -1.179868  0  -0.319936  -0.548944  0  2.332662  0
O  O179  1  0.71931536  0.21928034  0.16705816  1  -1.152768  0  -0.314213  -0.547133  0  2.456076  0
O  O180  1  0.87636410  0.22497076  0.16946746  1  -1.162162  0  -0.318916  -0.54528  0  2.339407  0
O  O181  1  0.86350009  0.25374043  0.30856545  1  -1.163805  0  -0.31252  -0.543976  0  2.334476  0
O  O182  1  0.93469443  0.17276039  0.22792145  1  -1.143348  0  -0.316922  -0.540571  0  2.311476  0
O  O183  1  0.75394512  0.36290665  0.30824837  1  -1.165138  0  -0.311188  -0.538085  0  2.335552  0
O  O184  1  0.74566037  0.09312562  0.29970356  1  -1.176253  0  -0.320673  -0.550683  0  2.332603  0
O  O185  1  0.85888765  0.09670296  0.30374977  1  -1.155951  0  -0.318015  -0.53998  0  2.311935  0
O  O186  1  0.25073671  0.74858050  0.74987605  1  -1.225549  0  -0.570135  -1.029643  0  2.522392  0
O  O187  1  0.37581162  0.72418612  0.66869942  1  -1.167663  0  -0.317159  -0.539039  0  2.314702  0
O  O188  1  0.36594936  0.75240635  0.80913538  1  -1.163279  0  -0.313403  -0.543254  0  2.317986  0
O  O189  1  0.17203673  0.93353318  0.72711437  1  -1.171921  0  -0.319572  -0.546335  0  2.341924  0
O  O190  1  0.43387964  0.67332745  0.72734737  1  -1.180724  0  -0.320854  -0.550853  0  2.334345  0
O  O191  1  0.22429248  0.87532305  0.66864940  1  -1.160084  0  -0.31726  -0.540121  0  2.314115  0
O  O192  1  0.25479824  0.85867516  0.80697429  1  -1.176838  0  -0.313416  -0.54548  0  2.454709  0
O  O193  1  0.09599244  0.85792231  0.80301098  1  -1.174473  0  -0.318727  -0.544984  0  2.340979  0
O  O194  1  0.16383847  0.66406909  0.71890396  1  -1.167404  0  -0.311666  -0.543461  0  2.335443  0
O  O195  1  0.09274683  0.74436784  0.79969167  1  -1.16909  0  -0.317576  -0.541231  0  2.310875  0
O  O196  1  0.21883647  0.71888647  0.66440465  1  -1.155337  0  -0.312143  -0.539618  0  2.338544  0
O  O197  1  0.35820386  0.59695941  0.80365877  1  -1.154577  0  -0.317009  -0.541518  0  2.3093  0
O  O198  1  0.24525747  0.59265053  0.79976995  1  -1.175186  0  -0.321147  -0.549522  0  2.33407  0
O  O199  1  0.49997002  0.99995767  0.00007138  1  -1.227603  0  -0.570469  -1.029812  0  2.523473  0
O  O200  1  0.50455646  0.15682575  0.95020725  1  -1.175191  0  -0.320723  -0.548963  0  2.334612  0
O  O201  1  0.38722678  0.99604983  0.94170363  1  -1.171185  0  -0.312175  -0.540022  0  2.337915  0
O  O202  1  0.65278378  0.89219748  0.94639163  1  -1.161209  0  -0.32089  -0.549665  0  2.333855  0
O  O203  1  0.39129334  0.15314290  0.94644320  1  -1.156543  0  -0.317296  -0.539973  0  2.311392  0
O  O204  1  0.65692523  0.00519193  0.95015860  1  -1.17098  0  -0.317257  -0.54016  0  2.311915  0
O  O205  1  0.49645296  0.88660721  0.94150935  1  -1.166995  0  -0.310738  -0.54104  0  2.332532  0
O  O206  1  0.57679365  0.81610089  0.02252197  1  -1.177812  0  -0.320078  -0.547805  0  2.334546  0
O  O207  1  0.53108347  0.03113925  0.08603109  1  -1.15695  0  -0.311444  -0.542492  0  2.334534  0
O  O208  1  0.52638254  0.87449046  0.08103389  1  -1.173951  0  -0.317247  -0.540553  0  2.313765  0
O  O209  1  0.58550450  0.08556278  0.03108106  1  -1.173872  0  -0.311309  -0.538295  0  2.336011  0
O  O210  1  0.31547233  0.07750144  0.02234825  1  -1.142097  0  -0.31724  -0.540317  0  2.312936  0
O  O211  1  0.37417712  0.02666680  0.08077390  1  -1.172754  0  -0.321048  -0.550149  0  2.336635  0
