# generated using pymatgen
data_CdH6C11N10
_symmetry_space_group_name_H-M   'P 1'
_cell_length_a   7.90261474
_cell_length_b   13.64956711
_cell_length_c   13.81111725
_cell_angle_alpha   110.79210742
_cell_angle_beta   94.61996455
_cell_angle_gamma   95.61106451
_symmetry_Int_Tables_number   1
_chemical_formula_structural   CdH6C11N10
_chemical_formula_sum   'Cd4 H24 C44 N40'
_cell_volume   1375.39644077
_cell_formula_units_Z   4
loop_
 _symmetry_equiv_pos_site_id
 _symmetry_equiv_pos_as_xyz
  1  'x, y, z'
loop_
 _atom_site_type_symbol
 _atom_site_label
 _atom_site_symmetry_multiplicity
 _atom_site_fract_x
 _atom_site_fract_y
 _atom_site_fract_z
 _atom_site_occupancy
 _atom_site_hle17_bader_spin_density
 _atom_site_hle17_ddec_charge
 _atom_site_hle17_ddec_spin_density
 _atom_site_hle17_ddec_sum_bond_order
 _atom_site_hle17_magmom
 _atom_site_hse06_10hf_bader_spin_density
 _atom_site_hse06_10hf_ddec_charge
 _atom_site_hse06_10hf_ddec_spin_density
 _atom_site_hse06_10hf_ddec_sum_bond_order
 _atom_site_hse06_10hf_magmom
 _atom_site_hse06_bader_spin_density
 _atom_site_hse06_ddec_charge
 _atom_site_hse06_ddec_spin_density
 _atom_site_hse06_ddec_sum_bond_order
 _atom_site_hse06_magmom
 _atom_site_pbe_bader_spin_density
 _atom_site_pbe_cm5_charge
 _atom_site_pbe_ddec_charge
 _atom_site_pbe_ddec_spin_density
 _atom_site_pbe_ddec_sum_bond_order
 _atom_site_pbe_magmom
Cd  Cd0  1  0.99999877  0.99999984  0.00000005  1  0  1.032639  0  1.900224  0  0  0.820627  0  2.37629  0  0  0.869083  0  2.334408  0  0  0.819281  0.786761  0  2.404618  0
Cd  Cd1  1  0.14019040  0.51800635  0.71126985  1  0  1.123257  0  1.893223  0  0  0.943625  0  2.373882  0  0  0.988695  0  2.330998  0  0  0.8373  0.912063  0  2.402957  0
Cd  Cd2  1  0.85980570  0.48199300  0.28872843  1  0  1.12322  0  1.893279  0  0  0.943587  0  2.37393  0  0  0.988656  0  2.331045  0  0  0.837309  0.912028  0  2.403002  0
Cd  Cd3  1  0.49999861  0.00000262  0.50000166  1  0  1.266612  0  1.787752  0  0  1.098286  0  2.277792  0  0  1.145134  0  2.226483  0  0  0.852164  1.065267  0  2.312861  0
H  H4  1  0.00873535  0.31862852  0.77704199  1  0  0.103454  0  0.938031  0  0  0.103156  0  1.015496  0  0  0.106423  0  1.012531  0  0  0.120671  0.100779  0  1.01763  0
H  H5  1  0.99125786  0.68136927  0.22295635  1  0  0.103445  0  0.938069  0  0  0.103152  0  1.015529  0  0  0.106417  0  1.012566  0  0  0.120678  0.100777  0  1.017659  0
H  H6  1  0.87366491  0.62131639  0.86697208  1  0  0.081258  0  0.94095  0  0  0.089475  0  1.007252  0  0  0.0914  0  1.005639  0  0  0.116493  0.087978  0  1.008521  0
H  H7  1  0.12633766  0.37868295  0.13303150  1  0  0.081313  0  0.940887  0  0  0.089507  0  1.007206  0  0  0.091428  0  1.005599  0  0  0.116503  0.088007  0  1.008478  0
H  H8  1  0.67238804  0.58484667  0.98615114  1  0  0.104896  0  0.953045  0  0  0.112694  0  1.015977  0  0  0.115791  0  1.015251  0  0  0.107183  0.110484  0  1.016636  0
H  H9  1  0.32761617  0.41515424  0.01385305  1  0  0.10495  0  0.953007  0  0  0.112752  0  1.015934  0  0  0.115849  0  1.015209  0  0  0.107199  0.110542  0  1.016595  0
H  H10  1  0.64589364  0.40641832  0.00127237  1  0  0.117969  0  0.947019  0  0  0.128019  0  1.00977  0  0  0.130658  0  1.007735  0  0  0.116237  0.126043  0  1.011294  0
H  H11  1  0.35410783  0.59358181  0.99873072  1  0  0.117992  0  0.947009  0  0  0.128042  0  1.009763  0  0  0.13068  0  1.007729  0  0  0.116247  0.126065  0  1.011288  0
H  H12  1  0.06725996  0.23323539  0.94284504  1  0  0.107394  0  0.923266  0  0  0.120377  0  0.98117  0  0  0.122311  0  0.978924  0  0  0.146812  0.118945  0  0.982785  0
H  H13  1  0.93274123  0.76676394  0.05715414  1  0  0.107414  0  0.923257  0  0  0.120384  0  0.981174  0  0  0.122318  0  0.978927  0  0  0.146805  0.118952  0  0.98279  0
H  H14  1  0.53483642  0.19053612  0.84691878  1  0  0.116148  0  0.901617  0  0  0.128693  0  0.954794  0  0  0.130899  0  0.952696  0  0  0.149545  0.127061  0  0.956359  0
H  H15  1  0.46515976  0.80946325  0.15308239  1  0  0.116198  0  0.901668  0  0  0.128682  0  0.954914  0  0  0.130906  0  0.952794  0  0  0.149543  0.12705  0  0.956477  0
H  H16  1  0.08816981  0.13927723  0.24295945  1  0  0.097279  0  0.933959  0  0  0.10406  0  1.001304  0  0  0.106931  0  0.998744  0  0  0.121063  0.101957  0  1.003197  0
H  H17  1  0.91183379  0.86072130  0.75704172  1  0  0.097292  0  0.933936  0  0  0.104061  0  1.001305  0  0  0.106932  0  0.998744  0  0  0.121043  0.101955  0  1.003195  0
H  H18  1  0.61684538  0.01246301  0.06414981  1  0  0.072949  0  0.960059  0  0  0.077115  0  1.036648  0  0  0.079612  0  1.034122  0  0  0.110892  0.07526  0  1.038548  0
H  H19  1  0.38315666  0.98753395  0.93585364  1  0  0.073045  0  0.959967  0  0  0.07716  0  1.036625  0  0  0.079658  0  1.034098  0  0  0.110894  0.075305  0  1.038526  0
H  H20  1  0.45850510  0.09224208  0.21588747  1  0  0.113315  0  0.957839  0  0  0.117788  0  1.024218  0  0  0.121126  0  1.023094  0  0  0.108887  0.115406  0  1.02515  0
H  H21  1  0.54149837  0.90775566  0.78411558  1  0  0.113303  0  0.957875  0  0  0.117769  0  1.024259  0  0  0.121107  0  1.023135  0  0  0.108875  0.115383  0  1.025196  0
H  H22  1  0.62732049  0.19680611  0.39149147  1  0  0.122803  0  0.966602  0  0  0.131639  0  1.027493  0  0  0.13465  0  1.025558  0  0  0.113585  0.129425  0  1.028957  0
H  H23  1  0.37268856  0.80319398  0.60851117  1  0  0.122761  0  0.966639  0  0  0.131638  0  1.02748  0  0  0.134649  0  1.025547  0  0  0.113573  0.129424  0  1.028946  0
H  H24  1  0.18653280  0.14224048  0.42261209  1  0  0.107204  0  0.965368  0  0  0.114113  0  1.033214  0  0  0.116092  0  1.031529  0  0  0.136881  0.11266  0  1.034401  0
H  H25  1  0.81347471  0.85775881  0.57738659  1  0  0.107179  0  0.965401  0  0  0.114097  0  1.033216  0  0  0.116077  0  1.031527  0  0  0.136875  0.112645  0  1.034403  0
H  H26  1  0.83070733  0.36373557  0.49515562  1  0  0.119217  0  0.942825  0  0  0.126983  0  1.00768  0  0  0.129432  0  1.004958  0  0  0.143289  0.125167  0  1.009657  0
H  H27  1  0.16929332  0.63626139  0.50484343  1  0  0.11921  0  0.942867  0  0  0.126974  0  1.007725  0  0  0.129425  0  1.005  0  0  0.14329  0.125157  0  1.009704  0
C  C28  1  0.93352443  0.37620432  0.82499492  1  0  0.065652  0  3.674252  0  0  0.025486  0  3.935651  0  0  0.03163  0  3.951958  0  0  0.056464  0.021301  0  3.925141  0
C  C29  1  0.06647169  0.62379504  0.17500408  1  0  0.065664  0  3.674234  0  0  0.0255  0  3.935626  0  0  0.031644  0  3.951933  0  0  0.05649  0.021311  0  3.925114  0
C  C30  1  0.85646211  0.54481047  0.87587183  1  0  0.122212  0  3.703381  0  0  0.085907  0  3.960895  0  0  0.092502  0  3.98017  0  0  0.049103  0.081702  0  3.947787  0
C  C31  1  0.14353934  0.45518966  0.12413054  1  0  0.122183  0  3.703354  0  0  0.085891  0  3.960876  0  0  0.092491  0  3.980152  0  0  0.049121  0.08169  0  3.947761  0
C  C32  1  0.74500355  0.52415848  0.94145805  1  0  -0.091052  0  3.723696  0  0  -0.10213  0  3.977129  0  0  -0.109252  0  3.999241  0  0  -0.077084  -0.097609  0  3.962289  0
C  C33  1  0.25499623  0.47584007  0.05854225  1  0  -0.09114  0  3.723584  0  0  -0.102228  0  3.977034  0  0  -0.10935  0  3.999143  0  0  -0.077125  -0.097705  0  3.962193  0
C  C34  1  0.72805652  0.42465080  0.94866784  1  0  -0.06076  0  3.658412  0  0  -0.088886  0  3.908394  0  0  -0.086399  0  3.926155  0  0  -0.057294  -0.090137  0  3.896325  0
C  C35  1  0.27194455  0.57534774  0.05133323  1  0  -0.060761  0  3.658282  0  0  -0.088881  0  3.908288  0  0  -0.086391  0  3.926048  0  0  -0.057294  -0.090132  0  3.896219  0
C  C36  1  0.82230801  0.34962836  0.88807193  1  0  0.125982  0  3.768397  0  0  0.119927  0  4.022924  0  0  0.119778  0  4.046222  0  0  0.099825  0.119697  0  4.007278  0
C  C37  1  0.17768833  0.65037180  0.11192880  1  0  0.125933  0  3.768293  0  0  0.119857  0  4.022866  0  0  0.119707  0  4.046162  0  0  0.099793  0.11963  0  4.007218  0
C  C38  1  0.93396653  0.19868100  0.92222553  1  0  0.178358  0  3.65178  0  0  0.108485  0  3.926789  0  0  0.122391  0  3.938817  0  0  0.164367  0.099429  0  3.918429  0
C  C39  1  0.06602903  0.80131598  0.07777262  1  0  0.178198  0  3.651705  0  0  0.108346  0  3.92672  0  0  0.122252  0  3.938745  0  0  0.164325  0.09929  0  3.918358  0
C  C40  1  0.65915473  0.17698534  0.87509660  1  0  0.166189  0  3.633342  0  0  0.105593  0  3.914612  0  0  0.116981  0  3.926095  0  0  0.163327  0.09814  0  3.906723  0
C  C41  1  0.34083998  0.82301324  0.12490353  1  0  0.166154  0  3.633574  0  0  0.105603  0  3.914835  0  0  0.116974  0  3.926315  0  0  0.163389  0.09815  0  3.906945  0
C  C42  1  0.94894784  0.12939268  0.24070502  1  0  0.054287  0  3.680958  0  0  0.014208  0  3.937716  0  0  0.019746  0  3.954652  0  0  0.049181  0.01066  0  3.926215  0
C  C43  1  0.05105598  0.87060664  0.75929788  1  0  0.05437  0  3.681065  0  0  0.014301  0  3.937812  0  0  0.01984  0  3.954746  0  0  0.049304  0.010756  0  3.926307  0
C  C44  1  0.68531063  0.06041445  0.14071830  1  0  0.12236  0  3.705415  0  0  0.087479  0  3.958946  0  0  0.093795  0  3.978074  0  0  0.044173  0.083407  0  3.945927  0
C  C45  1  0.31469282  0.93958329  0.85928402  1  0  0.122139  0  3.705525  0  0  0.08729  0  3.959054  0  0  0.093603  0  3.978185  0  0  0.044118  0.08322  0  3.946037  0
C  C46  1  0.59777730  0.10610504  0.22557426  1  0  -0.091914  0  3.723569  0  0  -0.101779  0  3.97354  0  0  -0.108656  0  3.995411  0  0  -0.076304  -0.0974  0  3.95889  0
C  C47  1  0.40222888  0.89389348  0.77442844  1  0  -0.091759  0  3.723626  0  0  -0.101611  0  3.973578  0  0  -0.108486  0  3.995451  0  0  -0.076253  -0.097229  0  3.958934  0
C  C48  1  0.69111021  0.16456672  0.32209676  1  0  -0.061728  0  3.659729  0  0  -0.088654  0  3.908393  0  0  -0.087232  0  3.926524  0  0  -0.057723  -0.089266  0  3.89609  0
C  C49  1  0.30889613  0.83543259  0.67790551  1  0  -0.061679  0  3.659801  0  0  -0.088635  0  3.908476  0  0  -0.087214  0  3.926606  0  0  -0.057654  -0.089246  0  3.896171  0
C  C50  1  0.86947428  0.17525555  0.32945252  1  0  0.141832  0  3.765519  0  0  0.137586  0  4.014323  0  0  0.13816  0  4.038122  0  0  0.106348  0.136867  0  3.998427  0
C  C51  1  0.13053202  0.82474376  0.67054830  1  0  0.141697  0  3.765579  0  0  0.137468  0  4.014439  0  0  0.138044  0  4.038236  0  0  0.106225  0.136749  0  3.998542  0
C  C52  1  0.12462556  0.21012387  0.46379193  1  0  0.146486  0  3.637486  0  0  0.089667  0  3.912773  0  0  0.100329  0  3.925891  0  0  0.153791  0.082748  0  3.903766  0
C  C53  1  0.87537955  0.78987623  0.53620477  1  0  0.14644  0  3.637599  0  0  0.089657  0  3.912911  0  0  0.100323  0  3.926027  0  0  0.153766  0.082736  0  3.903902  0
C  C54  1  0.93796516  0.32179255  0.50260887  1  0  0.190531  0  3.61032  0  0  0.126549  0  3.877279  0  0  0.140435  0  3.888871  0  0  0.167846  0.117533  0  3.869193  0
C  C55  1  0.06203959  0.67820597  0.49738799  1  0  0.190447  0  3.610371  0  0  0.126499  0  3.877352  0  0  0.140383  0  3.888945  0  0  0.167794  0.11748  0  3.869267  0
C  C56  1  0.82915498  0.92272708  0.35292264  1  0  0.505931  0  3.994274  0  0  0.46838  0  4.279327  0  0  0.494058  0  4.291558  0  0  0.295945  0.450776  0  4.270768  0
C  C57  1  0.17084264  0.07727861  0.64707937  1  0  0.506022  0  3.994314  0  0  0.468462  0  4.279344  0  0  0.494146  0  4.29157  0  0  0.295915  0.450857  0  4.270793  0
C  C58  1  0.12075119  0.93397866  0.34956111  1  0  0.503121  0  3.987905  0  0  0.463475  0  4.275596  0  0  0.489591  0  4.287077  0  0  0.296165  0.445623  0  4.26746  0
C  C59  1  0.87924300  0.06602309  0.65044083  1  0  0.502991  0  3.98775  0  0  0.463323  0  4.275456  0  0  0.489446  0  4.286934  0  0  0.295975  0.445472  0  4.267321  0
C  C60  1  0.54903723  0.25768353  0.60798463  1  0  0.533777  0  3.983597  0  0  0.488323  0  4.275896  0  0  0.5166  0  4.285329  0  0  0.309633  0.469041  0  4.269173  0
C  C61  1  0.45096251  0.74232056  0.39201544  1  0  0.53386  0  3.98368  0  0  0.488426  0  4.276005  0  0  0.516706  0  4.285439  0  0  0.309734  0.469142  0  4.269277  0
C  C62  1  0.44198201  0.39104044  0.73442978  1  0  0.513769  0  4.013315  0  0  0.471949  0  4.304548  0  0  0.499155  0  4.315062  0  0  0.297034  0.453386  0  4.297129  0
C  C63  1  0.55802555  0.60896440  0.26557157  1  0  0.513873  0  4.013035  0  0  0.47208  0  4.304287  0  0  0.499288  0  4.314794  0  0  0.297104  0.453516  0  4.296868  0
C  C64  1  0.37647059  0.70752555  0.88272758  1  0  0.498477  0  3.997575  0  0  0.458706  0  4.28891  0  0  0.484151  0  4.301787  0  0  0.298813  0.44131  0  4.279982  0
C  C65  1  0.62353023  0.29247220  0.11727103  1  0  0.49837  0  3.997541  0  0  0.4586  0  4.288886  0  0  0.484046  0  4.301767  0  0  0.298749  0.441204  0  4.279955  0
C  C66  1  0.65273735  0.79926803  0.92151223  1  0  0.505698  0  4.004139  0  0  0.466329  0  4.291934  0  0  0.493004  0  4.303006  0  0  0.306387  0.44814  0  4.284123  0
C  C67  1  0.34726398  0.20072655  0.07848457  1  0  0.505696  0  4.00416  0  0  0.466333  0  4.291948  0  0  0.493005  0  4.303022  0  0  0.306356  0.448145  0  4.284142  0
C  C68  1  0.77438466  0.60718989  0.64972749  1  0  0.523225  0  3.973558  0  0  0.480955  0  4.262265  0  0  0.507991  0  4.272708  0  0  0.310467  0.462486  0  4.254867  0
C  C69  1  0.22560287  0.39281109  0.35026886  1  0  0.523114  0  3.973489  0  0  0.480848  0  4.262224  0  0  0.507885  0  4.272672  0  0  0.310444  0.462384  0  4.254822  0
C  C70  1  0.48045835  0.60216421  0.63164803  1  0  0.515684  0  3.98694  0  0  0.479319  0  4.263944  0  0  0.505557  0  4.276411  0  0  0.306736  0.461426  0  4.255114  0
C  C71  1  0.51953300  0.39783753  0.36834221  1  0  0.515552  0  3.986643  0  0  0.479206  0  4.263641  0  0  0.505442  0  4.276112  0  0  0.306688  0.461321  0  4.254811  0
N  N72  1  0.86744506  0.10732679  0.92448313  1  0  -0.261901  0  3.173088  0  0  -0.1974  0  3.469038  0  0  -0.213956  0  3.486229  0  0  -0.236527  -0.186115  0  3.457103  0
N  N73  1  0.13255067  0.89267098  0.07551457  1  0  -0.261728  0  3.172839  0  0  -0.197258  0  3.468814  0  0  -0.213813  0  3.486003  0  0  -0.236479  -0.185974  0  3.456882  0
N  N74  1  0.69315719  0.09307985  0.89483459  1  0  -0.215101  0  2.934829  0  0  -0.195174  0  3.221095  0  0  -0.204122  0  3.237792  0  0  -0.215293  -0.189007  0  3.209637  0
N  N75  1  0.30683735  0.90691794  0.10516597  1  0  -0.215204  0  2.934864  0  0  -0.195261  0  3.221118  0  0  -0.204208  0  3.237819  0  0  -0.215367  -0.189095  0  3.209662  0
N  N76  1  0.80677032  0.24618197  0.89165202  1  0  -0.123416  0  3.589231  0  0  -0.033452  0  3.808344  0  0  -0.049592  0  3.832817  0  0  -0.215195  -0.022718  0  3.791704  0
N  N77  1  0.19322561  0.75381660  0.10834670  1  0  -0.123327  0  3.589312  0  0  -0.033356  0  3.808408  0  0  -0.049495  0  3.832884  0  0  -0.215196  -0.022623  0  3.791768  0
N  N78  1  0.95005069  0.47273109  0.82018646  1  0  -0.308071  0  3.278838  0  0  -0.23442  0  3.546001  0  0  -0.252813  0  3.565827  0  0  -0.317431  -0.221758  0  3.532047  0
N  N79  1  0.04994653  0.52726747  0.17981303  1  0  -0.308029  0  3.278894  0  0  -0.234356  0  3.546033  0  0  -0.25275  0  3.565856  0  0  -0.317431  -0.221706  0  3.532113  0
N  N80  1  0.06344664  0.35196034  0.58016098  1  0  -0.279839  0  3.178444  0  0  -0.215096  0  3.471549  0  0  -0.231814  0  3.488374  0  0  -0.241465  -0.203659  0  3.459784  0
N  N81  1  0.93656066  0.64803817  0.41983669  1  0  -0.279814  0  3.178273  0  0  -0.215072  0  3.47138  0  0  -0.231792  0  3.48821  0  0  -0.241463  -0.203634  0  3.459613  0
N  N82  1  0.18161483  0.28156342  0.55630452  1  0  -0.213888  0  2.97122  0  0  -0.194083  0  3.253976  0  0  -0.203338  0  3.272005  0  0  -0.21873  -0.187781  0  3.241669  0
N  N83  1  0.81839340  0.71843904  0.44369458  1  0  -0.213909  0  2.971155  0  0  -0.194104  0  3.253904  0  0  -0.203359  0  3.271928  0  0  -0.218768  -0.187802  0  3.241598  0
N  N84  1  0.97062619  0.23159089  0.42679075  1  0  -0.11771  0  3.576868  0  0  -0.029124  0  3.791993  0  0  -0.045608  0  3.816605  0  0  -0.213732  -0.01817  0  3.775221  0
N  N85  1  0.02937862  0.76840763  0.57320828  1  0  -0.117511  0  3.576715  0  0  -0.02903  0  3.791964  0  0  -0.045515  0  3.816576  0  0  -0.213612  -0.018075  0  3.775192  0
N  N86  1  0.85733132  0.07216710  0.14828529  1  0  -0.317271  0  3.290848  0  0  -0.237131  0  3.553885  0  0  -0.256084  0  3.574624  0  0  -0.32835  -0.224146  0  3.53944  0
N  N87  1  0.14267172  0.92782905  0.85171502  1  0  -0.31728  0  3.291035  0  0  -0.237151  0  3.55408  0  0  -0.256103  0  3.574818  0  0  -0.328393  -0.224169  0  3.539637  0
N  N88  1  0.69662633  0.95074697  0.37607778  1  0  -0.616675  0  2.783458  0  0  -0.568796  0  3.054193  0  0  -0.592291  0  3.060919  0  0  -0.384713  -0.552635  0  3.049518  0
N  N89  1  0.30336963  0.04926268  0.62392411  1  0  -0.616705  0  2.783557  0  0  -0.568829  0  3.054283  0  0  -0.592324  0  3.061003  0  0  -0.384704  -0.552666  0  3.049611  0
N  N90  1  0.96656020  0.88436726  0.31960162  1  0  -0.470087  0  3.28409  0  0  -0.418075  0  3.54987  0  0  -0.442191  0  3.553895  0  0  -0.316227  -0.401229  0  3.546475  0
N  N91  1  0.03343594  0.11563764  0.68039933  1  0  -0.470181  0  3.284122  0  0  -0.418137  0  3.549877  0  0  -0.442268  0  3.553905  0  0  -0.316134  -0.401292  0  3.546489  0
N  N92  1  0.26585722  0.97299166  0.36983118  1  0  -0.623214  0  2.762649  0  0  -0.576729  0  3.033727  0  0  -0.598958  0  3.037938  0  0  -0.391163  -0.56141  0  3.030732  0
N  N93  1  0.73413793  0.02700851  0.63017242  1  0  -0.623039  0  2.762479  0  0  -0.57655  0  3.033569  0  0  -0.598779  0  3.037772  0  0  -0.391035  -0.561234  0  3.030577  0
N  N94  1  0.55734295  0.18029496  0.53532303  1  0  -0.636397  0  2.803415  0  0  -0.586364  0  3.082767  0  0  -0.610393  0  3.085375  0  0  -0.394988  -0.569837  0  3.080772  0
N  N95  1  0.44265886  0.81971229  0.46468041  1  0  -0.636494  0  2.803508  0  0  -0.586455  0  3.082837  0  0  -0.610487  0  3.08545  0  0  -0.395103  -0.569931  0  3.080853  0
N  N96  1  0.56283167  0.34458173  0.68761716  1  0  -0.465254  0  3.330298  0  0  -0.409094  0  3.592806  0  0  -0.434893  0  3.599745  0  0  -0.309816  -0.391269  0  3.587527  0
N  N97  1  0.43716357  0.65542476  0.31238431  1  0  -0.465361  0  3.330016  0  0  -0.409263  0  3.592593  0  0  -0.435068  0  3.599529  0  0  -0.309882  -0.391434  0  3.587312  0
N  N98  1  0.34750516  0.44229136  0.78732151  1  0  -0.636919  0  2.738026  0  0  -0.593797  0  3.009866  0  0  -0.615549  0  3.014861  0  0  -0.409669  -0.578858  0  3.006307  0
N  N99  1  0.65249811  0.55771667  0.21268298  1  0  -0.636909  0  2.738138  0  0  -0.593778  0  3.009957  0  0  -0.615527  0  3.01495  0  0  -0.409685  -0.57884  0  3.0064  0
N  N100  1  0.22902423  0.67991837  0.85182169  1  0  -0.597862  0  2.737281  0  0  -0.558724  0  3.013382  0  0  -0.579601  0  3.020471  0  0  -0.393178  -0.544419  0  3.008426  0
N  N101  1  0.77097915  0.32007936  0.14817774  1  0  -0.597782  0  2.737176  0  0  -0.558649  0  3.013289  0  0  -0.579516  0  3.020354  0  0  -0.393123  -0.544353  0  3.008353  0
N  N102  1  0.53479788  0.72794627  0.92343163  1  0  -0.477231  0  3.340436  0  0  -0.423674  0  3.608767  0  0  -0.448921  0  3.614744  0  0  -0.310862  -0.406149  0  3.604108  0
N  N103  1  0.46520527  0.27205067  0.07656607  1  0  -0.477171  0  3.340457  0  0  -0.423621  0  3.608793  0  0  -0.448869  0  3.614772  0  0  -0.310822  -0.406098  0  3.604136  0
N  N104  1  0.77299307  0.85982233  0.92566834  1  0  -0.5968  0  2.777064  0  0  -0.547097  0  3.058187  0  0  -0.568913  0  3.061102  0  0  -0.384037  -0.532168  0  3.056081  0
N  N105  1  0.22700986  0.14017383  0.07432762  1  0  -0.596798  0  2.777137  0  0  -0.547102  0  3.058263  0  0  -0.568918  0  3.06118  0  0  -0.384014  -0.532168  0  3.056144  0
N  N106  1  0.91091229  0.57917218  0.64765099  1  0  -0.606748  0  2.806824  0  0  -0.558381  0  3.093564  0  0  -0.580785  0  3.097519  0  0  -0.389069  -0.543028  0  3.090752  0
N  N107  1  0.08907546  0.42082882  0.35235334  1  0  -0.606684  0  2.806849  0  0  -0.558317  0  3.093586  0  0  -0.580722  0  3.097546  0  0  -0.389093  -0.54296  0  3.090763  0
N  N108  1  0.63517015  0.65005359  0.65570579  1  0  -0.458804  0  3.294401  0  0  -0.403013  0  3.551639  0  0  -0.428304  0  3.557194  0  0  -0.306737  -0.385403  0  3.547149  0
N  N109  1  0.36481907  0.34994421  0.34428517  1  0  -0.45857  0  3.293725  0  0  -0.402793  0  3.550973  0  0  -0.428083  0  3.556528  0  0  -0.306608  -0.385197  0  3.54649  0
N  N110  1  0.33275440  0.56855425  0.61210289  1  0  -0.62173  0  2.783394  0  0  -0.574456  0  3.054173  0  0  -0.597334  0  3.059883  0  0  -0.394573  -0.558744  0  3.050153  0
N  N111  1  0.66723414  0.43144593  0.38789032  1  0  -0.621776  0  2.783634  0  0  -0.574503  0  3.054384  0  0  -0.597379  0  3.060092  0  0  -0.394614  -0.558793  0  3.050363  0
