# generated using pymatgen
data_SrH15C8NO12
_symmetry_space_group_name_H-M   'P 1'
_cell_length_a   7.60224864
_cell_length_b   10.15040447
_cell_length_c   10.74228174
_cell_angle_alpha   114.08419102
_cell_angle_beta   105.56583295
_cell_angle_gamma   100.45609553
_symmetry_Int_Tables_number   1
_chemical_formula_structural   SrH15C8NO12
_chemical_formula_sum   'Sr2 H30 C16 N2 O24'
_cell_volume   687.95853800
_cell_formula_units_Z   2
loop_
 _symmetry_equiv_pos_site_id
 _symmetry_equiv_pos_as_xyz
  1  'x, y, z'
loop_
 _atom_site_type_symbol
 _atom_site_label
 _atom_site_symmetry_multiplicity
 _atom_site_fract_x
 _atom_site_fract_y
 _atom_site_fract_z
 _atom_site_occupancy
 _atom_site_hle17_bader_spin_density
 _atom_site_hle17_ddec_charge
 _atom_site_hle17_ddec_spin_density
 _atom_site_hle17_ddec_sum_bond_order
 _atom_site_hle17_magmom
 _atom_site_hse06_10hf_bader_spin_density
 _atom_site_hse06_10hf_ddec_charge
 _atom_site_hse06_10hf_ddec_spin_density
 _atom_site_hse06_10hf_ddec_sum_bond_order
 _atom_site_hse06_10hf_magmom
 _atom_site_hse06_bader_spin_density
 _atom_site_hse06_ddec_charge
 _atom_site_hse06_ddec_spin_density
 _atom_site_hse06_ddec_sum_bond_order
 _atom_site_hse06_magmom
 _atom_site_pbe_bader_spin_density
 _atom_site_pbe_cm5_charge
 _atom_site_pbe_ddec_charge
 _atom_site_pbe_ddec_spin_density
 _atom_site_pbe_ddec_sum_bond_order
 _atom_site_pbe_magmom
Sr  Sr0  1  0.94064355  0.67226549  0.32710124  1  0  1.645762  0  1.05067  0  0  1.515371  0  1.413342  0  0  1.549714  0  1.368724  0  0  0.890461  1.489386  0  1.445941  0
Sr  Sr1  1  0.11358207  0.34540970  0.67287082  1  0  1.646186  0  1.049834  0  0  1.515449  0  1.412763  0  0  1.549804  0  1.368083  0  0  0.889917  1.489696  0  1.445045  0
H  H2  1  0.83718740  0.98075042  0.51846314  1  0  0.436616  0  0.854867  0  0  0.407075  0  0.917139  0  0  0.417014  0  0.902293  0  0  0.306675  0.399766  0  0.928092  0
H  H3  1  0.81566408  0.46067415  0.47953394  1  0  0.435692  0  0.856526  0  0  0.406029  0  0.918994  0  0  0.416022  0  0.904064  0  0  0.30568  0.39883  0  0.929785  0
H  H4  1  0.80531794  0.85396067  0.56316211  1  0  0.411015  0  0.876794  0  0  0.382279  0  0.948458  0  0  0.391218  0  0.93493  0  0  0.304394  0.375842  0  0.958297  0
H  H5  1  0.74197539  0.28961062  0.43687751  1  0  0.410742  0  0.879982  0  0  0.382196  0  0.949243  0  0  0.391066  0  0.935845  0  0  0.304012  0.375763  0  0.959036  0
H  H6  1  0.57755387  0.74317084  0.19092210  1  0  0.415538  0  0.885865  0  0  0.38594  0  0.947356  0  0  0.39482  0  0.934194  0  0  0.299482  0.379612  0  0.956788  0
H  H7  1  0.88655514  0.55214853  0.80867614  1  0  0.41609  0  0.884857  0  0  0.386784  0  0.946093  0  0  0.395704  0  0.932862  0  0  0.299626  0.380322  0  0.955754  0
H  H8  1  0.56504637  0.59873557  0.04782321  1  0  0.427168  0  0.876099  0  0  0.398112  0  0.936594  0  0  0.409145  0  0.920298  0  0  0.293036  0.390323  0  0.948078  0
H  H9  1  0.01693708  0.55085491  0.95196227  1  0  0.427662  0  0.875508  0  0  0.398513  0  0.936027  0  0  0.409535  0  0.919761  0  0  0.293432  0.390606  0  0.947682  0
H  H10  1  0.21175634  0.70130356  0.16728813  1  0  0.40694  0  0.898494  0  0  0.376648  0  0.962481  0  0  0.385842  0  0.948828  0  0  0.305086  0.37016  0  0.972141  0
H  H11  1  0.54484375  0.53388028  0.83257421  1  0  0.406685  0  0.898674  0  0  0.376493  0  0.962725  0  0  0.385771  0  0.94893  0  0  0.304687  0.370058  0  0.972304  0
H  H12  1  0.18053319  0.52723337  0.12666360  1  0  0.418854  0  0.889327  0  0  0.383683  0  0.959122  0  0  0.395894  0  0.941445  0  0  0.295484  0.374984  0  0.971758  0
H  H13  1  0.55417614  0.40036810  0.87327109  1  0  0.420732  0  0.887018  0  0  0.385297  0  0.957221  0  0  0.397537  0  0.939485  0  0  0.296077  0.376601  0  0.969841  0
H  H14  1  0.26961495  0.59059842  0.44804157  1  0  0.423316  0  0.852611  0  0  0.392929  0  0.9307  0  0  0.402159  0  0.917408  0  0  0.310923  0.386285  0  0.938792  0
H  H15  1  0.32155299  0.14228589  0.55186656  1  0  0.422819  0  0.853225  0  0  0.392383  0  0.931373  0  0  0.401599  0  0.918171  0  0  0.31035  0.385621  0  0.939657  0
H  H16  1  0.22357936  0.45311950  0.28939278  1  0  0.413945  0  0.894639  0  0  0.381315  0  0.961651  0  0  0.391173  0  0.947396  0  0  0.29722  0.374282  0  0.971858  0
H  H17  1  0.43441139  0.16360610  0.71058701  1  0  0.414086  0  0.894251  0  0  0.381426  0  0.961362  0  0  0.391315  0  0.947066  0  0  0.297497  0.374478  0  0.971435  0
H  H18  1  0.61417113  0.58640506  0.44216731  1  0  0.408407  0  0.890702  0  0  0.376187  0  0.959666  0  0  0.386289  0  0.944409  0  0  0.302068  0.369  0  0.970581  0
H  H19  1  0.67181866  0.14385657  0.55797656  1  0  0.406603  0  0.89246  0  0  0.375038  0  0.961191  0  0  0.385086  0  0.946  0  0  0.30123  0.367882  0  0.972055  0
H  H20  1  0.52646494  0.47340087  0.27049013  1  0  0.424407  0  0.875695  0  0  0.3913  0  0.943377  0  0  0.401561  0  0.928354  0  0  0.297437  0.384078  0  0.953909  0
H  H21  1  0.75615715  0.20330932  0.72974490  1  0  0.426278  0  0.873509  0  0  0.393131  0  0.941276  0  0  0.4034  0  0.926221  0  0  0.297885  0.385887  0  0.951895  0
H  H22  1  0.40678639  0.83581965  0.43137905  1  0  0.414224  0  0.862495  0  0  0.385235  0  0.936888  0  0  0.394944  0  0.922124  0  0  0.302932  0.378315  0  0.94747  0
H  H23  1  0.47508494  0.40424170  0.56823391  1  0  0.412804  0  0.86606  0  0  0.383914  0  0.939015  0  0  0.393694  0  0.924151  0  0  0.302185  0.376935  0  0.949684  0
H  H24  1  0.31443689  0.92294332  0.53812847  1  0  0.420893  0  0.883484  0  0  0.392652  0  0.943775  0  0  0.403204  0  0.928342  0  0  0.291755  0.384959  0  0.955013  0
H  H25  1  0.27594896  0.38499313  0.46165701  1  0  0.420808  0  0.88363  0  0  0.392517  0  0.94378  0  0  0.403083  0  0.928345  0  0  0.291914  0.384847  0  0.954987  0
H  H26  1  0.63581432  0.99223180  0.76395574  1  0  0.125158  0  0.953939  0  0  0.126772  0  1.02674  0  0  0.131744  0  1.021445  0  0  0.118638  0.122996  0  1.031002  0
H  H27  1  0.37146996  0.22832568  0.23641913  1  0  0.124487  0  0.95452  0  0  0.125859  0  1.027825  0  0  0.130815  0  1.022577  0  0  0.118313  0.122261  0  1.031647  0
H  H28  1  0.85593417  0.77957220  0.02061805  1  0  0.126653  0  0.950414  0  0  0.130141  0  1.020015  0  0  0.135267  0  1.014372  0  0  0.122814  0.126313  0  1.024145  0
H  H29  1  0.33512754  0.75915863  0.97956286  1  0  0.126561  0  0.9491  0  0  0.129708  0  1.019382  0  0  0.134719  0  1.013866  0  0  0.122535  0.126099  0  1.023168  0
H  H30  1  0.87731360  0.24669753  0.23890097  1  0  0.120884  0  0.946392  0  0  0.127018  0  1.014414  0  0  0.131878  0  1.009402  0  0  0.121373  0.123253  0  1.018441  0
H  H31  1  0.13895690  0.00834160  0.76147221  1  0  0.120909  0  0.946027  0  0  0.126752  0  1.014331  0  0  0.131677  0  1.009237  0  0  0.121268  0.122886  0  1.018427  0
C  C32  1  0.75718248  0.13630834  0.00125205  1  0  -0.068235  0  3.723083  0  0  -0.042767  0  3.965397  0  0  -0.053456  0  3.989364  0  0  -0.011298  -0.035851  0  3.94948  0
C  C33  1  0.25590684  0.13536576  0.99909843  1  0  -0.06645  0  3.720461  0  0  -0.040848  0  3.962341  0  0  -0.051468  0  3.986159  0  0  -0.011645  -0.034222  0  3.946415  0
C  C34  1  0.70484244  0.00095390  0.87099797  1  0  -0.072584  0  3.661331  0  0  -0.111539  0  3.919743  0  0  -0.107035  0  3.936771  0  0  -0.062898  -0.115472  0  3.909941  0
C  C35  1  0.33359659  0.13009566  0.12934282  1  0  -0.073155  0  3.659174  0  0  -0.11238  0  3.920549  0  0  -0.107774  0  3.937406  0  0  -0.062795  -0.115717  0  3.910042  0
C  C36  1  0.73917465  0.87385336  0.88018070  1  0  0.058141  0  3.71682  0  0  0.049553  0  3.986956  0  0  0.042202  0  4.010616  0  0  0.080386  0.054235  0  3.971025  0
C  C37  1  0.35875413  0.99377788  0.12006676  1  0  0.070905  0  3.722251  0  0  0.050588  0  3.9878  0  0  0.043163  0  4.011579  0  0  0.080674  0.055243  0  3.971879  0
C  C38  1  0.82621324  0.87799309  0.01456921  1  0  -0.07705  0  3.670368  0  0  -0.116316  0  3.931051  0  0  -0.110989  0  3.946547  0  0  -0.060573  -0.118797  0  3.919802  0
C  C39  1  0.31147507  0.86364059  0.98567249  1  0  -0.077052  0  3.668586  0  0  -0.116437  0  3.932271  0  0  -0.111036  0  3.947733  0  0  -0.060515  -0.119153  0  3.920906  0
C  C40  1  0.87553743  0.01310113  0.14504419  1  0  -0.055845  0  3.692114  0  0  -0.032377  0  3.93432  0  0  -0.042892  0  3.957223  0  0  -0.009821  -0.026093  0  3.9193  0
C  C41  1  0.23064680  0.86844454  0.85525083  1  0  -0.055974  0  3.696372  0  0  -0.032432  0  3.938309  0  0  -0.042886  0  3.961044  0  0  -0.009426  -0.025949  0  3.922857  0
C  C42  1  0.83928717  0.14082279  0.13748230  1  0  -0.019581  0  3.601811  0  0  -0.063962  0  3.856013  0  0  -0.058808  0  3.872428  0  0  -0.051285  -0.067067  0  3.845446  0
C  C43  1  0.20203967  0.00376576  0.86288180  1  0  -0.020889  0  3.603296  0  0  -0.064843  0  3.857314  0  0  -0.059609  0  3.87343  0  0  -0.051494  -0.06733  0  3.846434  0
C  C44  1  0.72253074  0.27666812  0.99667366  1  0  0.679598  0  3.877729  0  0  0.623612  0  4.176722  0  0  0.657232  0  4.170014  0  0  0.225413  0.60111  0  4.179922  0
C  C45  1  0.22601862  0.28034354  0.00362630  1  0  0.679135  0  3.880696  0  0  0.62297  0  4.179917  0  0  0.656541  0  4.173283  0  0  0.22541  0.600412  0  4.183275  0
C  C46  1  0.96473163  0.01716093  0.29250905  1  0  0.671928  0  3.92332  0  0  0.62613  0  4.214365  0  0  0.660438  0  4.207065  0  0  0.212447  0.602883  0  4.217853  0
C  C47  1  0.17258126  0.72519432  0.70766295  1  0  0.673392  0  3.923077  0  0  0.627473  0  4.214492  0  0  0.661805  0  4.207326  0  0  0.213322  0.604162  0  4.218353  0
N  N48  1  0.68123653  0.73414544  0.74403722  1  0  0.539134  0  3.836457  0  0  0.551647  0  4.141639  0  0  0.575726  0  4.14816  0  0  0.065858  0.535202  0  4.137663  0
N  N49  1  0.43683906  0.98999718  0.25609930  1  0  0.498023  0  3.896882  0  0  0.549612  0  4.147004  0  0  0.573526  0  4.15371  0  0  0.064857  0.533497  0  4.142681  0
O  O50  1  0.76510945  0.39392446  0.11617149  1  0  -0.638901  0  1.970502  0  0  -0.583954  0  2.21187  0  0  -0.609212  0  2.203952  0  0  -0.343166  -0.565994  0  2.21665  0
O  O51  1  0.14936531  0.27815739  0.88409586  1  0  -0.638878  0  1.971341  0  0  -0.58382  0  2.21277  0  0  -0.609086  0  2.204887  0  0  -0.342621  -0.565983  0  2.217584  0
O  O52  1  0.80920056  0.87036096  0.48050756  1  0  -0.868785  0  1.846826  0  0  -0.822341  0  2.036615  0  0  -0.839258  0  2.005844  0  0  -0.629267  -0.809879  0  2.058796  0
O  O53  1  0.82861286  0.38924951  0.51848835  1  0  -0.868462  0  1.848531  0  0  -0.821912  0  2.036329  0  0  -0.838832  0  2.005543  0  0  -0.628782  -0.809488  0  2.058368  0
O  O54  1  0.65103205  0.68021014  0.14968576  1  0  -0.889235  0  1.836805  0  0  -0.835902  0  2.019909  0  0  -0.855611  0  1.99032  0  0  -0.645529  -0.821907  0  2.040504  0
O  O55  1  0.00128984  0.53054161  0.85015949  1  0  -0.890519  0  1.836  0  0  -0.837249  0  2.018652  0  0  -0.856947  0  1.989075  0  0  -0.646092  -0.823056  0  2.039654  0
O  O56  1  0.11159973  0.60506678  0.13439110  1  0  -0.857521  0  1.89232  0  0  -0.795416  0  2.06884  0  0  -0.816055  0  2.037601  0  0  -0.599016  -0.780929  0  2.091085  0
O  O57  1  0.47761714  0.47056098  0.86550343  1  0  -0.858997  0  1.890121  0  0  -0.796823  0  2.067062  0  0  -0.817501  0  2.035642  0  0  -0.59919  -0.782455  0  2.089053  0
O  O58  1  0.18760686  0.48437865  0.37681221  1  0  -0.831293  0  1.853139  0  0  -0.776674  0  2.034487  0  0  -0.795219  0  2.005005  0  0  -0.560764  -0.763301  0  2.054161  0
O  O59  1  0.31099134  0.10735769  0.62316652  1  0  -0.830891  0  1.851893  0  0  -0.776071  0  2.03287  0  0  -0.794591  0  2.003416  0  0  -0.560416  -0.762607  0  2.052716  0
O  O60  1  0.64684501  0.52417269  0.36006723  1  0  -0.866287  0  1.884468  0  0  -0.808668  0  2.069021  0  0  -0.826996  0  2.037008  0  0  -0.61175  -0.795407  0  2.091539  0
O  O61  1  0.78699811  0.16454891  0.64023882  1  0  -0.867704  0  1.882391  0  0  -0.810791  0  2.066654  0  0  -0.829063  0  2.0347  0  0  -0.612867  -0.797594  0  2.089302  0
O  O62  1  0.32300628  0.81917531  0.48222675  1  0  -0.874342  0  1.839882  0  0  -0.82441  0  2.025558  0  0  -0.843457  0  1.995221  0  0  -0.615861  -0.809966  0  2.047087  0
O  O63  1  0.34036126  0.33691209  0.51739482  1  0  -0.872401  0  1.842609  0  0  -0.821656  0  2.026722  0  0  -0.840988  0  1.996513  0  0  -0.615312  -0.80776  0  2.048286  0
O  O64  1  0.64959626  0.26588108  0.86776900  1  0  -0.688996  0  2.031821  0  0  -0.611668  0  2.245432  0  0  -0.63902  0  2.233646  0  0  -0.315962  -0.592369  0  2.253003  0
O  O65  1  0.28192829  0.39845172  0.13251828  1  0  -0.688718  0  2.033426  0  0  -0.611236  0  2.246598  0  0  -0.638564  0  2.234888  0  0  -0.315905  -0.591892  0  2.254154  0
O  O66  1  0.94121426  0.11495994  0.40141350  1  0  -0.70161  0  1.944889  0  0  -0.642044  0  2.180979  0  0  -0.669561  0  2.172986  0  0  -0.362759  -0.621317  0  2.185323  0
O  O67  1  0.04053723  0.71449390  0.59875508  1  0  -0.700496  0  1.942925  0  0  -0.641229  0  2.179642  0  0  -0.669039  0  2.171923  0  0  -0.363395  -0.62098  0  2.184197  0
O  O68  1  0.05172534  0.92197227  0.29253873  1  0  -0.6869  0  1.92663  0  0  -0.637451  0  2.16598  0  0  -0.66393  0  2.158897  0  0  -0.356023  -0.617525  0  2.169788  0
O  O69  1  0.25928978  0.62979996  0.70760595  1  0  -0.68834  0  1.928827  0  0  -0.638529  0  2.167682  0  0  -0.665254  0  2.160685  0  0  -0.356949  -0.619128  0  2.171691  0
O  O70  1  0.67824409  0.61155330  0.74719097  1  0  -0.423229  0  1.907937  0  0  -0.374835  0  2.122537  0  0  -0.389889  0  2.114963  0  0  -0.11374  -0.365713  0  2.128793  0
O  O71  1  0.43088037  0.86421602  0.25277623  1  0  -0.408762  0  1.92685  0  0  -0.37326  0  2.124761  0  0  -0.387759  0  2.116879  0  0  -0.113689  -0.364186  0  2.130949  0
O  O72  1  0.63515947  0.73892719  0.62632960  1  0  -0.367712  0  1.884012  0  0  -0.322656  0  2.101606  0  0  -0.335667  0  2.09534  0  0  -0.092066  -0.314822  0  2.106951  0
O  O73  1  0.50825772  0.11232525  0.37395271  1  0  -0.35339  0  1.901926  0  0  -0.323235  0  2.104048  0  0  -0.335876  0  2.09765  0  0  -0.091882  -0.315163  0  2.109185  0
