# generated using pymatgen
data_Zn3H16C24(N3O7)2
_symmetry_space_group_name_H-M   'P 1'
_cell_length_a   8.50579346
_cell_length_b   8.98258371
_cell_length_c   10.46350416
_cell_angle_alpha   109.92778733
_cell_angle_beta   103.55338065
_cell_angle_gamma   114.44503902
_symmetry_Int_Tables_number   1
_chemical_formula_structural   Zn3H16C24(N3O7)2
_chemical_formula_sum   'Zn3 H16 C24 N6 O14'
_cell_volume   614.88094479
_cell_formula_units_Z   1
loop_
 _symmetry_equiv_pos_site_id
 _symmetry_equiv_pos_as_xyz
  1  'x, y, z'
loop_
 _atom_site_type_symbol
 _atom_site_label
 _atom_site_symmetry_multiplicity
 _atom_site_fract_x
 _atom_site_fract_y
 _atom_site_fract_z
 _atom_site_occupancy
 _atom_site_hle17_bader_spin_density
 _atom_site_hle17_ddec_charge
 _atom_site_hle17_ddec_spin_density
 _atom_site_hle17_ddec_sum_bond_order
 _atom_site_hle17_magmom
 _atom_site_hse06_10hf_bader_spin_density
 _atom_site_hse06_10hf_ddec_charge
 _atom_site_hse06_10hf_ddec_spin_density
 _atom_site_hse06_10hf_ddec_sum_bond_order
 _atom_site_hse06_10hf_magmom
 _atom_site_hse06_bader_spin_density
 _atom_site_hse06_ddec_charge
 _atom_site_hse06_ddec_spin_density
 _atom_site_hse06_ddec_sum_bond_order
 _atom_site_hse06_magmom
 _atom_site_pbe_bader_spin_density
 _atom_site_pbe_cm5_charge
 _atom_site_pbe_ddec_charge
 _atom_site_pbe_ddec_spin_density
 _atom_site_pbe_ddec_sum_bond_order
 _atom_site_pbe_magmom
Zn  Zn0  1  0.39557481  0.12292438  0.64976047  1  0  1.11737  0  1.703182  0  0  0.937247  0  2.15024  0  0  0.989638  0  2.091335  0  0  0.694422  0.898895  0  2.19155  0
Zn  Zn1  1  0.60442175  0.87707419  0.35023681  1  0  1.117394  0  1.703121  0  0  0.937283  0  2.150166  0  0  0.989673  0  2.091263  0  0  0.694449  0.898941  0  2.191477  0
Zn  Zn2  1  0.49999551  0.49999896  0.00000149  1  0  1.076641  0  1.918972  0  0  0.90696  0  2.381675  0  0  0.950112  0  2.328148  0  0  0.714101  0.876929  0  2.418039  0
H  H3  1  0.40125573  0.13934567  0.16620641  1  0  0.111541  0  0.944663  0  0  0.117454  0  1.013042  0  0  0.121543  0  1.009774  0  0  0.106937  0.114475  0  1.015386  0
H  H4  1  0.59874327  0.86065294  0.83379138  1  0  0.11154  0  0.944744  0  0  0.117503  0  1.013066  0  0  0.121592  0  1.009797  0  0  0.106958  0.114525  0  1.015402  0
H  H5  1  0.95553787  0.64178996  0.12546866  1  0  0.090295  0  0.982296  0  0  0.095441  0  1.057614  0  0  0.098349  0  1.056026  0  0  0.101303  0.093548  0  1.058552  0
H  H6  1  0.04446202  0.35821044  0.87453357  1  0  0.090341  0  0.982251  0  0  0.095426  0  1.057647  0  0  0.098333  0  1.056057  0  0  0.101295  0.093535  0  1.058586  0
H  H7  1  0.91769614  0.70706988  0.73324278  1  0  0.102048  0  0.958522  0  0  0.109826  0  1.028396  0  0  0.113469  0  1.025222  0  0  0.106957  0.107403  0  1.030409  0
H  H8  1  0.08229628  0.29292345  0.26675624  1  0  0.102058  0  0.958515  0  0  0.109861  0  1.028349  0  0  0.113489  0  1.025192  0  0  0.106974  0.107441  0  1.030363  0
H  H9  1  0.06103734  0.14853432  0.42681485  1  0  0.124623  0  0.945208  0  0  0.130247  0  1.010124  0  0  0.132982  0  1.007008  0  0  0.148759  0.128307  0  1.012166  0
H  H10  1  0.93897301  0.85147401  0.57318566  1  0  0.124675  0  0.945121  0  0  0.130285  0  1.010062  0  0  0.133019  0  1.006947  0  0  0.148761  0.128346  0  1.012101  0
H  H11  1  0.22457966  0.62514424  0.82680345  1  0  0.11789  0  0.922551  0  0  0.128521  0  0.981295  0  0  0.13002  0  0.980386  0  0  0.150282  0.12723  0  0.982193  0
H  H12  1  0.77541331  0.37485447  0.17319505  1  0  0.117876  0  0.922624  0  0  0.128524  0  0.981347  0  0  0.130024  0  0.980437  0  0  0.150273  0.127237  0  0.982246  0
H  H13  1  0.86851432  0.43181663  0.57534760  1  0  0.102936  0  0.959532  0  0  0.110404  0  1.029152  0  0  0.112484  0  1.027681  0  0  0.114547  0.108691  0  1.030496  0
H  H14  1  0.13148142  0.56818035  0.42464722  1  0  0.102925  0  0.959643  0  0  0.110375  0  1.029268  0  0  0.112452  0  1.0278  0  0  0.114558  0.108661  0  1.030608  0
H  H15  1  0.85661094  0.28395049  0.40490791  1  0  0.111975  0  0.9597  0  0  0.122443  0  1.022501  0  0  0.124907  0  1.020833  0  0  0.119058  0.120558  0  1.023801  0
H  H16  1  0.14339363  0.71604940  0.59508941  1  0  0.111984  0  0.959713  0  0  0.122467  0  1.022483  0  0  0.12493  0  1.020815  0  0  0.119064  0.120584  0  1.023776  0
H  H17  1  0.56467467  0.40144558  0.53502727  1  0  0.363973  0  0.913353  0  0  0.337329  0  0.99276  0  0  0.347264  0  0.98133  0  0  0.29676  0.330389  0  1.000713  0
H  H18  1  0.43534608  0.59857141  0.46499276  1  0  0.364161  0  0.913172  0  0  0.337512  0  0.992586  0  0  0.34745  0  0.981148  0  0  0.296831  0.330565  0  1.000551  0
C  C19  1  0.16970383  0.93603623  0.94236805  1  0  -0.071658  0  3.753441  0  0  -0.045896  0  3.992712  0  0  -0.055195  0  4.015344  0  0  -0.018436  -0.039931  0  3.977423  0
C  C20  1  0.83029565  0.06396109  0.05763049  1  0  -0.071534  0  3.753473  0  0  -0.045778  0  3.992776  0  0  -0.055076  0  4.015404  0  0  -0.018382  -0.039821  0  3.977499  0
C  C21  1  0.26732713  0.00213164  0.09657002  1  0  -0.047351  0  3.666742  0  0  -0.085309  0  3.912767  0  0  -0.08162  0  3.92962  0  0  -0.068652  -0.086968  0  3.901086  0
C  C22  1  0.73267129  0.99786148  0.90342731  1  0  -0.047331  0  3.666825  0  0  -0.085348  0  3.91285  0  0  -0.081657  0  3.929702  0  0  -0.068673  -0.087013  0  3.901163  0
C  C23  1  0.19237311  0.89617805  0.16309895  1  0  -0.059213  0  3.734178  0  0  -0.033409  0  3.972377  0  0  -0.042017  0  3.993068  0  0  -0.013952  -0.027917  0  3.958556  0
C  C24  1  0.80762437  0.10381775  0.83689786  1  0  -0.059327  0  3.734302  0  0  -0.033483  0  3.9725  0  0  -0.04209  0  3.993189  0  0  -0.013957  -0.027968  0  3.958649  0
C  C25  1  0.01676560  0.72411662  0.07467693  1  0  -0.043382  0  3.674374  0  0  -0.084384  0  3.926787  0  0  -0.080127  0  3.944502  0  0  -0.07593  -0.08726  0  3.914881  0
C  C26  1  0.98323234  0.27588246  0.92532554  1  0  -0.043456  0  3.674474  0  0  -0.084444  0  3.926862  0  0  -0.080187  0  3.944576  0  0  -0.075938  -0.087327  0  3.91496  0
C  C27  1  0.91986849  0.65335071  0.91911725  1  0  -0.069313  0  3.754239  0  0  -0.042072  0  3.99305  0  0  -0.051615  0  4.014942  0  0  -0.018128  -0.035977  0  3.97866  0
C  C28  1  0.08012418  0.34664521  0.08088052  1  0  -0.069195  0  3.754379  0  0  -0.041876  0  3.992999  0  0  -0.05141  0  4.014873  0  0  -0.018106  -0.035783  0  3.978616  0
C  C29  1  0.99724463  0.75964605  0.85296792  1  0  -0.074851  0  3.688605  0  0  -0.114456  0  3.943021  0  0  -0.110579  0  3.960511  0  0  -0.077671  -0.117111  0  3.931346  0
C  C30  1  0.00274733  0.24034866  0.14703134  1  0  -0.074943  0  3.688785  0  0  -0.114601  0  3.943193  0  0  -0.110718  0  3.960695  0  0  -0.077718  -0.117251  0  3.931521  0
C  C31  1  0.25546842  0.06368577  0.88182225  1  0  0.687511  0  3.860137  0  0  0.633879  0  4.151791  0  0  0.669118  0  4.143436  0  0  0.224325  0.609878  0  4.15662  0
C  C32  1  0.74452836  0.93630882  0.11817604  1  0  0.687598  0  3.860172  0  0  0.633934  0  4.151867  0  0  0.669177  0  4.143508  0  0  0.224364  0.609933  0  4.156694  0
C  C33  1  0.30932760  0.97191634  0.32785342  1  0  0.685617  0  3.854211  0  0  0.628855  0  4.150705  0  0  0.664995  0  4.141126  0  0  0.22168  0.604005  0  4.156648  0
C  C34  1  0.69067308  0.02808090  0.67214439  1  0  0.685763  0  3.854108  0  0  0.628922  0  4.150706  0  0  0.66506  0  4.141128  0  0  0.221721  0.604073  0  4.156644  0
C  C35  1  0.73539518  0.46550694  0.82590709  1  0  0.662364  0  3.855749  0  0  0.607041  0  4.144837  0  0  0.641341  0  4.138178  0  0  0.21368  0.583738  0  4.148722  0
C  C36  1  0.26459926  0.53448791  0.17409366  1  0  0.662202  0  3.855975  0  0  0.606977  0  4.144884  0  0  0.641276  0  4.138227  0  0  0.213652  0.583675  0  4.148763  0
C  C37  1  0.13477270  0.25966071  0.54340390  1  0  0.208209  0  3.585859  0  0  0.135614  0  3.866188  0  0  0.150749  0  3.875188  0  0  0.17812  0.125586  0  3.859969  0
C  C38  1  0.86522894  0.74034044  0.45659216  1  0  0.208132  0  3.585891  0  0  0.135541  0  3.866275  0  0  0.150668  0  3.875274  0  0  0.178109  0.125515  0  3.860048  0
C  C39  1  0.21755871  0.50357410  0.74890435  1  0  0.185826  0  3.578703  0  0  0.121205  0  3.848678  0  0  0.134484  0  3.858958  0  0  0.176429  0.112397  0  3.842052  0
C  C40  1  0.78243752  0.49642159  0.25109121  1  0  0.185802  0  3.578547  0  0  0.121164  0  3.848554  0  0  0.134444  0  3.858833  0  0  0.176437  0.11235  0  3.841942  0
C  C41  1  0.95257451  0.41643997  0.51246520  1  0  -0.039079  0  3.586841  0  0  -0.101546  0  3.841796  0  0  -0.098989  0  3.852209  0  0  -0.055807  -0.103065  0  3.83499  0
C  C42  1  0.04742274  0.58355981  0.48753059  1  0  -0.039124  0  3.586942  0  0  -0.101529  0  3.84182  0  0  -0.098968  0  3.852234  0  0  -0.055855  -0.103051  0  3.835008  0
N  N43  1  0.31900393  0.43357726  0.78495077  1  0  -0.230973  0  3.196168  0  0  -0.174664  0  3.483161  0  0  -0.187668  0  3.496762  0  0  -0.224748  -0.166472  0  3.474505  0
N  N44  1  0.68099108  0.56642307  0.21505045  1  0  -0.230995  0  3.196085  0  0  -0.174695  0  3.483147  0  0  -0.187706  0  3.496744  0  0  -0.224756  -0.166503  0  3.474496  0
N  N45  1  0.26750520  0.28074610  0.65552749  1  0  -0.259055  0  3.208447  0  0  -0.199524  0  3.501997  0  0  -0.216708  0  3.516898  0  0  -0.228443  -0.188264  0  3.492292  0
N  N46  1  0.73249371  0.71925688  0.34447324  1  0  -0.258972  0  3.208397  0  0  -0.199478  0  3.502025  0  0  -0.21664  0  3.516905  0  0  -0.228414  -0.188218  0  3.492317  0
N  N47  1  0.09826040  0.39636487  0.59780711  1  0  -0.071298  0  3.508695  0  0  0.0217  0  3.737786  0  0  0.005219  0  3.760708  0  0  -0.221933  0.032603  0  3.722171  0
N  N48  1  0.90174244  0.60364085  0.40219411  1  0  -0.071219  0  3.50854  0  0  0.021787  0  3.737605  0  0  0.005303  0  3.760529  0  0  -0.221921  0.032689  0  3.721995  0
O  O49  1  0.23903091  0.98941077  0.74730494  1  0  -0.653752  0  2.082077  0  0  -0.583105  0  2.344296  0  0  -0.611177  0  2.329685  0  0  -0.313284  -0.562891  0  2.35373  0
O  O50  1  0.76096822  0.01058356  0.25269090  1  0  -0.653787  0  2.082219  0  0  -0.583086  0  2.344394  0  0  -0.611172  0  2.329806  0  0  -0.313238  -0.56287  0  2.353825  0
O  O51  1  0.33956083  0.23695063  0.97346475  1  0  -0.631729  0  2.142675  0  0  -0.568832  0  2.41318  0  0  -0.597357  0  2.403633  0  0  -0.307926  -0.548788  0  2.418993  0
O  O52  1  0.66043460  0.76304356  0.02652934  1  0  -0.631827  0  2.14262  0  0  -0.568915  0  2.413133  0  0  -0.597439  0  2.403582  0  0  -0.307999  -0.548864  0  2.418938  0
O  O53  1  0.48794285  0.03672089  0.37029371  1  0  -0.64496  0  2.074985  0  0  -0.575569  0  2.343752  0  0  -0.603368  0  2.329042  0  0  -0.323122  -0.555819  0  2.353451  0
O  O54  1  0.51205532  0.96327612  0.62970162  1  0  -0.645002  0  2.074951  0  0  -0.575563  0  2.343713  0  0  -0.603363  0  2.329004  0  0  -0.323104  -0.55581  0  2.353405  0
O  O55  1  0.22610644  0.97286992  0.41452709  1  0  -0.622748  0  2.004205  0  0  -0.55562  0  2.263914  0  0  -0.584236  0  2.251592  0  0  -0.306805  -0.535063  0  2.271976  0
O  O56  1  0.77389450  0.02713001  0.58547045  1  0  -0.622848  0  2.004163  0  0  -0.555696  0  2.263903  0  0  -0.584309  0  2.251579  0  0  -0.306867  -0.535146  0  2.271975  0
O  O57  1  0.64442016  0.39081422  0.89138793  1  0  -0.668274  0  2.085459  0  0  -0.597601  0  2.356683  0  0  -0.625308  0  2.343627  0  0  -0.316736  -0.578034  0  2.364642  0
O  O58  1  0.35557851  0.60918617  0.10861404  1  0  -0.668242  0  2.085419  0  0  -0.597621  0  2.356611  0  0  -0.625324  0  2.34355  0  0  -0.316752  -0.578063  0  2.364601  0
O  O59  1  0.67117859  0.37643124  0.68270253  1  0  -0.628286  0  2.043551  0  0  -0.559434  0  2.280848  0  0  -0.586315  0  2.271039  0  0  -0.296384  -0.540741  0  2.286791  0
O  O60  1  0.32881159  0.62355798  0.31729601  1  0  -0.628254  0  2.043629  0  0  -0.559455  0  2.280882  0  0  -0.586344  0  2.271083  0  0  -0.296358  -0.540777  0  2.286863  0
O  O61  1  0.50578730  0.42097622  0.45332385  1  0  -0.394619  0  1.779482  0  0  -0.369317  0  2.010324  0  0  -0.379394  0  1.997901  0  0  -0.34241  -0.361918  0  2.018587  0
O  O62  1  0.49425733  0.57906003  0.54669990  1  0  -0.394674  0  1.779322  0  0  -0.369424  0  2.010223  0  0  -0.379489  0  1.997789  0  0  -0.3424  -0.362014  0  2.018488  0
