# generated using pymatgen
data_CuH4C5I(NO)2
_symmetry_space_group_name_H-M   'P 1'
_cell_length_a   5.88091039
_cell_length_b   8.39876499
_cell_length_c   16.58384060
_cell_angle_alpha   107.12057485
_cell_angle_beta   89.67763814
_cell_angle_gamma   96.11320312
_symmetry_Int_Tables_number   1
_chemical_formula_structural   CuH4C5I(NO)2
_chemical_formula_sum   'Cu4 H16 C20 I4 N8 O8'
_cell_volume   778.08146775
_cell_formula_units_Z   4
loop_
 _symmetry_equiv_pos_site_id
 _symmetry_equiv_pos_as_xyz
  1  'x, y, z'
loop_
 _atom_site_type_symbol
 _atom_site_label
 _atom_site_symmetry_multiplicity
 _atom_site_fract_x
 _atom_site_fract_y
 _atom_site_fract_z
 _atom_site_occupancy
 _atom_site_pbe_bader_charge
 _atom_site_pbe_bader_spin_density
 _atom_site_pbe_cm5_charge
 _atom_site_pbe_ddec_charge
 _atom_site_pbe_ddec_spin_density
 _atom_site_pbe_ddec_sum_bond_order
 _atom_site_pbe_magmom
Cu  Cu0  1  0.50232373  0.11923858  0.42677105  1  0.443687  0  0.278565  0.197066  0  2.645866  0
Cu  Cu1  1  0.49768152  0.88076773  0.57322897  1  0.44375  0  0.278545  0.197023  0  2.645867  0
Cu  Cu2  1  0.50995053  0.37373921  0.56684147  1  0.417563  0  0.255265  0.178878  0  2.668344  0
Cu  Cu3  1  0.49005953  0.62626094  0.43316357  1  0.417602  0  0.255246  0.178842  0  2.668429  0
H  H4  1  0.88232037  0.08277883  0.10272404  1  0.544473  0  0.355041  0.317252  0  0.85834  0
H  H5  1  0.11768158  0.91722732  0.89727527  1  0.544475  0  0.355083  0.317293  0  0.858268  0
H  H6  1  0.93047670  0.98731271  0.33753539  1  0.136418  0  0.107046  0.104416  0  1.028413  0
H  H7  1  0.06952667  0.01269387  0.66246582  1  0.136441  0  0.107023  0.104418  0  1.02831  0
H  H8  1  0.09006781  0.96590368  0.19191687  1  0.227128  0  0.142212  0.144067  0  1.011995  0
H  H9  1  0.90993289  0.03410786  0.80808473  1  0.227082  0  0.142191  0.14406  0  1.01202  0
H  H10  1  0.37361973  0.20588467  0.27781562  1  0.163701  0  0.107981  0.089996  0  1.059375  0
H  H11  1  0.62637395  0.79410994  0.72218124  1  0.163754  0  0.107978  0.089951  0  1.059297  0
H  H12  1  0.08239313  0.50934560  0.65479880  1  0.110689  0  0.09484  0.087919  0  1.045086  0
H  H13  1  0.91761215  0.49064951  0.34520020  1  0.110604  0  0.094835  0.087918  0  1.044996  0
H  H14  1  0.92437578  0.54223971  0.80064727  1  0.117073  0  0.117398  0.108728  0  1.001911  0
H  H15  1  0.07560506  0.45775827  0.19934839  1  0.117085  0  0.117406  0.108791  0  1.001991  0
H  H16  1  0.63008372  0.29192602  0.71979267  1  0.159382  0  0.099754  0.080799  0  1.074832  0
H  H17  1  0.36990939  0.70806436  0.28021231  1  0.159451  0  0.099794  0.080869  0  1.074848  0
H  H18  1  0.49639007  0.25501059  0.98790024  1  0.668577  0  0.297739  0.365709  0  0.973656  0
H  H19  1  0.50362443  0.74499109  0.01210078  1  0.668557  0  0.297714  0.365651  0  0.973737  0
C  C20  1  0.84321706  0.03334341  0.29252061  1  0.45302  0  0.04587  0.034071  0  3.877233  0
C  C21  1  0.15679049  0.96665239  0.70747607  1  0.453439  0  0.045868  0.034011  0  3.877272  0
C  C22  1  0.93341084  0.02200553  0.21379732  1  0.47293  0  0.081889  0.070649  0  3.785141  0
C  C23  1  0.06659009  0.97799606  0.78620339  1  0.472994  0  0.081995  0.070727  0  3.785035  0
C  C24  1  0.61561980  0.14165963  0.18005203  1  0.493154  0  0.140263  0.08353  0  3.875575  0
C  C25  1  0.38437255  0.85833746  0.81994503  1  0.493517  0  0.140269  0.083482  0  3.87571  0
C  C26  1  0.53343407  0.15207629  0.25966351  1  0.489601  0  0.055917  0.04022  0  3.880639  0
C  C27  1  0.46655583  0.84792040  0.74033711  1  0.489367  0  0.05593  0.040344  0  3.880441  0
C  C28  1  0.48687157  0.19268466  0.11417247  1  1.696327  0  0.206899  0.539482  0  4.303359  0
C  C29  1  0.51314973  0.80731908  0.88582159  1  1.696421  0  0.206979  0.539539  0  4.3034  0
C  C30  1  0.16901254  0.46791344  0.70184782  1  0.398988  0  0.031986  0.028784  0  3.909981  0
C  C31  1  0.83098189  0.53208463  0.29814816  1  0.399012  0  0.032008  0.028855  0  3.909914  0
C  C32  1  0.08046454  0.48243487  0.78174528  1  0.563571  0  0.047795  0.038561  0  3.939845  0
C  C33  1  0.91953168  0.51756306  0.21825012  1  0.56357  0  0.047774  0.038469  0  3.940256  0
C  C34  1  0.37656867  0.35809637  0.81558879  1  0.559727  0  0.116558  0.048512  0  3.981789  0
C  C35  1  0.62341230  0.64188825  0.18441236  1  0.559708  0  0.116582  0.0486  0  3.981429  0
C  C36  1  0.47128079  0.34779496  0.73710121  1  0.437189  0  0.042238  0.023658  0  3.90047  0
C  C37  1  0.52869486  0.65220111  0.26290207  1  0.437249  0  0.042176  0.02355  0  3.90051  0
C  C38  1  0.49519626  0.28041723  0.87295094  1  1.590299  0  0.229423  0.557842  0  4.151572  0
C  C39  1  0.50478886  0.71959922  0.12705622  1  1.590064  0  0.229266  0.557542  0  4.152097  0
I  I40  1  0.22344177  0.35734334  0.44260572  1  -0.379477  0  -0.162799  -0.274489  0  2.424336  0
I  I41  1  0.77656573  0.64266316  0.55740044  1  -0.37943  0  -0.162805  -0.27451  0  2.424324  0
I  I42  1  0.77531687  0.13591782  0.55571908  1  -0.357564  0  -0.152956  -0.253921  0  2.473461  0
I  I43  1  0.22468925  0.86408213  0.44427976  1  -0.357647  0  -0.152972  -0.253959  0  2.473373  0
N  N44  1  0.64450140  0.10064077  0.31676564  1  -1.176456  0  -0.3423  -0.131573  0  3.613316  0
N  N45  1  0.35548594  0.89935921  0.68323340  1  -1.176721  0  -0.342309  -0.131546  0  3.613273  0
N  N46  1  0.81802439  0.07994679  0.16021115  1  -1.252341  0  -0.313561  -0.109456  0  3.653329  0
N  N47  1  0.18196625  0.92005487  0.83978994  1  -1.252524  0  -0.313658  -0.10951  0  3.653356  0
N  N48  1  0.36731425  0.40114264  0.67937184  1  -1.210193  0  -0.352747  -0.147357  0  3.649036  0
N  N49  1  0.63266847  0.59885304  0.32062974  1  -1.209981  0  -0.352728  -0.147366  0  3.648934  0
N  N50  1  0.18170943  0.42671203  0.83879158  1  -1.120168  0  -0.278999  -0.182974  0  3.237695  0
N  N51  1  0.81827876  0.57328618  0.16121035  1  -1.120407  0  -0.279038  -0.183025  0  3.237923  0
O  O52  1  0.60247019  0.18936639  0.04870348  1  -1.151503  0  -0.308593  -0.523784  0  2.200892  0
O  O53  1  0.39753420  0.81063966  0.95130075  1  -1.151172  0  -0.308651  -0.523857  0  2.200483  0
O  O54  1  0.28826011  0.22978411  0.13207505  1  -1.167187  0  -0.326961  -0.545809  0  2.098066  0
O  O55  1  0.71174937  0.77023367  0.86792184  1  -1.167867  0  -0.326989  -0.545815  0  2.098607  0
O  O56  1  0.40986039  0.30852511  0.94795712  1  -1.164374  0  -0.31101  -0.450325  0  2.328855  0
O  O57  1  0.59014595  0.69146336  0.05203947  1  -1.164103  0  -0.311059  -0.450314  0  2.328594  0
O  O58  1  0.65232612  0.19338840  0.84488800  1  -1.164209  0  -0.304706  -0.520403  0  2.155177  0
O  O59  1  0.34772753  0.80661999  0.15511025  1  -1.164314  0  -0.3045  -0.520082  0  2.156138  0
