# generated using pymatgen
data_HgH12C14Br2(NO2)2
_symmetry_space_group_name_H-M   'P 1'
_cell_length_a   4.91343705
_cell_length_b   11.66229712
_cell_length_c   15.32413160
_cell_angle_alpha   103.85943798
_cell_angle_beta   90.00266093
_cell_angle_gamma   102.16007237
_symmetry_Int_Tables_number   1
_chemical_formula_structural   HgH12C14Br2(NO2)2
_chemical_formula_sum   'Hg2 H24 C28 Br4 N4 O8'
_cell_volume   832.22877241
_cell_formula_units_Z   2
loop_
 _symmetry_equiv_pos_site_id
 _symmetry_equiv_pos_as_xyz
  1  'x, y, z'
loop_
 _atom_site_type_symbol
 _atom_site_label
 _atom_site_symmetry_multiplicity
 _atom_site_fract_x
 _atom_site_fract_y
 _atom_site_fract_z
 _atom_site_occupancy
 _atom_site_hle17_bader_spin_density
 _atom_site_hle17_ddec_charge
 _atom_site_hle17_ddec_spin_density
 _atom_site_hle17_ddec_sum_bond_order
 _atom_site_hle17_magmom
 _atom_site_hse06_10hf_bader_spin_density
 _atom_site_hse06_10hf_ddec_charge
 _atom_site_hse06_10hf_ddec_spin_density
 _atom_site_hse06_10hf_ddec_sum_bond_order
 _atom_site_hse06_10hf_magmom
 _atom_site_hse06_bader_spin_density
 _atom_site_hse06_ddec_charge
 _atom_site_hse06_ddec_spin_density
 _atom_site_hse06_ddec_sum_bond_order
 _atom_site_hse06_magmom
 _atom_site_pbe_bader_spin_density
 _atom_site_pbe_cm5_charge
 _atom_site_pbe_ddec_charge
 _atom_site_pbe_ddec_spin_density
 _atom_site_pbe_ddec_sum_bond_order
 _atom_site_pbe_magmom
Hg  Hg0  1  0.47391322  0.00006262  0.25004223  1  0  0.672985  0  2.071126  0  0  0.512978  0  2.569906  0  0  0.560755  0  2.543121  0  0  0.468648  0.480726  0  2.587509  0
Hg  Hg1  1  0.52608559  0.99993660  0.74995769  1  0  0.672995  0  2.071137  0  0  0.512986  0  2.569926  0  0  0.560767  0  2.543133  0  0  0.468649  0.480739  0  2.587532  0
H  H2  1  0.25684313  0.56608140  0.51486125  1  0  0.083643  0  0.918066  0  0  0.095519  0  0.980617  0  0  0.096428  0  0.979404  0  0  0.110172  0.094766  0  0.981633  0
H  H3  1  0.69069528  0.43395904  0.98513506  1  0  0.08338  0  0.917906  0  0  0.095443  0  0.980488  0  0  0.096292  0  0.979342  0  0  0.109959  0.094706  0  0.981501  0
H  H4  1  0.74315817  0.43391873  0.48513817  1  0  0.083595  0  0.918046  0  0  0.095501  0  0.980568  0  0  0.096403  0  0.979364  0  0  0.110164  0.094747  0  0.981587  0
H  H5  1  0.30930398  0.56604108  0.01486437  1  0  0.083403  0  0.917878  0  0  0.095474  0  0.980462  0  0  0.096323  0  0.979316  0  0  0.109965  0.094739  0  0.981476  0
H  H6  1  0.55316110  0.60132126  0.44939963  1  0  0.072012  0  0.939171  0  0  0.081408  0  1.007991  0  0  0.082172  0  1.007394  0  0  0.10333  0.080784  0  1.008525  0
H  H7  1  0.95181278  0.39865803  0.05057396  1  0  0.071295  0  0.939336  0  0  0.080933  0  1.00809  0  0  0.081664  0  1.007527  0  0  0.102993  0.08031  0  1.008635  0
H  H8  1  0.44683817  0.39867886  0.55059980  1  0  0.072018  0  0.939126  0  0  0.081411  0  1.007958  0  0  0.082175  0  1.007359  0  0  0.103339  0.080786  0  1.008489  0
H  H9  1  0.04818648  0.60134209  0.94942547  1  0  0.071305  0  0.939336  0  0  0.080963  0  1.008078  0  0  0.081694  0  1.007515  0  0  0.103011  0.080342  0  1.008621  0
H  H10  1  0.92184531  0.24863621  0.33716963  1  0  0.079518  0  0.968758  0  0  0.078607  0  1.050467  0  0  0.082605  0  1.045605  0  0  0.102618  0.075647  0  1.054043  0
H  H11  1  0.67327159  0.75132764  0.16277636  1  0  0.079359  0  0.968407  0  0  0.07847  0  1.050205  0  0  0.082447  0  1.045376  0  0  0.10287  0.075554  0  1.053727  0
H  H12  1  0.07815441  0.75136482  0.66282997  1  0  0.07952  0  0.968756  0  0  0.0786  0  1.050481  0  0  0.082598  0  1.045619  0  0  0.102614  0.075631  0  1.054062  0
H  H13  1  0.32672722  0.24867158  0.83722356  1  0  0.079362  0  0.968401  0  0  0.078478  0  1.050192  0  0  0.082457  0  1.045357  0  0  0.102877  0.075564  0  1.053708  0
H  H14  1  0.82495507  0.04497487  0.07331795  1  0  0.072683  0  0.965521  0  0  0.076533  0  1.040522  0  0  0.079533  0  1.036982  0  0  0.097964  0.074341  0  1.043021  0
H  H15  1  0.77980363  0.95495821  0.42663031  1  0  0.073317  0  0.966061  0  0  0.076709  0  1.04151  0  0  0.079689  0  1.038054  0  0  0.09817  0.074507  0  1.043994  0
H  H16  1  0.17504577  0.95502435  0.92668197  1  0  0.072694  0  0.965506  0  0  0.076545  0  1.040504  0  0  0.079547  0  1.036965  0  0  0.097977  0.074356  0  1.043002  0
H  H17  1  0.22019722  0.04504101  0.57336895  1  0  0.073302  0  0.965997  0  0  0.076695  0  1.041442  0  0  0.079673  0  1.037987  0  0  0.098146  0.074492  0  1.043925  0
H  H18  1  0.25368270  0.17494093  0.02962089  1  0  0.104491  0  0.971143  0  0  0.109074  0  1.040503  0  0  0.113061  0  1.038682  0  0  0.093053  0.106219  0  1.042009  0
H  H19  1  0.07858764  0.82503225  0.47036698  1  0  0.104931  0  0.971677  0  0  0.109323  0  1.041212  0  0  0.113288  0  1.039438  0  0  0.093155  0.10648  0  1.042696  0
H  H20  1  0.74631611  0.82505829  0.97037902  1  0  0.104495  0  0.971137  0  0  0.10908  0  1.040498  0  0  0.113068  0  1.038676  0  0  0.093063  0.106226  0  1.042002  0
H  H21  1  0.92141321  0.17496697  0.52963293  1  0  0.104911  0  0.971698  0  0  0.109287  0  1.041243  0  0  0.113251  0  1.039472  0  0  0.093153  0.106446  0  1.042725  0
H  H22  1  0.52727160  0.34952587  0.15039774  1  0  0.112928  0  0.923742  0  0  0.124004  0  0.98043  0  0  0.127182  0  0.977824  0  0  0.115655  0.121722  0  0.982223  0
H  H23  1  0.17776658  0.65048042  0.34959962  1  0  0.112806  0  0.923887  0  0  0.123862  0  0.980365  0  0  0.126897  0  0.977936  0  0  0.115652  0.12167  0  0.982046  0
H  H24  1  0.47272721  0.65047334  0.84960153  1  0  0.112915  0  0.923749  0  0  0.12401  0  0.980418  0  0  0.127188  0  0.977812  0  0  0.115652  0.121724  0  0.982213  0
H  H25  1  0.82223471  0.34951971  0.65039981  1  0  0.112824  0  0.923861  0  0  0.123871  0  0.980354  0  0  0.126905  0  0.977927  0  0  0.115655  0.121683  0  0.982032  0
C  C26  1  0.40936438  0.41170691  0.32341178  1  0  0.595769  0  3.800941  0  0  0.543816  0  4.09917  0  0  0.577546  0  4.091353  0  0  0.238076  0.520827  0  4.104165  0
C  C27  1  0.99781898  0.58829780  0.17658595  1  0  0.594545  0  3.80375  0  0  0.543562  0  4.100642  0  0  0.57731  0  4.092806  0  0  0.238433  0.520546  0  4.105707  0
C  C28  1  0.59063488  0.58829321  0.67658765  1  0  0.59577  0  3.800955  0  0  0.543796  0  4.099195  0  0  0.577527  0  4.091379  0  0  0.238061  0.520814  0  4.104186  0
C  C29  1  0.00218028  0.41170233  0.82341348  1  0  0.594567  0  3.803793  0  0  0.543615  0  4.100637  0  0  0.577354  0  4.092814  0  0  0.238469  0.520607  0  4.105692  0
C  C30  1  0.41564538  0.52954406  0.47362183  1  0  0.059653  0  3.589163  0  0  -0.00462  0  3.865271  0  0  0.003443  0  3.868105  0  0  -0.071101  -0.010106  0  3.863424  0
C  C31  1  0.88605428  0.47046166  0.02637725  1  0  0.060386  0  3.587239  0  0  -0.004187  0  3.863689  0  0  0.003918  0  3.866468  0  0  -0.070564  -0.009653  0  3.861806  0
C  C32  1  0.58435434  0.47045697  0.52637776  1  0  0.059761  0  3.589089  0  0  -0.004544  0  3.865183  0  0  0.003522  0  3.868023  0  0  -0.071093  -0.010029  0  3.863336  0
C  C33  1  0.11394498  0.52953847  0.97362218  1  0  0.060371  0  3.587226  0  0  -0.00425  0  3.863736  0  0  0.00385  0  3.866519  0  0  -0.070567  -0.009726  0  3.861859  0
C  C34  1  0.24397252  0.31228926  0.25199982  1  0  -0.111095  0  3.764701  0  0  -0.088935  0  4.004736  0  0  -0.102016  0  4.027277  0  0  -0.011741  -0.08071  0  3.989863  0
C  C35  1  0.93187415  0.68775279  0.24797168  1  0  -0.108666  0  3.763366  0  0  -0.086712  0  4.002875  0  0  -0.099767  0  4.025369  0  0  -0.011289  -0.078498  0  3.988034  0
C  C36  1  0.75602674  0.68771086  0.74799961  1  0  -0.111123  0  3.764632  0  0  -0.088964  0  4.004681  0  0  -0.102044  0  4.027221  0  0  -0.011756  -0.080743  0  3.989808  0
C  C37  1  0.06812670  0.31224643  0.75202758  1  0  -0.10874  0  3.763493  0  0  -0.086752  0  4.002937  0  0  -0.099803  0  4.025433  0  0  -0.011287  -0.078535  0  3.988096  0
C  C38  1  0.00257466  0.23597903  0.27007790  1  0  0.12617  0  3.699625  0  0  0.080953  0  3.957768  0  0  0.091031  0  3.974342  0  0  0.04756  0.074512  0  3.946552  0
C  C39  1  0.76670933  0.76403448  0.22986969  1  0  0.125147  0  3.698073  0  0  0.079537  0  3.956523  0  0  0.089625  0  3.973067  0  0  0.047392  0.073065  0  3.945313  0
C  C40  1  0.99742461  0.76402110  0.72992218  1  0  0.126201  0  3.699623  0  0  0.08099  0  3.957762  0  0  0.091066  0  3.974338  0  0  0.047575  0.074555  0  3.946551  0
C  C41  1  0.23329197  0.23596564  0.77012973  1  0  0.125195  0  3.698103  0  0  0.079581  0  3.956544  0  0  0.089669  0  3.973092  0  0  0.047399  0.073105  0  3.945334  0
C  C42  1  0.95011575  0.12186803  0.12226024  1  0  0.131184  0  3.7185  0  0  0.097765  0  3.970162  0  0  0.106945  0  3.988167  0  0  0.04012  0.091955  0  3.957838  0
C  C43  1  0.82818082  0.87809654  0.37769703  1  0  0.130494  0  3.718212  0  0  0.097464  0  3.969338  0  0  0.106613  0  3.987367  0  0  0.039927  0.091689  0  3.957014  0
C  C44  1  0.04988351  0.87813209  0.87773984  1  0  0.131121  0  3.718481  0  0  0.097703  0  3.970152  0  0  0.10688  0  3.988157  0  0  0.040072  0.091884  0  3.957834  0
C  C45  1  0.17182048  0.12190359  0.62230305  1  0  0.130499  0  3.718238  0  0  0.097472  0  3.969351  0  0  0.10662  0  3.987382  0  0  0.039944  0.091705  0  3.957026  0
C  C46  1  0.18771535  0.19457683  0.09852716  1  0  -0.126579  0  3.731295  0  0  -0.134666  0  3.98313  0  0  -0.143885  0  4.003804  0  0  -0.09  -0.128913  0  3.969383  0
C  C47  1  0.99305522  0.80540549  0.40145630  1  0  -0.125891  0  3.729786  0  0  -0.13387  0  3.981109  0  0  -0.143077  0  4.001785  0  0  -0.08966  -0.128127  0  3.967353  0
C  C48  1  0.81228550  0.80542239  0.90147275  1  0  -0.126567  0  3.731274  0  0  -0.134663  0  3.983122  0  0  -0.143885  0  4.003802  0  0  -0.090009  -0.128912  0  3.969372  0
C  C49  1  0.00694563  0.19459373  0.59854361  1  0  -0.125851  0  3.72986  0  0  -0.133807  0  3.981182  0  0  -0.143011  0  4.001852  0  0  -0.089656  -0.128063  0  3.967426  0
C  C50  1  0.33847382  0.29043341  0.16465452  1  0  0.021503  0  3.653017  0  0  -0.00962  0  3.900721  0  0  -0.00211  0  3.91573  0  0  -0.052165  -0.014194  0  3.89048  0
C  C51  1  0.04817732  0.70960759  0.33531809  1  0  0.019691  0  3.652162  0  0  -0.011052  0  3.899346  0  0  -0.003505  0  3.914423  0  0  -0.052452  -0.015624  0  3.889024  0
C  C52  1  0.66152748  0.70956671  0.83534621  1  0  0.021553  0  3.652945  0  0  -0.009579  0  3.900657  0  0  -0.002068  0  3.915662  0  0  -0.052129  -0.014149  0  3.890412  0
C  C53  1  0.95182398  0.29039253  0.66468134  1  0  0.019685  0  3.652141  0  0  -0.011067  0  3.899325  0  0  -0.00352  0  3.914402  0  0  -0.052451  -0.015647  0  3.889011  0
Br  Br54  1  0.29593788  0.87117204  0.09401711  1  0  -0.42145  0  1.018866  0  0  -0.361687  0  1.327841  0  0  -0.381903  0  1.311046  0  0  -0.208767  -0.347734  0  1.339213  0
Br  Br55  1  0.42688687  0.12910822  0.40621315  1  0  -0.421663  0  1.018883  0  0  -0.361901  0  1.327532  0  0  -0.382045  0  1.310658  0  0  -0.208686  -0.348028  0  1.338983  0
Br  Br56  1  0.70406342  0.12882808  0.90598297  1  0  -0.421445  0  1.018861  0  0  -0.361685  0  1.327846  0  0  -0.3819  0  1.311042  0  0  -0.20876  -0.347732  0  1.339217  0
Br  Br57  1  0.57311240  0.87089190  0.59378693  1  0  -0.421671  0  1.018896  0  0  -0.361903  0  1.327544  0  0  -0.382047  0  1.310672  0  0  -0.20868  -0.348027  0  1.338999  0
N  N58  1  0.86150971  0.14232651  0.20642809  1  0  -0.312227  0  3.28008  0  0  -0.230576  0  3.545563  0  0  -0.253394  0  3.568043  0  0  -0.316555  -0.215198  0  3.529881  0
N  N59  1  0.71924364  0.85765998  0.29351997  1  0  -0.312129  0  3.277573  0  0  -0.230169  0  3.542673  0  0  -0.252957  0  3.565083  0  0  -0.317061  -0.214806  0  3.527044  0
N  N60  1  0.13848797  0.85767452  0.79357216  1  0  -0.312233  0  3.280117  0  0  -0.230579  0  3.545596  0  0  -0.253397  0  3.568079  0  0  -0.316551  -0.215199  0  3.529914  0
N  N61  1  0.28075766  0.14234014  0.70648011  1  0  -0.312141  0  3.277528  0  0  -0.230193  0  3.542645  0  0  -0.252982  0  3.565055  0  0  -0.317074  -0.214835  0  3.527021  0
O  O62  1  0.64978053  0.46266278  0.31632246  1  0  -0.508363  0  1.957166  0  0  -0.470881  0  2.181052  0  0  -0.492049  0  2.176256  0  0  -0.267689  -0.45632  0  2.184026  0
O  O63  1  0.18706369  0.53723388  0.18370739  1  0  -0.508626  0  1.95954  0  0  -0.471192  0  2.182703  0  0  -0.492391  0  2.177867  0  0  -0.267937  -0.456598  0  2.185731  0
O  O64  1  0.35021874  0.53733735  0.68367762  1  0  -0.508355  0  1.957185  0  0  -0.470874  0  2.18108  0  0  -0.492043  0  2.176287  0  0  -0.267685  -0.45631  0  2.184039  0
O  O65  1  0.81293512  0.46276534  0.81629187  1  0  -0.508601  0  1.959562  0  0  -0.4712  0  2.182754  0  0  -0.492395  0  2.177918  0  0  -0.267942  -0.456612  0  2.185781  0
O  O66  1  0.26362824  0.43856349  0.39840108  1  0  -0.316199  0  2.262786  0  0  -0.243262  0  2.501525  0  0  -0.264998  0  2.499408  0  0  -0.165143  -0.228038  0  2.502397  0
O  O67  1  0.82515087  0.56144966  0.10161083  1  0  -0.315021  0  2.261914  0  0  -0.242646  0  2.500833  0  0  -0.264358  0  2.498654  0  0  -0.164949  -0.227495  0  2.50181  0
O  O68  1  0.73636899  0.56143663  0.60159835  1  0  -0.316295  0  2.262867  0  0  -0.243318  0  2.50159  0  0  -0.265053  0  2.499469  0  0  -0.165172  -0.228101  0  2.502463  0
O  O69  1  0.17485088  0.43855137  0.89839007  1  0  -0.315018  0  2.26188  0  0  -0.242665  0  2.500819  0  0  -0.264377  0  2.498649  0  0  -0.164962  -0.227511  0  2.501795  0
