# generated using pymatgen
data_DyH16C15O11
_symmetry_space_group_name_H-M   'P 1'
_cell_length_a   8.04888295
_cell_length_b   9.33780790
_cell_length_c   12.76247541
_cell_angle_alpha   104.41026066
_cell_angle_beta   95.30989815
_cell_angle_gamma   109.61287329
_symmetry_Int_Tables_number   1
_chemical_formula_structural   DyH16C15O11
_chemical_formula_sum   'Dy2 H32 C30 O22'
_cell_volume   858.68245154
_cell_formula_units_Z   2
loop_
 _symmetry_equiv_pos_site_id
 _symmetry_equiv_pos_as_xyz
  1  'x, y, z'
loop_
 _atom_site_type_symbol
 _atom_site_label
 _atom_site_symmetry_multiplicity
 _atom_site_fract_x
 _atom_site_fract_y
 _atom_site_fract_z
 _atom_site_occupancy
 _atom_site_hle17_bader_spin_density
 _atom_site_hle17_ddec_charge
 _atom_site_hle17_ddec_spin_density
 _atom_site_hle17_ddec_sum_bond_order
 _atom_site_hle17_magmom
 _atom_site_hse06_10hf_bader_spin_density
 _atom_site_hse06_10hf_ddec_charge
 _atom_site_hse06_10hf_ddec_spin_density
 _atom_site_hse06_10hf_ddec_sum_bond_order
 _atom_site_hse06_10hf_magmom
 _atom_site_hse06_bader_spin_density
 _atom_site_hse06_ddec_charge
 _atom_site_hse06_ddec_spin_density
 _atom_site_hse06_ddec_sum_bond_order
 _atom_site_hse06_magmom
 _atom_site_pbe_bader_spin_density
 _atom_site_pbe_cm5_charge
 _atom_site_pbe_ddec_charge
 _atom_site_pbe_ddec_spin_density
 _atom_site_pbe_ddec_sum_bond_order
 _atom_site_pbe_magmom
Dy  Dy0  1  0.63485362  0.22112549  0.51206697  1  0  2.237762  0  1.623614  0  0  2.088299  0  2.094503  0  0  2.219872  0  1.900691  0  0  1.510681  2.051351  0  2.125818  0
Dy  Dy1  1  0.36516856  0.77888196  0.48792671  1  0  2.237843  0  1.623649  0  0  2.088293  0  2.09468  0  0  2.219955  0  1.90073  0  0  1.510723  2.051348  0  2.125989  0
H  H2  1  0.96142401  0.22107326  0.47390219  1  0  0.443408  0  0.843459  0  0  0.411929  0  0.90784  0  0  0.423328  0  0.891335  0  0  0.31502  0.403512  0  0.920286  0
H  H3  1  0.03859918  0.77891086  0.52609612  1  0  0.443337  0  0.843574  0  0  0.411844  0  0.907973  0  0  0.423242  0  0.891469  0  0  0.314968  0.403424  0  0.920424  0
H  H4  1  0.04985854  0.36005376  0.58806952  1  0  0.44185  0  0.802208  0  0  0.424294  0  0.852835  0  0  0.432191  0  0.845474  0  0  0.338661  0.418733  0  0.858761  0
H  H5  1  0.95014307  0.63992621  0.41193070  1  0  0.441827  0  0.802398  0  0  0.424266  0  0.853013  0  0  0.432161  0  0.845656  0  0  0.338622  0.418703  0  0.858944  0
H  H6  1  0.86807459  0.55331725  0.55910516  1  0  0.444728  0  0.844375  0  0  0.418772  0  0.898295  0  0  0.429645  0  0.882688  0  0  0.304972  0.411369  0  0.909079  0
H  H7  1  0.13194845  0.44668929  0.44090174  1  0  0.444731  0  0.844382  0  0  0.418841  0  0.898217  0  0  0.429714  0  0.882609  0  0  0.304977  0.411429  0  0.909017  0
H  H8  1  0.68262313  0.56654121  0.58089753  1  0  0.438718  0  0.86178  0  0  0.409034  0  0.923562  0  0  0.421034  0  0.906307  0  0  0.296297  0.400924  0  0.935306  0
H  H9  1  0.31739359  0.43346510  0.41910738  1  0  0.43892  0  0.861534  0  0  0.40914  0  0.923442  0  0  0.421135  0  0.906199  0  0  0.296353  0.401029  0  0.935188  0
H  H10  1  0.92980799  0.81006954  0.32575100  1  0  0.094042  0  0.933225  0  0  0.103718  0  0.997848  0  0  0.106336  0  0.994843  0  0  0.115062  0.101961  0  0.999862  0
H  H11  1  0.07019026  0.18991143  0.67424606  1  0  0.094012  0  0.933143  0  0  0.103688  0  0.997805  0  0  0.106286  0  0.994796  0  0  0.115081  0.101899  0  0.999845  0
H  H12  1  0.74958347  0.76183667  0.21738715  1  0  0.094287  0  0.959233  0  0  0.102878  0  1.024647  0  0  0.104367  0  1.02388  0  0  0.112171  0.10188  0  1.025098  0
H  H13  1  0.25040569  0.23814985  0.78260798  1  0  0.094253  0  0.959203  0  0  0.102894  0  1.024599  0  0  0.104371  0  1.023821  0  0  0.112211  0.101895  0  1.025039  0
H  H14  1  0.09478696  0.26260257  0.23365204  1  0  0.10308  0  0.972541  0  0  0.115132  0  1.032925  0  0  0.119289  0  1.029009  0  0  0.100485  0.1122  0  1.035647  0
H  H15  1  0.90522706  0.73738376  0.76635472  1  0  0.103012  0  0.972501  0  0  0.114969  0  1.033026  0  0  0.119108  0  1.029117  0  0  0.100451  0.112038  0  1.035744  0
H  H16  1  0.03897340  0.33526670  0.06174816  1  0  0.109402  0  0.946144  0  0  0.122085  0  1.002731  0  0  0.124949  0  1.001267  0  0  0.106307  0.119978  0  1.003955  0
H  H17  1  0.96103380  0.66473111  0.93825706  1  0  0.10941  0  0.946055  0  0  0.122095  0  1.002638  0  0  0.124957  0  1.001179  0  0  0.106309  0.119985  0  1.003865  0
H  H18  1  0.59061333  0.88721863  0.92932158  1  0  0.105876  0  0.97259  0  0  0.11516  0  1.036426  0  0  0.118177  0  1.035286  0  0  0.101507  0.11294  0  1.037372  0
H  H19  1  0.40938892  0.11278253  0.07068314  1  0  0.105783  0  0.972539  0  0  0.115051  0  1.036413  0  0  0.118069  0  1.035275  0  0  0.101475  0.112875  0  1.037307  0
H  H20  1  0.65554672  0.81054157  0.09188295  1  0  0.09377  0  1.009471  0  0  0.102738  0  1.075394  0  0  0.10428  0  1.077019  0  0  0.094499  0.101537  0  1.074518  0
H  H21  1  0.34446070  0.18945026  0.90811497  1  0  0.093789  0  1.00949  0  0  0.102742  0  1.075435  0  0  0.104282  0  1.07706  0  0  0.094482  0.101538  0  1.074563  0
H  H22  1  0.53999185  0.01074543  0.80468752  1  0  0.095573  0  0.915824  0  0  0.104537  0  0.979609  0  0  0.106226  0  0.97876  0  0  0.114903  0.103433  0  0.98013  0
H  H23  1  0.46005240  0.98928360  0.19529400  1  0  0.095548  0  0.915585  0  0  0.104548  0  0.97939  0  0  0.106235  0  0.978542  0  0  0.114904  0.103435  0  0.979911  0
H  H24  1  0.71594192  0.93999239  0.77532332  1  0  0.094962  0  0.931968  0  0  0.101075  0  1.003875  0  0  0.102797  0  1.002468  0  0  0.11535  0.099932  0  1.004674  0
H  H25  1  0.28407299  0.06003845  0.22468027  1  0  0.095029  0  0.931888  0  0  0.101143  0  1.003801  0  0  0.102864  0  1.002394  0  0  0.11538  0.099996  0  1.004594  0
H  H26  1  0.35683256  0.34303734  0.22194020  1  0  0.082967  0  0.951612  0  0  0.091144  0  1.023098  0  0  0.092328  0  1.022091  0  0  0.111646  0.090338  0  1.02358  0
H  H27  1  0.64313563  0.65694996  0.77807026  1  0  0.08308  0  0.951626  0  0  0.091295  0  1.023053  0  0  0.092493  0  1.022041  0  0  0.111717  0.090487  0  1.023537  0
H  H28  1  0.51106172  0.53424458  0.30443091  1  0  0.100616  0  0.963542  0  0  0.108616  0  1.029765  0  0  0.111577  0  1.027939  0  0  0.116029  0.106176  0  1.031988  0
H  H29  1  0.48890909  0.46574627  0.69557641  1  0  0.100662  0  0.963492  0  0  0.108622  0  1.029763  0  0  0.111591  0  1.027939  0  0  0.11607  0.106181  0  1.03198  0
H  H30  1  0.74210091  0.39148256  0.00542300  1  0  0.121456  0  0.955871  0  0  0.129907  0  1.017276  0  0  0.133869  0  1.014469  0  0  0.109564  0.127072  0  1.019327  0
H  H31  1  0.25784248  0.60852137  0.99457633  1  0  0.121815  0  0.955633  0  0  0.130259  0  1.017041  0  0  0.134208  0  1.014258  0  0  0.109669  0.127441  0  1.019076  0
H  H32  1  0.34655543  0.54025076  0.15909460  1  0  0.116074  0  0.957129  0  0  0.127641  0  1.015539  0  0  0.131127  0  1.013535  0  0  0.109933  0.125195  0  1.016955  0
H  H33  1  0.65337982  0.45974827  0.84090809  1  0  0.115851  0  0.957356  0  0  0.127473  0  1.015743  0  0  0.130952  0  1.013752  0  0  0.109905  0.125027  0  1.01716  0
C  C34  1  0.72687576  0.90076871  0.37443015  1  0  0.743294  0  3.786724  0  0  0.696528  0  4.084652  0  0  0.73178  0  4.077516  0  0  0.236736  0.673192  0  4.091233  0
C  C35  1  0.27314074  0.09923053  0.62557352  1  0  0.743206  0  3.78658  0  0  0.696481  0  4.084498  0  0  0.731728  0  4.077337  0  0  0.236704  0.673147  0  4.091071  0
C  C36  1  0.83829910  0.85793908  0.28990226  1  0  -0.071975  0  3.626115  0  0  -0.124965  0  3.878919  0  0  -0.12176  0  3.877395  0  0  -0.062616  -0.127008  0  3.878896  0
C  C37  1  0.16171360  0.14204691  0.71008712  1  0  -0.071787  0  3.625917  0  0  -0.124866  0  3.878847  0  0  -0.121588  0  3.877226  0  0  -0.062618  -0.126873  0  3.878803  0
C  C38  1  0.88742334  0.02892494  0.17218254  1  0  0.252229  0  3.794205  0  0  0.241916  0  4.059192  0  0  0.251465  0  4.07478  0  0  0.070702  0.235229  0  4.048507  0
C  C39  1  0.11259018  0.97106000  0.82781298  1  0  0.252021  0  3.794733  0  0  0.241829  0  4.059521  0  0  0.251381  0  4.075106  0  0  0.070603  0.235142  0  4.048837  0
C  C40  1  0.98932394  0.17909578  0.16429861  1  0  -0.152822  0  3.761395  0  0  -0.176167  0  4.018559  0  0  -0.178405  0  4.0349  0  0  -0.103094  -0.174496  0  4.007451  0
C  C41  1  0.01069061  0.82089512  0.83570036  1  0  -0.152676  0  3.761559  0  0  -0.175984  0  4.018696  0  0  -0.178201  0  4.03502  0  0  -0.10304  -0.174314  0  4.007585  0
C  C42  1  0.95585254  0.22087706  0.06984680  1  0  -0.142069  0  3.75471  0  0  -0.163944  0  4.009365  0  0  -0.166094  0  4.027976  0  0  -0.097051  -0.162417  0  3.996868  0
C  C43  1  0.04414509  0.77912505  0.93015311  1  0  -0.142177  0  3.754766  0  0  -0.164009  0  4.009428  0  0  -0.166167  0  4.028054  0  0  -0.097109  -0.162483  0  3.996935  0
C  C44  1  0.81658321  0.11422983  0.98224799  1  0  0.243045  0  3.807302  0  0  0.232166  0  4.071528  0  0  0.24047  0  4.089693  0  0  0.071467  0.22638  0  4.059217  0
C  C45  1  0.18341985  0.88575715  0.01774883  1  0  0.243158  0  3.80699  0  0  0.23218  0  4.071372  0  0  0.240423  0  4.089548  0  0  0.071532  0.226378  0  4.059075  0
C  C46  1  0.70580115  0.96947123  0.99318703  1  0  -0.181973  0  3.780711  0  0  -0.202039  0  4.036512  0  0  -0.206335  0  4.058834  0  0  -0.112119  -0.199039  0  4.021572  0
C  C47  1  0.29419442  0.03053205  0.00681609  1  0  -0.181986  0  3.780377  0  0  -0.201999  0  4.036247  0  0  -0.206304  0  4.058585  0  0  -0.112169  -0.199039  0  4.02129  0
C  C48  1  0.74184774  0.92647333  0.08811085  1  0  -0.183862  0  3.785739  0  0  -0.203495  0  4.038326  0  0  -0.207666  0  4.060283  0  0  -0.115337  -0.200614  0  4.023656  0
C  C49  1  0.25815060  0.07352416  0.91189143  1  0  -0.183819  0  3.785858  0  0  -0.203465  0  4.038394  0  0  -0.207641  0  4.060361  0  0  -0.115321  -0.200586  0  4.023737  0
C  C50  1  0.68188773  0.04750837  0.79459543  1  0  -0.061335  0  3.639233  0  0  -0.112266  0  3.890795  0  0  -0.109055  0  3.890897  0  0  -0.057435  -0.114174  0  3.889983  0
C  C51  1  0.31813716  0.95251917  0.20540269  1  0  -0.061066  0  3.638462  0  0  -0.1122  0  3.890236  0  0  -0.109042  0  3.890302  0  0  -0.057423  -0.114084  0  3.889389  0
C  C52  1  0.69235806  0.10655340  0.69448880  1  0  0.730154  0  3.810487  0  0  0.682057  0  4.110024  0  0  0.716301  0  4.107375  0  0  0.219592  0.658719  0  4.116966  0
C  C53  1  0.30766127  0.89345644  0.30551218  1  0  0.729976  0  3.810544  0  0  0.682139  0  4.109716  0  0  0.716398  0  4.107053  0  0  0.219604  0.658764  0  4.116706  0
C  C54  1  0.54864230  0.33964612  0.34547459  1  0  0.657563  0  3.897424  0  0  0.609772  0  4.200806  0  0  0.641314  0  4.201339  0  0  0.190773  0.587568  0  4.20554  0
C  C55  1  0.45136176  0.66035970  0.65452478  1  0  0.657559  0  3.897632  0  0  0.609779  0  4.200971  0  0  0.641331  0  4.201527  0  0  0.190762  0.587572  0  4.205705  0
C  C56  1  0.49934396  0.41240716  0.26069452  1  0  -0.083126  0  3.679024  0  0  -0.137407  0  3.937277  0  0  -0.134326  0  3.936608  0  0  -0.071315  -0.138895  0  3.936513  0
C  C57  1  0.50063757  0.58759202  0.73930078  1  0  -0.083227  0  3.679266  0  0  -0.137416  0  3.937358  0  0  -0.134384  0  3.936763  0  0  -0.071348  -0.138902  0  3.936595  0
C  C58  1  0.55180611  0.46011553  0.09294810  1  0  0.232713  0  3.832589  0  0  0.223948  0  4.096576  0  0  0.232471  0  4.113771  0  0  0.068604  0.217953  0  4.084832  0
C  C59  1  0.44813967  0.53989787  0.90705302  1  0  0.232946  0  3.832508  0  0  0.224218  0  4.09649  0  0  0.232742  0  4.113677  0  0  0.068657  0.21822  0  4.084747  0
C  C60  1  0.63753228  0.44079930  0.00322858  1  0  -0.147252  0  3.75394  0  0  -0.170202  0  4.0093  0  0  -0.171958  0  4.025705  0  0  -0.100024  -0.168808  0  3.998121  0
C  C61  1  0.36241007  0.55921168  0.99677427  1  0  -0.147822  0  3.754146  0  0  -0.170777  0  4.009515  0  0  -0.172521  0  4.025909  0  0  -0.100228  -0.16942  0  3.998364  0
C  C62  1  0.41399929  0.52046096  0.08990813  1  0  -0.192649  0  3.784373  0  0  -0.213157  0  4.040994  0  0  -0.216593  0  4.05989  0  0  -0.108892  -0.210604  0  4.027985  0
C  C63  1  0.58593495  0.47953221  0.91009584  1  0  -0.192496  0  3.784229  0  0  -0.21305  0  4.040915  0  0  -0.216484  0  4.059813  0  0  -0.108968  -0.210497  0  4.027906  0
O  O64  1  0.77247798  0.04712151  0.42711447  1  0  -0.739488  0  2.117655  0  0  -0.682261  0  2.364494  0  0  -0.719145  0  2.351131  0  0  -0.380885  -0.663574  0  2.371742  0
O  O65  1  0.22752564  0.95287017  0.57288163  1  0  -0.739595  0  2.117394  0  0  -0.682356  0  2.364235  0  0  -0.719261  0  2.350864  0  0  -0.380956  -0.663671  0  2.371488  0
O  O66  1  0.59778988  0.78706639  0.38734208  1  0  -0.708291  0  2.009703  0  0  -0.656902  0  2.258768  0  0  -0.694773  0  2.246457  0  0  -0.379972  -0.638154  0  2.264314  0
O  O67  1  0.40221488  0.21293480  0.61265966  1  0  -0.708204  0  2.009696  0  0  -0.656835  0  2.258717  0  0  -0.6947  0  2.246415  0  0  -0.37987  -0.63809  0  2.264263  0
O  O68  1  0.94929228  0.99277993  0.26362536  1  0  -0.259907  0  2.320194  0  0  -0.196942  0  2.556319  0  0  -0.211367  0  2.555957  0  0  -0.187743  -0.186285  0  2.555717  0
O  O69  1  0.05072652  0.00721229  0.73637488  1  0  -0.259898  0  2.320467  0  0  -0.196952  0  2.55659  0  0  -0.211401  0  2.556204  0  0  -0.18774  -0.186297  0  2.55597  0
O  O70  1  0.79972592  0.16425865  0.88988379  1  0  -0.256979  0  2.324218  0  0  -0.19126  0  2.555797  0  0  -0.206869  0  2.557447  0  0  -0.182294  -0.180294  0  2.554231  0
O  O71  1  0.20026475  0.83573514  0.11012209  1  0  -0.257084  0  2.323921  0  0  -0.191302  0  2.555601  0  0  -0.206763  0  2.557158  0  0  -0.182228  -0.180309  0  2.553999  0
O  O72  1  0.78708248  0.24584243  0.69599305  1  0  -0.664803  0  1.906381  0  0  -0.624852  0  2.138583  0  0  -0.656292  0  2.125659  0  0  -0.358854  -0.609286  0  2.145722  0
O  O73  1  0.21296348  0.75417171  0.30400558  1  0  -0.664737  0  1.906616  0  0  -0.624841  0  2.138676  0  0  -0.656309  0  2.125767  0  0  -0.358894  -0.609272  0  2.145843  0
O  O74  1  0.59091723  0.00513064  0.60380448  1  0  -0.855546  0  2.216884  0  0  -0.797009  0  2.481134  0  0  -0.844713  0  2.471786  0  0  -0.457597  -0.776955  0  2.485316  0
O  O75  1  0.40912307  0.99489150  0.39619284  1  0  -0.855613  0  2.216951  0  0  -0.797145  0  2.481059  0  0  -0.844857  0  2.471703  0  0  -0.45765  -0.777073  0  2.485243  0
O  O76  1  0.44700993  0.32617205  0.41778514  1  0  -0.707987  0  2.010653  0  0  -0.65331  0  2.243982  0  0  -0.68744  0  2.234344  0  0  -0.37449  -0.6349  0  2.249474  0
O  O77  1  0.55299995  0.67381647  0.58222019  1  0  -0.707822  0  2.010758  0  0  -0.653219  0  2.244122  0  0  -0.687358  0  2.234478  0  0  -0.374397  -0.634808  0  2.249618  0
O  O78  1  0.68096081  0.29564275  0.34810632  1  0  -0.649953  0  1.943817  0  0  -0.609195  0  2.180068  0  0  -0.640969  0  2.170413  0  0  -0.376287  -0.593362  0  2.185449  0
O  O79  1  0.31902955  0.70435662  0.65188405  1  0  -0.649993  0  1.943702  0  0  -0.609199  0  2.179888  0  0  -0.640987  0  2.170235  0  0  -0.37632  -0.593365  0  2.185271  0
O  O80  1  0.60914562  0.41473260  0.18009183  1  0  -0.251857  0  2.313451  0  0  -0.186557  0  2.544019  0  0  -0.201453  0  2.544645  0  0  -0.185927  -0.175813  0  2.542786  0
O  O81  1  0.39081463  0.58527292  0.81990173  1  0  -0.251894  0  2.313149  0  0  -0.186727  0  2.54377  0  0  -0.201604  0  2.544404  0  0  -0.185964  -0.17598  0  2.542523  0
O  O82  1  0.98137384  0.33331141  0.51414095  1  0  -0.842847  0  1.863779  0  0  -0.787127  0  2.041283  0  0  -0.813985  0  2.011063  0  0  -0.566553  -0.773242  0  2.060428  0
O  O83  1  0.01863877  0.66667118  0.48585567  1  0  -0.842794  0  1.864119  0  0  -0.786985  0  2.041573  0  0  -0.813853  0  2.011358  0  0  -0.566473  -0.7731  0  2.060717  0
O  O84  1  0.75946150  0.50212705  0.58687952  1  0  -0.922886  0  1.853217  0  0  -0.874302  0  2.042832  0  0  -0.906015  0  2.003971  0  0  -0.652446  -0.859649  0  2.064662  0
O  O85  1  0.24055809  0.49787695  0.41312281  1  0  -0.923037  0  1.853123  0  0  -0.874449  0  2.042789  0  0  -0.906174  0  2.00393  0  0  -0.652472  -0.859792  0  2.064623  0
