# generated using pymatgen
data_CuH16C14(N4O5)2
_symmetry_space_group_name_H-M   'P 1'
_cell_length_a   7.02581441
_cell_length_b   7.49224767
_cell_length_c   9.78280260
_cell_angle_alpha   69.87778755
_cell_angle_beta   88.45108086
_cell_angle_gamma   75.80059369
_symmetry_Int_Tables_number   1
_chemical_formula_structural   CuH16C14(N4O5)2
_chemical_formula_sum   'Cu1 H16 C14 N8 O10'
_cell_volume   467.82152966
_cell_formula_units_Z   1
loop_
 _symmetry_equiv_pos_site_id
 _symmetry_equiv_pos_as_xyz
  1  'x, y, z'
loop_
 _atom_site_type_symbol
 _atom_site_label
 _atom_site_symmetry_multiplicity
 _atom_site_fract_x
 _atom_site_fract_y
 _atom_site_fract_z
 _atom_site_occupancy
 _atom_site_hle17_ddec_charge
 _atom_site_hle17_ddec_spin_density
 _atom_site_hle17_ddec_sum_bond_order
 _atom_site_hle17_magmom
 _atom_site_hse06_10hf_ddec_charge
 _atom_site_hse06_10hf_ddec_spin_density
 _atom_site_hse06_10hf_ddec_sum_bond_order
 _atom_site_hse06_10hf_magmom
 _atom_site_hse06_ddec_charge
 _atom_site_hse06_ddec_spin_density
 _atom_site_hse06_ddec_sum_bond_order
 _atom_site_hse06_magmom
 _atom_site_pbe_cm5_charge
 _atom_site_pbe_ddec_charge
 _atom_site_pbe_ddec_spin_density
 _atom_site_pbe_ddec_sum_bond_order
 _atom_site_pbe_magmom
Cu  Cu0  1  0.00000056  0.50000058  0.00000045  1  0.85998  -0.694769  1.826332  -0.527  0.840714  -0.786566  2.206684  -0.645  0.930244  -0.852029  2.143729  -0.734  0.750554  0.783981  -0.737234  2.251242  -0.584
H  H1  1  0.94286383  0.81874276  0.18331757  1  0.415253  -3.1e-05  0.867761  0.0  0.386469  -2.5e-05  0.938377  0.0  0.39883  -3.1e-05  0.925738  0.0  0.304012  0.377778  -2.6e-05  0.947216  0.0
H  H2  1  0.05713614  0.18125265  0.81668513  1  0.41525  -3.1e-05  0.867823  0.0  0.386478  -2.5e-05  0.938412  0.0  0.39884  -3.2e-05  0.925768  0.0  0.304011  0.377784  -2.6e-05  0.947248  0.0
H  H3  1  0.91561190  0.86246036  0.96456215  1  0.407773  0.000286  0.91266  0.0  0.371059  0.000257  0.988796  0.0  0.382883  0.000274  0.971696  0.0  0.284738  0.362576  0.000212  1.001149  0.0
H  H4  1  0.08438372  0.13754089  0.03543804  1  0.407779  0.000287  0.912659  0.0  0.371058  0.000257  0.988804  0.0  0.38288  0.000274  0.971706  0.0  0.284728  0.362579  0.000212  1.001154  0.0
H  H5  1  0.14315528  0.83517351  0.99787871  1  0.423711  -2e-06  0.865561  0.0  0.394571  5e-06  0.937018  0.0  0.405657  1e-06  0.920765  0.0  0.298021  0.386634  1e-06  0.94873  0.0
H  H6  1  0.85684254  0.16482479  0.00211917  1  0.423732  -2e-06  0.865519  0.0  0.394598  5e-06  0.936978  0.0  0.405682  0.0  0.920728  0.0  0.29803  0.386661  1e-06  0.94869  0.0
H  H7  1  0.31614570  0.76399518  0.24762773  1  0.296799  0.000121  0.937198  0.0  0.280415  4.5e-05  1.008268  0.0  0.287166  4.2e-05  1.00205  0.0  0.292738  0.275587  3.9e-05  1.012667  0.0
H  H8  1  0.68385276  0.23600609  0.75237240  1  0.296833  0.000121  0.937145  0.0  0.280445  4.5e-05  1.008223  0.0  0.287199  4.2e-05  1.001997  0.0  0.292739  0.275617  3.9e-05  1.012622  0.0
H  H9  1  0.26444396  0.54926006  0.26159567  1  0.305206  0.000193  0.907217  0.0  0.293263  4e-05  0.971771  0.0  0.299146  6.3e-05  0.966606  0.0  0.301444  0.289073  -5.6e-05  0.975349  0.0
H  H10  1  0.73555413  0.45074267  0.73840204  1  0.305211  0.00019  0.907193  0.0  0.293263  3.9e-05  0.971752  0.0  0.299146  6.3e-05  0.966586  0.0  0.301435  0.289073  -5.6e-05  0.975331  0.0
H  H11  1  0.14979223  0.18899259  0.46569735  1  0.122664  6.8e-05  0.955931  0.0  0.124044  -1.4e-05  1.027959  0.0  0.129022  1.6e-05  1.023741  0.0  0.110623  0.120472  -6.3e-05  1.031183  0.0
H  H12  1  0.85021020  0.81100433  0.53430593  1  0.122646  7.9e-05  0.955945  0.0  0.124025  -1.4e-05  1.027983  0.0  0.129002  1.7e-05  1.023762  0.0  0.110601  0.120452  -6.3e-05  1.031207  0.0
H  H13  1  0.67749638  0.35769825  0.48076630  1  0.109914  -0.000347  0.971749  -0.001  0.113254  -0.000282  1.042391  0.0  0.116536  -0.000216  1.03918  0.0  0.135639  0.110744  -0.00035  1.044776  0.0
H  H14  1  0.32249925  0.64230299  0.51923185  1  0.109885  -0.000347  0.971807  -0.001  0.113251  -0.000282  1.042422  0.0  0.116535  -0.000216  1.039207  0.0  0.13563  0.110741  -0.00035  1.044808  0.0
H  H15  1  0.54094957  0.67859924  0.03057632  1  0.134309  0.000296  0.963496  0.0  0.138857  0.000214  1.031276  0.0  0.142462  0.000177  1.026599  0.0  0.144615  0.13621  0.000232  1.03452  0.0
H  H16  1  0.45905136  0.32140351  0.96942133  1  0.134298  0.000293  0.963441  0.0  0.138849  0.000214  1.031237  0.0  0.142454  0.000177  1.026559  0.0  0.14461  0.136202  0.000232  1.034484  0.0
C  C17  1  0.40372328  0.08630747  0.36018287  1  -0.046018  -0.01046  3.698898  -0.011  -0.038276  -0.005323  3.944498  -0.006  -0.041575  -0.003321  3.962867  -0.004  -0.001884  -0.035432  -0.007299  3.93175  -0.008
C  C18  1  0.59628161  0.91369094  0.63981997  1  -0.046119  -0.010372  3.698955  -0.011  -0.03835  -0.005322  3.944515  -0.006  -0.04165  -0.003319  3.962885  -0.004  -0.001904  -0.0355  -0.007298  3.931757  -0.008
C  C19  1  0.60209881  0.97940867  0.37851553  1  -0.071881  -0.0005  3.726816  -0.001  -0.06517  -0.000962  3.975457  -0.001  -0.070881  -0.000504  3.996552  -0.001  -0.00843  -0.061012  -0.001581  3.961079  -0.001
C  C20  1  0.39790712  0.02059122  0.62148690  1  -0.071727  -0.0006  3.726895  -0.001  -0.065021  -0.000963  3.975504  -0.001  -0.07073  -0.000505  3.996594  -0.001  -0.008347  -0.060862  -0.001581  3.961123  -0.001
C  C21  1  0.30400595  0.10758462  0.48134722  1  -0.070886  -0.002275  3.667049  -0.002  -0.104687  -0.001226  3.922022  -0.001  -0.104797  -0.000654  3.939415  -0.001  -0.072143  -0.105676  -0.001757  3.911299  -0.002
C  C22  1  0.69599855  0.89241527  0.51865625  1  -0.070738  -0.002389  3.666827  -0.002  -0.104548  -0.001227  3.921802  -0.001  -0.104645  -0.000655  3.939172  -0.001  -0.072052  -0.105534  -0.001757  3.911069  -0.002
C  C23  1  0.28578275  0.16751414  0.21607094  1  0.669046  0.006678  3.869392  0.006  0.613239  0.000993  4.187914  0.002  0.65109  0.001465  4.177925  0.001  0.219995  0.587328  0.000287  4.194193  0.001
C  C24  1  0.71422139  0.83248718  0.78392806  1  0.669147  0.006657  3.869468  0.006  0.613365  0.000991  4.18793  0.002  0.651218  0.001465  4.17794  0.001  0.220046  0.587441  0.000287  4.194213  0.001
C  C25  1  0.71726870  0.97092959  0.24931796  1  0.667298  1.5e-05  3.790847  0.0  0.61033  -6.8e-05  4.099129  0.0  0.644468  -3.4e-05  4.089167  0.0  0.238296  0.58732  -0.000177  4.1049  0.0
C  C26  1  0.28273592  0.02906440  0.75068606  1  0.6673  2e-05  3.790838  0.0  0.610297  -6.8e-05  4.099154  0.0  0.644437  -3.3e-05  4.089188  0.0  0.238224  0.587284  -0.000177  4.10492  0.0
C  C27  1  0.69356141  0.40914226  0.36365886  1  0.126398  -0.002771  3.652369  -0.005  0.060356  -0.001783  3.923582  -0.003  0.069964  -0.001099  3.935713  -0.002  0.155386  0.054304  -0.002367  3.915323  -0.004
C  C28  1  0.30643669  0.59086046  0.63633782  1  0.126355  -0.002777  3.652526  -0.005  0.060293  -0.001782  3.923736  -0.003  0.069899  -0.001099  3.935865  -0.002  0.155345  0.054235  -0.002367  3.915475  -0.004
C  C29  1  0.62174707  0.57857461  0.13199897  1  0.133987  0.008054  3.587133  0.002  0.060417  0.002394  3.857222  -0.001  0.076127  0.004001  3.868152  0.001  0.15682  0.050517  0.001119  3.849993  -0.002
C  C30  1  0.37825245  0.42142812  0.86799769  1  0.133992  0.008079  3.587145  0.002  0.060399  0.002393  3.857241  -0.001  0.076116  0.004001  3.868172  0.001  0.15682  0.050495  0.001119  3.850014  -0.002
N  N31  1  0.80757987  0.47612629  0.15020615  1  -0.236709  -0.065506  3.308664  -0.084  -0.204942  -0.04552  3.645153  -0.062  -0.234246  -0.03672  3.667385  -0.054  -0.274748  -0.187391  -0.050189  3.632009  -0.065
N  N32  1  0.19242040  0.52387351  0.84979231  1  -0.236661  -0.065516  3.308604  -0.084  -0.204845  -0.04552  3.645051  -0.062  -0.234163  -0.03672  3.667295  -0.054  -0.274725  -0.187296  -0.05019  3.631904  -0.065
N  N33  1  0.85401780  0.36783039  0.29588566  1  -0.216471  -0.004968  2.933473  -0.006  -0.194669  -0.003927  3.221717  -0.005  -0.202441  -0.001769  3.239265  -0.002  -0.224716  -0.188753  -0.006212  3.209862  -0.007
N  N34  1  0.14597925  0.63217087  0.70411348  1  -0.216443  -0.004966  2.93342  -0.006  -0.194655  -0.003925  3.221667  -0.005  -0.202422  -0.001769  3.239216  -0.002  -0.22469  -0.188739  -0.006212  3.209811  -0.007
N  N35  1  0.54591696  0.54016129  0.26537351  1  0.075889  5.4e-05  3.611215  -0.001  0.189598  -0.000112  3.802934  -0.001  0.178174  6e-06  3.825021  -0.001  -0.147442  0.195836  -0.000251  3.789503  -0.001
N  N36  1  0.45408113  0.45984143  0.73462318  1  0.07592  5.8e-05  3.611405  -0.001  0.18962  -0.000113  3.803127  -0.001  0.178196  5e-06  3.825212  -0.001  -0.147411  0.195863  -0.000251  3.78968  -0.001
N  N37  1  0.35477049  0.61338895  0.29978106  1  -0.527185  -0.004868  2.8933  -0.006  -0.535253  -0.00192  3.118377  -0.002  -0.544719  -0.000975  3.11574  -0.001  -0.497267  -0.527541  -0.00309  3.119955  -0.004
N  N38  1  0.64522722  0.38661525  0.70021626  1  -0.52724  -0.004867  2.893271  -0.006  -0.535282  -0.001919  3.118336  -0.002  -0.544745  -0.000976  3.115692  -0.001  -0.497275  -0.527576  -0.00309  3.119914  -0.004
O  O39  1  0.22573537  0.35440351  0.16046599  1  -0.588534  -0.076086  2.077938  -0.107  -0.562955  -0.048013  2.362095  -0.074  -0.603638  -0.034914  2.354649  -0.059  -0.302647  -0.535529  -0.056516  2.367266  -0.081
O  O40  1  0.77426695  0.64559929  0.83953571  1  -0.588562  -0.076078  2.078006  -0.107  -0.563002  -0.048013  2.362167  -0.074  -0.60368  -0.034915  2.354719  -0.059  -0.302668  -0.535573  -0.056519  2.367336  -0.081
O  O41  1  0.24731831  0.04558396  0.16482203  1  -0.606519  -0.000245  2.004804  -0.002  -0.550149  -0.000512  2.227976  -0.002  -0.577536  0.000288  2.219057  -0.001  -0.301942  -0.531166  -0.001266  2.233687  -0.003
O  O42  1  0.75268156  0.95441735  0.83518012  1  -0.606574  -0.000232  2.00481  -0.002  -0.550229  -0.000512  2.227988  -0.002  -0.577628  0.000287  2.219072  -0.001  -0.301986  -0.531247  -0.001266  2.233701  -0.003
O  O43  1  0.66890377  0.09767888  0.12612640  1  -0.569991  0.000177  1.98724  0.0  -0.518335  0.000106  2.207344  0.0  -0.540512  8.6e-05  2.198632  0.0  -0.283222  -0.503071  2.9e-05  2.212733  0.0
O  O44  1  0.33109521  0.90231500  0.87387162  1  -0.570001  0.000162  1.98723  0.0  -0.518301  0.000106  2.207311  0.0  -0.540492  8.6e-05  2.198613  0.0  -0.283191  -0.503039  2.9e-05  2.212695  0.0
O  O45  1  0.87436414  0.82115038  0.27857181  1  -0.533356  -1.1e-05  2.069082  0.0  -0.475666  -7.4e-05  2.276546  0.0  -0.498324  -3.3e-05  2.263821  0.0  -0.322086  -0.459729  -0.00013  2.284762  0.0
O  O46  1  0.12563970  0.17884656  0.72143246  1  -0.53339  -1.4e-05  2.069134  0.0  -0.475702  -7.4e-05  2.276595  0.0  -0.498354  -3.3e-05  2.263869  0.0  -0.322091  -0.459764  -0.00013  2.284807  0.0
O  O47  1  0.02695103  0.79190537  0.04378128  1  -0.850782  -0.000427  1.99246  -0.003  -0.806253  -0.001011  2.204788  -0.003  -0.828082  -0.000132  2.169973  -0.002  -0.581125  -0.791183  -0.001969  2.229932  -0.004
O  O48  1  0.97304820  0.20809297  0.95621861  1  -0.850789  -0.00043  1.992452  -0.003  -0.806239  -0.00101  2.204714  -0.003  -0.828112  -0.000132  2.169987  -0.002  -0.581106  -0.791171  -0.00197  2.229857  -0.004
