# generated using pymatgen
data_ErH6C6SNO8
_symmetry_space_group_name_H-M   'P 1'
_cell_length_a   7.51446445
_cell_length_b   9.28925939
_cell_length_c   14.70534566
_cell_angle_alpha   89.99992125
_cell_angle_beta   89.99996975
_cell_angle_gamma   101.13138168
_symmetry_Int_Tables_number   1
_chemical_formula_structural   ErH6C6SNO8
_chemical_formula_sum   'Er4 H24 C24 S4 N4 O32'
_cell_volume   1007.17787815
_cell_formula_units_Z   4
loop_
 _symmetry_equiv_pos_site_id
 _symmetry_equiv_pos_as_xyz
  1  'x, y, z'
loop_
 _atom_site_type_symbol
 _atom_site_label
 _atom_site_symmetry_multiplicity
 _atom_site_fract_x
 _atom_site_fract_y
 _atom_site_fract_z
 _atom_site_occupancy
 _atom_site_hle17_bader_spin_density
 _atom_site_hle17_ddec_charge
 _atom_site_hle17_ddec_spin_density
 _atom_site_hle17_ddec_sum_bond_order
 _atom_site_hle17_magmom
 _atom_site_hse06_10hf_bader_spin_density
 _atom_site_hse06_10hf_ddec_charge
 _atom_site_hse06_10hf_ddec_spin_density
 _atom_site_hse06_10hf_ddec_sum_bond_order
 _atom_site_hse06_10hf_magmom
 _atom_site_hse06_bader_spin_density
 _atom_site_hse06_ddec_charge
 _atom_site_hse06_ddec_spin_density
 _atom_site_hse06_ddec_sum_bond_order
 _atom_site_hse06_magmom
 _atom_site_pbe_bader_spin_density
 _atom_site_pbe_cm5_charge
 _atom_site_pbe_ddec_charge
 _atom_site_pbe_ddec_spin_density
 _atom_site_pbe_ddec_sum_bond_order
 _atom_site_pbe_magmom
Er  Er0  1  0.13854588  0.27752248  0.04384310  1  0  2.270912  0  1.714891  0  0  2.143055  0  2.190312  0  0  2.260737  0  2.012172  0  0  1.557475  2.108215  0  2.223816  0
Er  Er1  1  0.36145031  0.72247823  0.54384269  1  0  2.27094  0  1.714854  0  0  2.143088  0  2.190239  0  0  2.260755  0  2.012134  0  0  1.557468  2.108252  0  2.22374  0
Er  Er2  1  0.86145429  0.72247777  0.95615663  1  0  2.270925  0  1.714837  0  0  2.143058  0  2.190229  0  0  2.260731  0  2.012118  0  0  1.557474  2.108223  0  2.223734  0
Er  Er3  1  0.63854853  0.27752201  0.45615704  1  0  2.270906  0  1.714843  0  0  2.143049  0  2.190252  0  0  2.260738  0  2.012116  0  0  1.557455  2.108217  0  2.223745  0
H  H4  1  0.15138521  0.04636651  0.44798943  1  0  0.138159  0  0.9295  0  0  0.144484  0  0.990162  0  0  0.148879  0  0.98564  0  0  0.141094  0.141239  0  0.993401  0
H  H5  1  0.34861324  0.95363433  0.94799426  1  0  0.13817  0  0.929443  0  0  0.14452  0  0.990102  0  0  0.148911  0  0.98558  0  0  0.141114  0.141274  0  0.993344  0
H  H6  1  0.84861287  0.95363044  0.55200894  1  0  0.138173  0  0.929478  0  0  0.144524  0  0.990116  0  0  0.148918  0  0.985593  0  0  0.141093  0.141278  0  0.993356  0
H  H7  1  0.65138769  0.04636921  0.05200819  1  0  0.138183  0  0.929426  0  0  0.144536  0  0.990066  0  0  0.148926  0  0.985548  0  0  0.141106  0.141289  0  0.993308  0
H  H8  1  0.10427275  0.12232903  0.28829237  1  0  0.132884  0  0.960959  0  0  0.137901  0  1.022915  0  0  0.14241  0  1.019699  0  0  0.121092  0.134657  0  1.025324  0
H  H9  1  0.39572462  0.87767219  0.78829589  1  0  0.132806  0  0.96105  0  0  0.137856  0  1.022948  0  0  0.142361  0  1.019739  0  0  0.121057  0.13461  0  1.025357  0
H  H10  1  0.89573008  0.87767124  0.71170735  1  0  0.132793  0  0.961094  0  0  0.137896  0  1.022932  0  0  0.142405  0  1.019718  0  0  0.121078  0.13465  0  1.025343  0
H  H11  1  0.60427288  0.12232804  0.21170723  1  0  0.132817  0  0.961035  0  0  0.137879  0  1.022945  0  0  0.142388  0  1.019729  0  0  0.121065  0.134633  0  1.025354  0
H  H12  1  0.91674182  0.66525589  0.22179852  1  0  0.136246  0  0.936777  0  0  0.142877  0  0.996396  0  0  0.147026  0  0.993622  0  0  0.122313  0.139899  0  0.998442  0
H  H13  1  0.58325846  0.33474335  0.72179920  1  0  0.136255  0  0.936749  0  0  0.142895  0  0.996361  0  0  0.14704  0  0.993587  0  0  0.122323  0.139914  0  0.998411  0
H  H14  1  0.08325835  0.33474436  0.77820256  1  0  0.136226  0  0.936754  0  0  0.142862  0  0.996379  0  0  0.147012  0  0.993599  0  0  0.122292  0.139883  0  0.998426  0
H  H15  1  0.41674095  0.66525361  0.27819985  1  0  0.136222  0  0.936779  0  0  0.142899  0  0.996352  0  0  0.147052  0  0.993561  0  0  0.122312  0.139919  0  0.998404  0
H  H16  1  0.96166277  0.60676495  0.38730978  1  0  0.134765  0  0.931911  0  0  0.140411  0  0.994148  0  0  0.144602  0  0.989817  0  0  0.143385  0.137306  0  0.997612  0
H  H17  1  0.53833749  0.39323498  0.88731042  1  0  0.134805  0  0.931902  0  0  0.140462  0  0.994105  0  0  0.144651  0  0.989772  0  0  0.143387  0.137357  0  0.997568  0
H  H18  1  0.03833689  0.39323311  0.61269062  1  0  0.134826  0  0.931877  0  0  0.140454  0  0.994121  0  0  0.144645  0  0.989789  0  0  0.143407  0.137349  0  0.997586  0
H  H19  1  0.46166401  0.60676527  0.11268795  1  0  0.134776  0  0.931915  0  0  0.140435  0  0.994121  0  0  0.144625  0  0.989791  0  0  0.143391  0.13733  0  0.997584  0
H  H20  1  0.29151024  0.36168424  0.22345460  1  0  0.450405  0  0.841541  0  0  0.419095  0  0.904293  0  0  0.429611  0  0.889164  0  0  0.306167  0.411826  0  0.914876  0
H  H21  1  0.20848806  0.63831495  0.72345430  1  0  0.45042  0  0.841525  0  0  0.41911  0  0.904276  0  0  0.429627  0  0.889145  0  0  0.306166  0.41184  0  0.91486  0
H  H22  1  0.70848859  0.63831600  0.77654513  1  0  0.450413  0  0.84153  0  0  0.419102  0  0.904284  0  0  0.429622  0  0.889149  0  0  0.306173  0.411833  0  0.914867  0
H  H23  1  0.79151052  0.36168419  0.27654543  1  0  0.450428  0  0.84151  0  0  0.419117  0  0.904263  0  0  0.429636  0  0.88913  0  0  0.306178  0.411847  0  0.914848  0
H  H24  1  0.46777852  0.34944246  0.16259440  1  0  0.459724  0  0.830035  0  0  0.427489  0  0.893464  0  0  0.438867  0  0.877005  0  0  0.306551  0.419721  0  0.904746  0
H  H25  1  0.03221988  0.65055688  0.66259413  1  0  0.459711  0  0.830051  0  0  0.427474  0  0.893484  0  0  0.438854  0  0.877022  0  0  0.306539  0.419706  0  0.904766  0
H  H26  1  0.53222139  0.65055669  0.83740533  1  0  0.459719  0  0.830041  0  0  0.427484  0  0.893469  0  0  0.438862  0  0.87701  0  0  0.306552  0.419715  0  0.904752  0
H  H27  1  0.96777870  0.34944227  0.33740559  1  0  0.459715  0  0.830046  0  0  0.427481  0  0.893473  0  0  0.438859  0  0.877014  0  0  0.306548  0.419711  0  0.904757  0
C  C28  1  0.09494867  0.96824819  0.39564141  1  0  0.021596  0  3.559232  0  0  -0.021815  0  3.825925  0  0  -0.014525  0  3.834965  0  0  0.053773  -0.02618  0  3.819461  0
C  C29  1  0.40504987  0.03175278  0.89564498  1  0  0.021615  0  3.559152  0  0  -0.021849  0  3.825876  0  0  -0.014547  0  3.834907  0  0  0.053768  -0.026215  0  3.819411  0
C  C30  1  0.90505150  0.03175206  0.60435696  1  0  0.021572  0  3.559246  0  0  -0.021871  0  3.825959  0  0  -0.014575  0  3.834996  0  0  0.053752  -0.026237  0  3.819496  0
C  C31  1  0.59494897  0.96824746  0.10435611  1  0  0.021599  0  3.559196  0  0  -0.021834  0  3.825898  0  0  -0.01454  0  3.834941  0  0  0.053779  -0.026201  0  3.819437  0
C  C32  1  0.06987008  0.00703102  0.30666602  1  0  -0.078001  0  3.693544  0  0  -0.100294  0  3.946015  0  0  -0.10331  0  3.96251  0  0  -0.063402  -0.098162  0  3.934022  0
C  C33  1  0.43013018  0.99297127  0.80666807  1  0  -0.07804  0  3.69368  0  0  -0.100326  0  3.946147  0  0  -0.103343  0  3.962643  0  0  -0.063428  -0.098195  0  3.934154  0
C  C34  1  0.93013275  0.99296924  0.69333371  1  0  -0.077984  0  3.693631  0  0  -0.100341  0  3.946075  0  0  -0.103362  0  3.962571  0  0  -0.063395  -0.09821  0  3.934079  0
C  C35  1  0.56987157  0.00703009  0.19333302  1  0  -0.077996  0  3.693661  0  0  -0.100324  0  3.946135  0  0  -0.103345  0  3.96263  0  0  -0.063421  -0.098195  0  3.934143  0
C  C36  1  0.00853454  0.89906159  0.24173143  1  0  -0.046577  0  3.730636  0  0  -0.035354  0  3.965278  0  0  -0.038592  0  3.984616  0  0  -0.003586  -0.032595  0  3.950327  0
C  C37  1  0.49146424  0.10093975  0.74173492  1  0  -0.046575  0  3.73065  0  0  -0.035344  0  3.965275  0  0  -0.038584  0  3.984618  0  0  -0.003558  -0.032584  0  3.950323  0
C  C38  1  0.99146671  0.10093757  0.75826762  1  0  -0.046585  0  3.730586  0  0  -0.035337  0  3.965214  0  0  -0.038564  0  3.984547  0  0  -0.003588  -0.03257  0  3.950257  0
C  C39  1  0.50853485  0.89906158  0.25826617  1  0  -0.046593  0  3.730576  0  0  -0.035355  0  3.965254  0  0  -0.038584  0  3.98459  0  0  -0.003557  -0.032589  0  3.950303  0
C  C40  1  0.96478420  0.75264949  0.27019448  1  0  -0.077354  0  3.683276  0  0  -0.097043  0  3.930271  0  0  -0.100251  0  3.948072  0  0  -0.059577  -0.094759  0  3.917558  0
C  C41  1  0.53521518  0.24735182  0.77019729  1  0  -0.077258  0  3.683205  0  0  -0.096979  0  3.930166  0  0  -0.100183  0  3.947973  0  0  -0.059561  -0.094696  0  3.917456  0
C  C42  1  0.03521864  0.24735078  0.72980524  1  0  -0.077267  0  3.683144  0  0  -0.096994  0  3.930135  0  0  -0.1002  0  3.947941  0  0  -0.059555  -0.09471  0  3.917423  0
C  C43  1  0.46478499  0.75264843  0.22980380  1  0  -0.077294  0  3.683098  0  0  -0.097022  0  3.930069  0  0  -0.100228  0  3.947873  0  0  -0.059573  -0.09474  0  3.917354  0
C  C44  1  0.98904338  0.71742021  0.36008834  1  0  0.03738  0  3.527942  0  0  -0.001929  0  3.783075  0  0  0.004963  0  3.793072  0  0  0.061034  -0.006236  0  3.776412  0
C  C45  1  0.51095534  0.28257868  0.86009044  1  0  0.037162  0  3.52801  0  0  -0.002081  0  3.783051  0  0  0.004817  0  3.793048  0  0  0.061015  -0.006382  0  3.776382  0
C  C46  1  0.01095628  0.28257784  0.63991139  1  0  0.037271  0  3.528016  0  0  -0.001997  0  3.783139  0  0  0.004894  0  3.793141  0  0  0.061023  -0.006303  0  3.776476  0
C  C47  1  0.48904483  0.71742156  0.13990997  1  0  0.037303  0  3.527964  0  0  -0.001986  0  3.783076  0  0  0.004906  0  3.793076  0  0  0.061048  -0.006288  0  3.776407  0
C  C48  1  0.99729133  0.94059681  0.14383491  1  0  0.747013  0  3.848747  0  0  0.706677  0  4.128593  0  0  0.743613  0  4.117132  0  0  0.247583  0.682273  0  4.137247  0
C  C49  1  0.50270774  0.05940261  0.64383652  1  0  0.747131  0  3.848593  0  0  0.706794  0  4.128445  0  0  0.743729  0  4.116988  0  0  0.247645  0.682387  0  4.137099  0
C  C50  1  0.00270992  0.05940235  0.85616482  1  0  0.747062  0  3.848728  0  0  0.706709  0  4.128586  0  0  0.743639  0  4.11713  0  0  0.247586  0.682302  0  4.137241  0
C  C51  1  0.49729034  0.94059434  0.35616388  1  0  0.747194  0  3.848552  0  0  0.706784  0  4.128521  0  0  0.74371  0  4.117071  0  0  0.247614  0.682372  0  4.137186  0
S  S52  1  0.81828301  0.40161403  0.09369761  1  0  1.596394  0  5.858673  0  0  1.474373  0  6.401186  0  0  1.529808  0  6.375583  0  0  0.561787  1.435013  0  6.426289  0
S  S53  1  0.68171532  0.59838770  0.59369736  1  0  1.596407  0  5.85875  0  0  1.474401  0  6.401267  0  0  1.529812  0  6.375687  0  0  0.561761  1.435015  0  6.426393  0
S  S54  1  0.18171583  0.59838621  0.90630211  1  0  1.596199  0  5.858832  0  0  1.4742  0  6.401325  0  0  1.529614  0  6.375757  0  0  0.561698  1.43482  0  6.426449  0
S  S55  1  0.31828352  0.40161254  0.40630237  1  0  1.596419  0  5.858714  0  0  1.474403  0  6.401243  0  0  1.529826  0  6.375656  0  0  0.561784  1.435027  0  6.426368  0
N  N56  1  0.05901026  0.82462192  0.42040322  1  0  0.295664  0  3.713142  0  0  0.348127  0  3.975907  0  0  0.348341  0  4.00057  0  0  -0.109483  0.346957  0  3.961721  0
N  N57  1  0.44098982  0.17538009  0.92040461  1  0  0.295796  0  3.713124  0  0  0.348226  0  3.975879  0  0  0.348434  0  4.000545  0  0  -0.109455  0.347055  0  3.961691  0
N  N58  1  0.94098991  0.17537833  0.57959719  1  0  0.295718  0  3.713201  0  0  0.348182  0  3.975947  0  0  0.348394  0  4.000613  0  0  -0.109459  0.34701  0  3.961763  0
N  N59  1  0.55901168  0.82462017  0.07959579  1  0  0.295763  0  3.713201  0  0  0.348186  0  3.975964  0  0  0.348399  0  4.000633  0  0  -0.10946  0.347017  0  3.961782  0
O  O60  1  0.04760893  0.07548454  0.12376380  1  0  -0.775576  0  2.067034  0  0  -0.73055  0  2.334339  0  0  -0.767801  0  2.313167  0  0  -0.421636  -0.71394  0  2.344927  0
O  O61  1  0.45238954  0.92451489  0.62376522  1  0  -0.775616  0  2.066969  0  0  -0.730603  0  2.334287  0  0  -0.767854  0  2.313126  0  0  -0.421647  -0.713994  0  2.34488  0
O  O62  1  0.95239149  0.92451681  0.87623593  1  0  -0.775574  0  2.067051  0  0  -0.730554  0  2.334368  0  0  -0.767803  0  2.313205  0  0  -0.421614  -0.713947  0  2.344959  0
O  O63  1  0.54761038  0.07548426  0.37623518  1  0  -0.775626  0  2.066922  0  0  -0.730578  0  2.334264  0  0  -0.767829  0  2.313098  0  0  -0.421632  -0.713967  0  2.344853  0
O  O64  1  0.93976933  0.83953219  0.08751734  1  0  -0.743086  0  2.104052  0  0  -0.697764  0  2.367241  0  0  -0.73358  0  2.350562  0  0  -0.400257  -0.680821  0  2.375507  0
O  O65  1  0.56023142  0.16046847  0.58751954  1  0  -0.743128  0  2.10394  0  0  -0.697798  0  2.367132  0  0  -0.733614  0  2.350455  0  0  -0.400279  -0.680855  0  2.375396  0
O  O66  1  0.06023217  0.16046806  0.91248306  1  0  -0.743118  0  2.104027  0  0  -0.697775  0  2.367202  0  0  -0.733603  0  2.35054  0  0  -0.400268  -0.680834  0  2.375467  0
O  O67  1  0.43976850  0.83953068  0.41248087  1  0  -0.743193  0  2.104005  0  0  -0.697823  0  2.367213  0  0  -0.733652  0  2.350568  0  0  -0.400283  -0.680883  0  2.375482  0
O  O68  1  0.09650366  0.78874793  0.50420677  1  0  -0.641895  0  1.847914  0  0  -0.609293  0  2.111753  0  0  -0.644462  0  2.10847  0  0  -0.321922  -0.591382  0  2.111848  0
O  O69  1  0.40349709  0.21125509  0.00420853  1  0  -0.641919  0  1.847846  0  0  -0.609344  0  2.111731  0  0  -0.644512  0  2.108445  0  0  -0.321959  -0.591433  0  2.111823  0
O  O70  1  0.90349251  0.21125229  0.49579296  1  0  -0.6419  0  1.84785  0  0  -0.609302  0  2.111708  0  0  -0.644474  0  2.108422  0  0  -0.321934  -0.591387  0  2.111797  0
O  O71  1  0.59650783  0.78874848  0.99579188  1  0  -0.641963  0  1.847869  0  0  -0.609341  0  2.111709  0  0  -0.644519  0  2.108437  0  0  -0.32197  -0.591434  0  2.111809  0
O  O72  1  0.00767345  0.44540912  0.12968258  1  0  -0.803227  0  1.930038  0  0  -0.753262  0  2.189369  0  0  -0.784009  0  2.173057  0  0  -0.415774  -0.737653  0  2.201005  0
O  O73  1  0.49232634  0.55459030  0.62968227  1  0  -0.803236  0  1.930066  0  0  -0.753278  0  2.18939  0  0  -0.784017  0  2.173089  0  0  -0.41573  -0.73766  0  2.201029  0
O  O74  1  0.99232513  0.55459002  0.87031647  1  0  -0.803167  0  1.930075  0  0  -0.7532  0  2.189382  0  0  -0.783944  0  2.173084  0  0  -0.415709  -0.737582  0  2.201018  0
O  O75  1  0.50767516  0.44540995  0.37031677  1  0  -0.803241  0  1.930023  0  0  -0.753288  0  2.189368  0  0  -0.784033  0  2.173063  0  0  -0.415784  -0.737671  0  2.201004  0
O  O76  1  0.82541100  0.27811457  0.02927348  1  0  -0.785532  0  1.956365  0  0  -0.738209  0  2.219732  0  0  -0.768447  0  2.20425  0  0  -0.407796  -0.722227  0  2.230342  0
O  O77  1  0.67458851  0.72188623  0.52927243  1  0  -0.785577  0  1.956385  0  0  -0.738217  0  2.219705  0  0  -0.768457  0  2.204238  0  0  -0.407819  -0.722238  0  2.230326  0
O  O78  1  0.17459025  0.72188459  0.97072693  1  0  -0.785465  0  1.956366  0  0  -0.738171  0  2.219767  0  0  -0.768398  0  2.204285  0  0  -0.407784  -0.722184  0  2.230383  0
O  O79  1  0.32541032  0.27811402  0.47072729  1  0  -0.78557  0  1.956361  0  0  -0.738231  0  2.219724  0  0  -0.768475  0  2.204248  0  0  -0.407808  -0.722252  0  2.230342  0
O  O80  1  0.76038478  0.52520489  0.04519888  1  0  -0.82646  0  2.038488  0  0  -0.779213  0  2.333308  0  0  -0.81174  0  2.309599  0  0  -0.436641  -0.764041  0  2.348061  0
O  O81  1  0.73961496  0.47479697  0.54519871  1  0  -0.826451  0  2.038531  0  0  -0.779245  0  2.333403  0  0  -0.811774  0  2.309704  0  0  -0.436648  -0.764066  0  2.348162  0
O  O82  1  0.23961697  0.47479646  0.95480085  1  0  -0.82641  0  2.038525  0  0  -0.779188  0  2.333389  0  0  -0.811722  0  2.309693  0  0  -0.436625  -0.764014  0  2.348147  0
O  O83  1  0.26038362  0.52520218  0.45480101  1  0  -0.826454  0  2.03857  0  0  -0.779217  0  2.333381  0  0  -0.811747  0  2.309684  0  0  -0.436623  -0.764039  0  2.348141  0
O  O84  1  0.69154153  0.35613371  0.17042145  1  0  -0.709537  0  1.987628  0  0  -0.636628  0  2.212242  0  0  -0.659062  0  2.194089  0  0  -0.322556  -0.61995  0  2.223788  0
O  O85  1  0.80845750  0.64386564  0.67042044  1  0  -0.709505  0  1.987625  0  0  -0.636625  0  2.212251  0  0  -0.659037  0  2.194095  0  0  -0.322539  -0.619935  0  2.223799  0
O  O86  1  0.30845997  0.64386654  0.82957827  1  0  -0.709506  0  1.987613  0  0  -0.636595  0  2.212208  0  0  -0.659019  0  2.194066  0  0  -0.322566  -0.619912  0  2.223762  0
O  O87  1  0.19153975  0.35613349  0.32957929  1  0  -0.709537  0  1.98762  0  0  -0.636629  0  2.212231  0  0  -0.659054  0  2.19408  0  0  -0.322553  -0.619946  0  2.223785  0
O  O88  1  0.33606387  0.35328348  0.16038637  1  0  -0.93389  0  1.8398  0  0  -0.883136  0  2.045829  0  0  -0.913066  0  2.006744  0  0  -0.659623  -0.869159  0  2.069079  0
O  O89  1  0.16393454  0.64671586  0.66038608  1  0  -0.933889  0  1.8398  0  0  -0.883128  0  2.04582  0  0  -0.913058  0  2.006734  0  0  -0.659607  -0.869151  0  2.06907  0
O  O90  1  0.66393497  0.64671676  0.83961403  1  0  -0.933899  0  1.839791  0  0  -0.883147  0  2.045823  0  0  -0.913079  0  2.006739  0  0  -0.659631  -0.869169  0  2.069074  0
O  O91  1  0.83606537  0.35328329  0.33961433  1  0  -0.933906  0  1.839787  0  0  -0.883148  0  2.045813  0  0  -0.913077  0  2.006726  0  0  -0.659634  -0.869168  0  2.069063  0
