# generated using pymatgen
data_TbH9C11N2O7
_symmetry_space_group_name_H-M   'P 1'
_cell_length_a   7.35931902
_cell_length_b   8.82024899
_cell_length_c   9.57773612
_cell_angle_alpha   85.94530714
_cell_angle_beta   86.91777711
_cell_angle_gamma   84.01481650
_symmetry_Int_Tables_number   1
_chemical_formula_structural   TbH9C11N2O7
_chemical_formula_sum   'Tb2 H18 C22 N4 O14'
_cell_volume   616.08923218
_cell_formula_units_Z   2
loop_
 _symmetry_equiv_pos_site_id
 _symmetry_equiv_pos_as_xyz
  1  'x, y, z'
loop_
 _atom_site_type_symbol
 _atom_site_label
 _atom_site_symmetry_multiplicity
 _atom_site_fract_x
 _atom_site_fract_y
 _atom_site_fract_z
 _atom_site_occupancy
 _atom_site_hle17_bader_spin_density
 _atom_site_hle17_ddec_charge
 _atom_site_hle17_ddec_spin_density
 _atom_site_hle17_ddec_sum_bond_order
 _atom_site_hle17_magmom
 _atom_site_hse06_10hf_bader_spin_density
 _atom_site_hse06_10hf_ddec_charge
 _atom_site_hse06_10hf_ddec_spin_density
 _atom_site_hse06_10hf_ddec_sum_bond_order
 _atom_site_hse06_10hf_magmom
 _atom_site_hse06_bader_spin_density
 _atom_site_hse06_ddec_charge
 _atom_site_hse06_ddec_spin_density
 _atom_site_hse06_ddec_sum_bond_order
 _atom_site_hse06_magmom
 _atom_site_pbe_bader_spin_density
 _atom_site_pbe_cm5_charge
 _atom_site_pbe_ddec_charge
 _atom_site_pbe_ddec_spin_density
 _atom_site_pbe_ddec_sum_bond_order
 _atom_site_pbe_magmom
Tb  Tb0  1  0.14370939  0.13908252  0.60228074  1  0  2.23622  0  1.614645  0  0  2.077805  0  2.084407  0  0  2.203689  0  1.899283  0  0  1.509081  2.0407  0  2.116765  0
Tb  Tb1  1  0.85629041  0.86091256  0.39772060  1  0  2.236193  0  1.614623  0  0  2.077805  0  2.084347  0  0  2.203669  0  1.899262  0  0  1.509045  2.040696  0  2.116706  0
H  H2  1  0.79314359  0.22177041  0.44961735  1  0  0.438302  0  0.855434  0  0  0.411238  0  0.91235  0  0  0.421426  0  0.897651  0  0  0.305747  0.40412  0  0.922935  0
H  H3  1  0.20685242  0.77822240  0.55038115  1  0  0.438159  0  0.855621  0  0  0.411115  0  0.912495  0  0  0.421303  0  0.897799  0  0  0.305674  0.403998  0  0.92308  0
H  H4  1  0.87465078  0.38683476  0.44299942  1  0  0.447029  0  0.845555  0  0  0.418911  0  0.902826  0  0  0.430805  0  0.885673  0  0  0.298643  0.410873  0  0.914411  0
H  H5  1  0.12534389  0.61315797  0.55700539  1  0  0.447079  0  0.845494  0  0  0.418972  0  0.902747  0  0  0.430866  0  0.885592  0  0  0.298631  0.410936  0  0.914328  0
H  H6  1  0.76440779  0.27626827  0.84302694  1  0  0.324448  0  0.932118  0  0  0.304732  0  0.990787  0  0  0.314405  0  0.98334  0  0  0.312853  0.298208  0  0.995553  0
H  H7  1  0.23559372  0.72373478  0.15697805  1  0  0.324425  0  0.932176  0  0  0.3047  0  0.990855  0  0  0.314374  0  0.983408  0  0  0.312818  0.298176  0  0.99562  0
H  H8  1  0.57422260  0.26411508  0.63485862  1  0  0.102909  0  0.929332  0  0  0.10951  0  0.994118  0  0  0.113453  0  0.988491  0  0  0.146381  0.105805  0  0.999856  0
H  H9  1  0.42578734  0.73588581  0.36513882  1  0  0.102769  0  0.929546  0  0  0.109537  0  0.994143  0  0  0.113488  0  0.988499  0  0  0.146358  0.105829  0  0.999884  0
H  H10  1  0.69656084  0.21949076  0.14980246  1  0  0.128357  0  0.948439  0  0  0.13737  0  1.008171  0  0  0.141681  0  1.005027  0  0  0.112752  0.134352  0  1.01065  0
H  H11  1  0.30343703  0.78051925  0.85019186  1  0  0.128426  0  0.948382  0  0  0.13749  0  1.008055  0  0  0.141802  0  1.004905  0  0  0.112752  0.134471  0  1.010534  0
H  H12  1  0.09738216  0.09388934  0.98610309  1  0  0.136444  0  0.958054  0  0  0.142997  0  1.021312  0  0  0.147592  0  1.016868  0  0  0.117102  0.139971  0  1.024266  0
H  H13  1  0.90262021  0.90610692  0.01389598  1  0  0.136421  0  0.958082  0  0  0.142982  0  1.021324  0  0  0.147571  0  1.016893  0  0  0.117092  0.139954  0  1.024277  0
H  H14  1  0.86008356  0.63310830  0.72988118  1  0  0.147892  0  0.964247  0  0  0.162668  0  1.029606  0  0  0.165252  0  1.029187  0  0  0.107286  0.160743  0  1.030459  0
H  H15  1  0.13991735  0.36688898  0.27012834  1  0  0.147821  0  0.964351  0  0  0.162616  0  1.02968  0  0  0.165202  0  1.029264  0  0  0.107271  0.160694  0  1.030535  0
H  H16  1  0.04724767  0.62014849  0.83969362  1  0  0.143771  0  0.929612  0  0  0.165289  0  0.984209  0  0  0.167794  0  0.982989  0  0  0.103967  0.163154  0  0.985936  0
H  H17  1  0.95275760  0.37984656  0.16031375  1  0  0.143762  0  0.92964  0  0  0.165243  0  0.984274  0  0  0.167746  0  0.983057  0  0  0.103946  0.163109  0  0.986  0
H  H18  1  0.84840853  0.52787572  0.89580108  1  0  0.135103  0  0.93653  0  0  0.154868  0  0.993143  0  0  0.157288  0  0.992648  0  0  0.09741  0.153827  0  0.992437  0
H  H19  1  0.15159809  0.47211935  0.10420518  1  0  0.13513  0  0.936515  0  0  0.154881  0  0.99312  0  0  0.157305  0  0.992624  0  0  0.097427  0.153842  0  0.992416  0
C  C20  1  0.52465880  0.24168341  0.74224002  1  0  0.29966  0  3.640502  0  0  0.234988  0  3.92949  0  0  0.252977  0  3.939784  0  0  0.175357  0.223115  0  3.926729  0
C  C21  1  0.47534990  0.75831639  0.25775231  1  0  0.299829  0  3.640794  0  0  0.23503  0  3.929774  0  0  0.25302  0  3.940071  0  0  0.175467  0.223161  0  3.927006  0
C  C22  1  0.52528188  0.21409034  0.97259657  1  0  0.166016  0  3.803707  0  0  0.155165  0  4.052383  0  0  0.160788  0  4.073592  0  0  0.100157  0.151795  0  4.036552  0
C  C23  1  0.47470995  0.78591386  0.02740356  1  0  0.165949  0  3.803705  0  0  0.15502  0  4.052484  0  0  0.160655  0  4.073702  0  0  0.100096  0.151649  0  4.036654  0
C  C24  1  0.56411368  0.19865617  0.11383894  1  0  -0.150076  0  3.704421  0  0  -0.180441  0  3.959878  0  0  -0.18293  0  3.976966  0  0  -0.082766  -0.178178  0  3.946717  0
C  C25  1  0.43588195  0.80136068  0.88615510  1  0  -0.150164  0  3.704206  0  0  -0.180532  0  3.959697  0  0  -0.183022  0  3.976785  0  0  -0.082698  -0.178268  0  3.946537  0
C  C26  1  0.42991410  0.14948689  0.21048364  1  0  -0.06554  0  3.695342  0  0  -0.055614  0  3.936568  0  0  -0.059329  0  3.956828  0  0  -0.007464  -0.052199  0  3.920933  0
C  C27  1  0.57008256  0.85052195  0.78951184  1  0  -0.065469  0  3.695102  0  0  -0.055585  0  3.936466  0  0  -0.059299  0  3.956729  0  0  -0.007506  -0.052171  0  3.920832  0
C  C28  1  0.25859746  0.11406488  0.16413008  1  0  -0.093325  0  3.718262  0  0  -0.07957  0  3.958467  0  0  -0.087923  0  3.981049  0  0  -0.016789  -0.073573  0  3.942729  0
C  C29  1  0.74140238  0.88594052  0.83586859  1  0  -0.093425  0  3.718161  0  0  -0.079644  0  3.958443  0  0  -0.088009  0  3.981045  0  0  -0.016766  -0.073646  0  3.942704  0
C  C30  1  0.22468534  0.12654145  0.02108475  1  0  -0.105698  0  3.654146  0  0  -0.141543  0  3.911048  0  0  -0.139564  0  3.926032  0  0  -0.071645  -0.14378  0  3.901127  0
C  C31  1  0.77531672  0.87345713  0.97891107  1  0  -0.105663  0  3.654167  0  0  -0.14151  0  3.911047  0  0  -0.139517  0  3.926042  0  0  -0.071633  -0.143748  0  3.901126  0
C  C32  1  0.35779488  0.17619339  0.92487789  1  0  0.15681  0  3.809676  0  0  0.159762  0  4.056462  0  0  0.16188  0  4.082077  0  0  0.093679  0.158172  0  4.041779  0
C  C33  1  0.64220479  0.82381319  0.07511654  1  0  0.156894  0  3.809537  0  0  0.159901  0  4.056283  0  0  0.161979  0  4.081951  0  0  0.093688  0.158311  0  4.041599  0
C  C34  1  0.47923048  0.14933094  0.36077280  1  0  0.740578  0  3.811589  0  0  0.690226  0  4.108458  0  0  0.72676  0  4.099019  0  0  0.24249  0.664841  0  4.118169  0
C  C35  1  0.52076527  0.85067446  0.63922396  1  0  0.740639  0  3.81158  0  0  0.690217  0  4.108597  0  0  0.726754  0  4.099154  0  0  0.242469  0.664832  0  4.118311  0
C  C36  1  0.10928238  0.05336645  0.25689810  1  0  0.666795  0  3.892787  0  0  0.618597  0  4.188029  0  0  0.652659  0  4.188672  0  0  0.207091  0.593881  0  4.196301  0
C  C37  1  0.89072273  0.94662978  0.74310503  1  0  0.666994  0  3.892749  0  0  0.618705  0  4.188116  0  0  0.652771  0  4.188756  0  0  0.207133  0.59399  0  4.19639  0
C  C38  1  0.01893794  0.41842148  0.73358797  1  0  0.756963  0  3.822061  0  0  0.716493  0  4.11318  0  0  0.749819  0  4.110325  0  0  0.208787  0.693089  0  4.118364  0
C  C39  1  0.98106066  0.58157243  0.26641557  1  0  0.756649  0  3.82246  0  0  0.71628  0  4.113419  0  0  0.749603  0  4.110568  0  0  0.208648  0.692875  0  4.118602  0
C  C40  1  0.93859355  0.55698887  0.80544909  1  0  -0.459437  0  3.655806  0  0  -0.535506  0  3.890045  0  0  -0.542406  0  3.891658  0  0  -0.243522  -0.529881  0  3.888034  0
C  C41  1  0.06140899  0.44300616  0.19455735  1  0  -0.459257  0  3.655866  0  0  -0.535304  0  3.890054  0  0  -0.542212  0  3.891668  0  0  -0.243458  -0.529687  0  3.888048  0
N  N42  1  0.36270228  0.19339149  0.77891776  1  0  -0.538708  0  3.181014  0  0  -0.494116  0  3.467956  0  0  -0.522529  0  3.486155  0  0  -0.420288  -0.482147  0  3.458591  0
N  N43  1  0.63730101  0.80660821  0.22108108  1  0  -0.538737  0  3.180964  0  0  -0.494172  0  3.467969  0  0  -0.522569  0  3.486177  0  0  -0.42034  -0.482203  0  3.458601  0
N  N44  1  0.62610962  0.25709594  0.85379746  1  0  -0.345859  0  3.351785  0  0  -0.281929  0  3.586825  0  0  -0.300686  0  3.597559  0  0  -0.374882  -0.268584  0  3.577292  0
N  N45  1  0.37388960  0.74291408  0.14619576  1  0  -0.345874  0  3.352073  0  0  -0.281918  0  3.58716  0  0  -0.300676  0  3.597896  0  0  -0.374887  -0.268571  0  3.577624  0
O  O46  1  0.63849077  0.09158880  0.39377074  1  0  -0.728668  0  2.058593  0  0  -0.674259  0  2.311667  0  0  -0.708962  0  2.298132  0  0  -0.36171  -0.657246  0  2.320429  0
O  O47  1  0.36150634  0.90841659  0.60622700  1  0  -0.728672  0  2.058628  0  0  -0.674263  0  2.311793  0  0  -0.708967  0  2.298254  0  0  -0.361738  -0.657251  0  2.320557  0
O  O48  1  0.95830040  0.03570672  0.20520090  1  0  -0.665883  0  2.014104  0  0  -0.619846  0  2.261478  0  0  -0.651041  0  2.252664  0  0  -0.357615  -0.603541  0  2.269476  0
O  O49  1  0.04170557  0.96428269  0.79479944  1  0  -0.665972  0  2.014098  0  0  -0.619878  0  2.261518  0  0  -0.651075  0  2.252702  0  0  -0.357617  -0.603574  0  2.269517  0
O  O50  1  0.36639852  0.21911914  0.44593917  1  0  -0.732363  0  2.020844  0  0  -0.680123  0  2.272742  0  0  -0.716253  0  2.256425  0  0  -0.41268  -0.661505  0  2.282518  0
O  O51  1  0.63359509  0.78088166  0.55405898  1  0  -0.732374  0  2.020759  0  0  -0.68012  0  2.272728  0  0  -0.716249  0  2.25641  0  0  -0.412662  -0.661501  0  2.282503  0
O  O52  1  0.13223516  0.01003500  0.38729939  1  0  -0.820962  0  2.15424  0  0  -0.760972  0  2.41848  0  0  -0.803721  0  2.409228  0  0  -0.434014  -0.742134  0  2.425373  0
O  O53  1  0.86776845  0.98996235  0.61270478  1  0  -0.82106  0  2.154372  0  0  -0.76105  0  2.418666  0  0  -0.803797  0  2.409411  0  0  -0.434054  -0.742212  0  2.425562  0
O  O54  1  0.97418346  0.28618316  0.77863403  1  0  -0.716736  0  2.061264  0  0  -0.659605  0  2.296044  0  0  -0.694209  0  2.288068  0  0  -0.378053  -0.639749  0  2.300559  0
O  O55  1  0.02581349  0.71381302  0.22137050  1  0  -0.71662  0  2.061358  0  0  -0.65956  0  2.296119  0  0  -0.694162  0  2.288146  0  0  -0.377999  -0.639706  0  2.300638  0
O  O56  1  0.12871488  0.43014233  0.62676571  1  0  -0.676406  0  1.953226  0  0  -0.618703  0  2.168541  0  0  -0.651118  0  2.159374  0  0  -0.33681  -0.599637  0  2.173484  0
O  O57  1  0.87128492  0.56985276  0.37323458  1  0  -0.676301  0  1.953434  0  0  -0.618607  0  2.168676  0  0  -0.65102  0  2.159513  0  0  -0.336752  -0.59954  0  2.17362  0
O  O58  1  0.89093833  0.27788330  0.48153451  1  0  -0.927631  0  1.880253  0  0  -0.878395  0  2.071774  0  0  -0.90759  0  2.035455  0  0  -0.640517  -0.864491  0  2.093593  0
O  O59  1  0.10905782  0.72210835  0.51846508  1  0  -0.927555  0  1.880412  0  0  -0.878347  0  2.071952  0  0  -0.907541  0  2.035635  0  0  -0.640434  -0.864443  0  2.093768  0
