# generated using pymatgen
data_BaH10C10(SO4)2
_symmetry_space_group_name_H-M   'P 1'
_cell_length_a   5.62234896
_cell_length_b   10.54984695
_cell_length_c   11.56202689
_cell_angle_alpha   91.85284596
_cell_angle_beta   104.05071131
_cell_angle_gamma   89.99027035
_symmetry_Int_Tables_number   1
_chemical_formula_structural   BaH10C10(SO4)2
_chemical_formula_sum   'Ba2 H20 C20 S4 O16'
_cell_volume   664.91370211
_cell_formula_units_Z   2
loop_
 _symmetry_equiv_pos_site_id
 _symmetry_equiv_pos_as_xyz
  1  'x, y, z'
loop_
 _atom_site_type_symbol
 _atom_site_label
 _atom_site_symmetry_multiplicity
 _atom_site_fract_x
 _atom_site_fract_y
 _atom_site_fract_z
 _atom_site_occupancy
 _atom_site_hle17_bader_spin_density
 _atom_site_hle17_ddec_charge
 _atom_site_hle17_ddec_spin_density
 _atom_site_hle17_ddec_sum_bond_order
 _atom_site_hle17_magmom
 _atom_site_hse06_10hf_bader_spin_density
 _atom_site_hse06_10hf_ddec_charge
 _atom_site_hse06_10hf_ddec_spin_density
 _atom_site_hse06_10hf_ddec_sum_bond_order
 _atom_site_hse06_10hf_magmom
 _atom_site_hse06_bader_spin_density
 _atom_site_hse06_ddec_charge
 _atom_site_hse06_ddec_spin_density
 _atom_site_hse06_ddec_sum_bond_order
 _atom_site_hse06_magmom
 _atom_site_pbe_bader_spin_density
 _atom_site_pbe_cm5_charge
 _atom_site_pbe_ddec_charge
 _atom_site_pbe_ddec_spin_density
 _atom_site_pbe_ddec_sum_bond_order
 _atom_site_pbe_magmom
Ba  Ba0  1  0.34973993  0.74985681  0.99997216  1  0  1.748647  0  1.06813  0  0  1.618186  0  1.460604  0  0  1.652257  0  1.417176  0  0  0.977199  1.592804  0  1.491927  0
Ba  Ba1  1  0.65026282  0.25014146  0.00002380  1  0  1.748656  0  1.068094  0  0  1.618134  0  1.460698  0  0  1.652275  0  1.417148  0  0  0.977211  1.592735  0  1.492014  0
H  H2  1  0.78512200  0.90008042  0.87951668  1  0  0.431121  0  0.867094  0  0  0.403442  0  0.925681  0  0  0.413435  0  0.910973  0  0  0.305324  0.396371  0  0.936084  0
H  H3  1  0.90584642  0.59967073  0.12042066  1  0  0.4316  0  0.866416  0  0  0.403994  0  0.924835  0  0  0.413936  0  0.910176  0  0  0.305623  0.396956  0  0.935202  0
H  H4  1  0.21487316  0.09991019  0.12048848  1  0  0.431143  0  0.867057  0  0  0.403458  0  0.925648  0  0  0.413453  0  0.910939  0  0  0.305349  0.396387  0  0.936049  0
H  H5  1  0.09414357  0.40033604  0.87958098  1  0  0.431549  0  0.866469  0  0  0.403972  0  0.924824  0  0  0.413914  0  0.910166  0  0  0.305644  0.396934  0  0.93519  0
H  H6  1  0.53968200  0.97761895  0.86314307  1  0  0.406606  0  0.91138  0  0  0.377946  0  0.974162  0  0  0.387682  0  0.959723  0  0  0.29788  0.37105  0  0.984365  0
H  H7  1  0.67682354  0.52222201  0.13695163  1  0  0.405948  0  0.912196  0  0  0.377742  0  0.974155  0  0  0.38745  0  0.959765  0  0  0.298288  0.370896  0  0.984289  0
H  H8  1  0.46030785  0.02238022  0.13685915  1  0  0.406631  0  0.911335  0  0  0.377952  0  0.974152  0  0  0.387692  0  0.959706  0  0  0.297915  0.371057  0  0.984356  0
H  H9  1  0.32316634  0.47777812  0.86304890  1  0  0.405906  0  0.91229  0  0  0.377694  0  0.974255  0  0  0.387406  0  0.959858  0  0  0.298234  0.370846  0  0.984391  0
H  H10  1  0.98657154  0.31625162  0.32604472  1  0  0.115782  0  0.947427  0  0  0.123957  0  1.010225  0  0  0.127565  0  1.00779  0  0  0.115583  0.121314  0  1.012087  0
H  H11  1  0.66106687  0.18410985  0.67427092  1  0  0.115924  0  0.947124  0  0  0.124144  0  1.009816  0  0  0.127735  0  1.007377  0  0  0.115664  0.121494  0  1.011708  0
H  H12  1  0.01341829  0.68374566  0.67395571  1  0  0.115788  0  0.94752  0  0  0.124006  0  1.010261  0  0  0.127608  0  1.007841  0  0  0.115635  0.121362  0  1.012123  0
H  H13  1  0.33892668  0.81588839  0.32572739  1  0  0.115925  0  0.946861  0  0  0.124168  0  1.009532  0  0  0.12776  0  1.00709  0  0  0.115652  0.121521  0  1.011427  0
H  H14  1  0.01322989  0.29801534  0.54318314  1  0  0.090672  0  0.980403  0  0  0.101136  0  1.040768  0  0  0.102649  0  1.042818  0  0  0.099079  0.099753  0  1.040147  0
H  H15  1  0.47021762  0.20212772  0.45709630  1  0  0.089716  0  0.980939  0  0  0.100168  0  1.041448  0  0  0.101671  0  1.043512  0  0  0.098536  0.098796  0  1.040816  0
H  H16  1  0.98677851  0.70199521  0.45682086  1  0  0.090586  0  0.980378  0  0  0.101072  0  1.04075  0  0  0.102586  0  1.0428  0  0  0.099057  0.09969  0  1.040131  0
H  H17  1  0.52982553  0.79787054  0.54290022  1  0  0.089801  0  0.980813  0  0  0.100172  0  1.041394  0  0  0.101675  0  1.043462  0  0  0.098502  0.0988  0  1.040759  0
H  H18  1  0.34262047  0.40397760  0.69196299  1  0  0.100609  0  0.98254  0  0  0.108608  0  1.048088  0  0  0.112721  0  1.044496  0  0  0.109953  0.105665  0  1.050623  0
H  H19  1  0.65007740  0.09586776  0.30814266  1  0  0.100783  0  0.981872  0  0  0.108901  0  1.047169  0  0  0.112995  0  1.04366  0  0  0.110095  0.105949  0  1.049717  0
H  H20  1  0.65736771  0.59603200  0.30804113  1  0  0.100672  0  0.982568  0  0  0.108696  0  1.048071  0  0  0.112813  0  1.044473  0  0  0.109987  0.105754  0  1.050609  0
H  H21  1  0.34994938  0.90413810  0.69185214  1  0  0.100787  0  0.981886  0  0  0.108899  0  1.047203  0  0  0.113004  0  1.04367  0  0  0.110075  0.105949  0  1.049743  0
C  C22  1  0.30139394  0.43814353  0.35417448  1  0  -0.168233  0  3.689949  0  0  -0.147836  0  3.938863  0  0  -0.155507  0  3.95993  0  0  -0.01422  -0.142965  0  3.924801  0
C  C23  1  0.94754149  0.06209224  0.64590648  1  0  -0.166955  0  3.686927  0  0  -0.146813  0  3.935722  0  0  -0.154543  0  3.956837  0  0  -0.014277  -0.141874  0  3.921552  0
C  C24  1  0.69859785  0.56186040  0.64582555  1  0  -0.168299  0  3.690042  0  0  -0.147883  0  3.938978  0  0  -0.155559  0  3.960056  0  0  -0.014255  -0.143007  0  3.924908  0
C  C25  1  0.05243928  0.93791075  0.35409305  1  0  -0.167178  0  3.687409  0  0  -0.147065  0  3.936283  0  0  -0.154795  0  3.957387  0  0  -0.014386  -0.142125  0  3.922122  0
C  C26  1  0.13075638  0.36625559  0.39155789  1  0  -0.052914  0  3.745859  0  0  -0.081829  0  4.001817  0  0  -0.079335  0  4.019019  0  0  -0.076706  -0.083124  0  3.99018  0
C  C27  1  0.73948298  0.13401300  0.60866114  1  0  -0.054423  0  3.74431  0  0  -0.083609  0  4.000748  0  0  -0.081067  0  4.017919  0  0  -0.076753  -0.084937  0  3.989124  0
C  C28  1  0.86924245  0.63373690  0.60845037  1  0  -0.052925  0  3.74607  0  0  -0.081864  0  4.002051  0  0  -0.079371  0  4.01925  0  0  -0.076738  -0.083158  0  3.99041  0
C  C29  1  0.26047948  0.86598719  0.39133002  1  0  -0.054379  0  3.744251  0  0  -0.083575  0  4.000636  0  0  -0.081035  0  4.017806  0  0  -0.076711  -0.084908  0  3.989025  0
C  C30  1  0.14718897  0.35575522  0.51443305  1  0  -0.054841  0  3.752339  0  0  -0.067522  0  4.006462  0  0  -0.070722  0  4.027945  0  0  -0.08611  -0.065501  0  3.992426  0
C  C31  1  0.63287065  0.14434815  0.48578811  1  0  -0.051779  0  3.748169  0  0  -0.064419  0  4.002129  0  0  -0.067583  0  4.023592  0  0  -0.085209  -0.062421  0  3.988108  0
C  C32  1  0.85283915  0.64423441  0.48557779  1  0  -0.054723  0  3.752227  0  0  -0.067458  0  4.006392  0  0  -0.070657  0  4.027876  0  0  -0.086111  -0.065436  0  3.992356  0
C  C33  1  0.36714315  0.85564355  0.51419599  1  0  -0.05172  0  3.748127  0  0  -0.064271  0  4.002014  0  0  -0.067434  0  4.023476  0  0  -0.0851  -0.062275  0  3.987991  0
C  C34  1  0.33164391  0.41658516  0.59790114  1  0  -0.088268  0  3.697222  0  0  -0.112353  0  3.949909  0  0  -0.112751  0  3.967237  0  0  -0.079739  -0.11199  0  3.938127  0
C  C35  1  0.73353543  0.08334022  0.40219663  1  0  -0.089081  0  3.694425  0  0  -0.113612  0  3.947186  0  0  -0.114051  0  3.964533  0  0  -0.080354  -0.113255  0  3.935435  0
C  C36  1  0.66836055  0.58341116  0.40210275  1  0  -0.088311  0  3.697263  0  0  -0.112404  0  3.949925  0  0  -0.112801  0  3.967254  0  0  -0.079722  -0.112041  0  3.938148  0
C  C37  1  0.26648572  0.91665337  0.59778928  1  0  -0.089166  0  3.69472  0  0  -0.113703  0  3.94743  0  0  -0.114138  0  3.964779  0  0  -0.08037  -0.113341  0  3.935672  0
C  C38  1  0.49307741  0.50601413  0.43728577  1  0  0.059987  0  3.733201  0  0  0.068809  0  3.962526  0  0  0.069105  0  3.987384  0  0  0.002808  0.068711  0  3.946145  0
C  C39  1  0.05597832  0.99407916  0.56270648  1  0  0.059079  0  3.733069  0  0  0.068776  0  3.960315  0  0  0.069101  0  3.985196  0  0  0.002959  0.068658  0  3.943907  0
C  C40  1  0.50690894  0.49398984  0.56270928  1  0  0.059976  0  3.732992  0  0  0.068737  0  3.962371  0  0  0.069036  0  3.987227  0  0  0.002754  0.068638  0  3.945988  0
C  C41  1  0.94402980  0.00591902  0.43730137  1  0  0.059225  0  3.733079  0  0  0.068923  0  3.960323  0  0  0.06925  0  3.985201  0  0  0.002966  0.068805  0  3.943919  0
S  S42  1  0.28047002  0.43922746  0.19772518  1  0  1.359163  0  5.57746  0  0  1.262055  0  6.084995  0  0  1.310248  0  6.061346  0  0  0.554569  1.22875  0  6.100142  0
S  S43  1  0.08299485  0.06092014  0.80240799  1  0  1.355923  0  5.582469  0  0  1.258277  0  6.090517  0  0  1.306516  0  6.066919  0  0  0.553166  1.224948  0  6.105627  0
S  S44  1  0.71952920  0.56077839  0.80227148  1  0  1.359082  0  5.577604  0  0  1.261997  0  6.085133  0  0  1.310194  0  6.061474  0  0  0.554509  1.228685  0  6.100289  0
S  S45  1  0.91701344  0.93908565  0.19759755  1  0  1.356193  0  5.58233  0  0  1.258504  0  6.090413  0  0  1.306742  0  6.066809  0  0  0.553208  1.225175  0  6.10553  0
O  O46  1  0.62562835  0.90234632  0.90058136  1  0  -0.901181  0  1.833356  0  0  -0.85474  0  2.01479  0  0  -0.872518  0  1.984258  0  0  -0.639811  -0.841985  0  2.036145  0
O  O47  1  0.72531900  0.59730684  0.09926135  1  0  -0.901207  0  1.83377  0  0  -0.855071  0  2.015205  0  0  -0.872749  0  1.98481  0  0  -0.640385  -0.8424  0  2.036438  0
O  O48  1  0.37437621  0.09765568  0.09942360  1  0  -0.90123  0  1.833295  0  0  -0.854764  0  2.014758  0  0  -0.872555  0  1.984213  0  0  -0.639848  -0.842009  0  2.036116  0
O  O49  1  0.27467824  0.40269799  0.90074542  1  0  -0.901152  0  1.833903  0  0  -0.854989  0  2.015353  0  0  -0.872676  0  1.984948  0  0  -0.640338  -0.842307  0  2.036554  0
O  O50  1  0.23435933  0.57206444  0.16148101  1  0  -0.73028  0  1.992073  0  0  -0.668331  0  2.242047  0  0  -0.691011  0  2.227595  0  0  -0.352988  -0.65227  0  2.251864  0
O  O51  1  0.07264152  0.92812435  0.83865959  1  0  -0.728922  0  1.992324  0  0  -0.666901  0  2.242526  0  0  -0.689573  0  2.228044  0  0  -0.352444  -0.650761  0  2.252158  0
O  O52  1  0.76563622  0.42794516  0.83852140  1  0  -0.730156  0  1.992298  0  0  -0.668245  0  2.242282  0  0  -0.690934  0  2.227828  0  0  -0.352946  -0.652183  0  2.252098  0
O  O53  1  0.92732815  0.07186920  0.16133221  1  0  -0.728991  0  1.992602  0  0  -0.666953  0  2.242834  0  0  -0.689623  0  2.228332  0  0  -0.352447  -0.650809  0  2.252467  0
O  O54  1  0.52238448  0.39554000  0.18341189  1  0  -0.735065  0  2.017238  0  0  -0.6724  0  2.269434  0  0  -0.695904  0  2.255808  0  0  -0.362441  -0.655643  0  2.27825  0
O  O55  1  0.33930002  0.10441989  0.81680283  1  0  -0.73473  0  2.019495  0  0  -0.671571  0  2.271037  0  0  -0.695135  0  2.257521  0  0  -0.361605  -0.654789  0  2.279793  0
O  O56  1  0.47758908  0.60446212  0.81657549  1  0  -0.735125  0  2.017184  0  0  -0.672473  0  2.26936  0  0  -0.695973  0  2.255728  0  0  -0.362485  -0.655723  0  2.27819  0
O  O57  1  0.66071710  0.89556881  0.18320491  1  0  -0.734805  0  2.019359  0  0  -0.671603  0  2.270866  0  0  -0.695157  0  2.257349  0  0  -0.361664  -0.654818  0  2.279626  0
O  O58  1  0.07957852  0.35322773  0.14043687  1  0  -0.707401  0  1.989153  0  0  -0.650232  0  2.249181  0  0  -0.672016  0  2.235092  0  0  -0.361955  -0.634749  0  2.258668  0
O  O59  1  0.93946035  0.14701512  0.85970689  1  0  -0.706269  0  1.991496  0  0  -0.648858  0  2.251625  0  0  -0.670606  0  2.237473  0  0  -0.361719  -0.633405  0  2.261154  0
O  O60  1  0.92042250  0.64677997  0.85956613  1  0  -0.707399  0  1.989096  0  0  -0.650225  0  2.249104  0  0  -0.671995  0  2.235011  0  0  -0.361907  -0.634744  0  2.258597  0
O  O61  1  0.06055528  0.85298221  0.14028627  1  0  -0.706376  0  1.991118  0  0  -0.648958  0  2.251237  0  0  -0.670698  0  2.237089  0  0  -0.361681  -0.633499  0  2.260768  0
