# generated using pymatgen
data_LiH8C14NO6
_symmetry_space_group_name_H-M   'P 1'
_cell_length_a   4.86172632
_cell_length_b   13.06000520
_cell_length_c   18.88577394
_cell_angle_alpha   89.99972668
_cell_angle_beta   89.99996177
_cell_angle_gamma   90.00023692
_symmetry_Int_Tables_number   1
_chemical_formula_structural   LiH8C14NO6
_chemical_formula_sum   'Li4 H32 C56 N4 O24'
_cell_volume   1199.13656035
_cell_formula_units_Z   4
loop_
 _symmetry_equiv_pos_site_id
 _symmetry_equiv_pos_as_xyz
  1  'x, y, z'
loop_
 _atom_site_type_symbol
 _atom_site_label
 _atom_site_symmetry_multiplicity
 _atom_site_fract_x
 _atom_site_fract_y
 _atom_site_fract_z
 _atom_site_occupancy
 _atom_site_hle17_bader_spin_density
 _atom_site_hle17_ddec_charge
 _atom_site_hle17_ddec_spin_density
 _atom_site_hle17_ddec_sum_bond_order
 _atom_site_hle17_magmom
 _atom_site_hse06_10hf_bader_spin_density
 _atom_site_hse06_10hf_ddec_charge
 _atom_site_hse06_10hf_ddec_spin_density
 _atom_site_hse06_10hf_ddec_sum_bond_order
 _atom_site_hse06_10hf_magmom
 _atom_site_hse06_bader_spin_density
 _atom_site_hse06_ddec_charge
 _atom_site_hse06_ddec_spin_density
 _atom_site_hse06_ddec_sum_bond_order
 _atom_site_hse06_magmom
 _atom_site_pbe_bader_spin_density
 _atom_site_pbe_cm5_charge
 _atom_site_pbe_ddec_charge
 _atom_site_pbe_ddec_spin_density
 _atom_site_pbe_ddec_sum_bond_order
 _atom_site_pbe_magmom
Li  Li0  1  0.68431760  0.30313662  0.46823708  1  0  0.85001  0  0.407403  0  0  0.815921  0  0.502626  0  0  0.824925  0  0.486966  0  0  0.520441  0.809316  0  0.514035  0
Li  Li1  1  0.18431551  0.19685351  0.53177612  1  0  0.849968  0  0.407427  0  0  0.815864  0  0.502688  0  0  0.824871  0  0.487024  0  0  0.520385  0.809255  0  0.514104  0
Li  Li2  1  0.31569681  0.80315066  0.03176489  1  0  0.849985  0  0.407391  0  0  0.81591  0  0.502606  0  0  0.824914  0  0.486942  0  0  0.520418  0.809308  0  0.514021  0
Li  Li3  1  0.81568187  0.69687527  0.96823234  1  0  0.849994  0  0.407439  0  0  0.815879  0  0.502722  0  0  0.824886  0  0.487059  0  0  0.520437  0.809277  0  0.514133  0
H  H4  1  0.41692347  0.38043310  0.35495488  1  0  0.444108  0  0.845238  0  0  0.4136  0  0.908557  0  0  0.422323  0  0.895419  0  0  0.307599  0.407409  0  0.917905  0
H  H5  1  0.91687570  0.11955892  0.64505193  1  0  0.443997  0  0.845388  0  0  0.413475  0  0.908728  0  0  0.422196  0  0.895596  0  0  0.307522  0.407278  0  0.918082  0
H  H6  1  0.58306507  0.88045748  0.14505001  1  0  0.443917  0  0.845498  0  0  0.41339  0  0.908835  0  0  0.422133  0  0.895674  0  0  0.307487  0.407191  0  0.918189  0
H  H7  1  0.08308587  0.61955966  0.85495679  1  0  0.444094  0  0.84524  0  0  0.413606  0  0.90853  0  0  0.422328  0  0.895394  0  0  0.307618  0.407422  0  0.91787  0
H  H8  1  0.23898034  0.36912645  0.42384592  1  0  0.442902  0  0.833367  0  0  0.415092  0  0.900028  0  0  0.424075  0  0.886534  0  0  0.324328  0.408669  0  0.909713  0
H  H9  1  0.73897403  0.13085688  0.57615351  1  0  0.442832  0  0.833519  0  0  0.415027  0  0.90014  0  0  0.42401  0  0.886645  0  0  0.324267  0.408604  0  0.909825  0
H  H10  1  0.76104098  0.86914010  0.07616642  1  0  0.442875  0  0.833305  0  0  0.415067  0  0.900049  0  0  0.424051  0  0.886551  0  0  0.32431  0.408645  0  0.909732  0
H  H11  1  0.26101851  0.63086583  0.92384882  1  0  0.442818  0  0.833488  0  0  0.415024  0  0.900123  0  0  0.424005  0  0.886631  0  0  0.324261  0.408604  0  0.909804  0
H  H12  1  0.28876237  0.33716507  0.78572523  1  0  0.115566  0  0.941122  0  0  0.123426  0  1.003982  0  0  0.12705  0  1.001211  0  0  0.11307  0.120812  0  1.005989  0
H  H13  1  0.78874923  0.16282905  0.21428319  1  0  0.115649  0  0.94092  0  0  0.123503  0  1.003792  0  0  0.127128  0  1.001018  0  0  0.113063  0.120878  0  1.005799  0
H  H14  1  0.71122630  0.83717156  0.71427059  1  0  0.115574  0  0.941142  0  0  0.123432  0  1.004021  0  0  0.127057  0  1.001248  0  0  0.113116  0.120815  0  1.006022  0
H  H15  1  0.21130065  0.66281668  0.28572136  1  0  0.115743  0  0.94086  0  0  0.123499  0  1.00377  0  0  0.127123  0  1.000998  0  0  0.113136  0.12088  0  1.005775  0
H  H16  1  0.20544396  0.25936988  0.66805690  1  0  0.127588  0  0.95489  0  0  0.137321  0  1.014711  0  0  0.141271  0  1.01289  0  0  0.11985  0.134553  0  1.016126  0
H  H17  1  0.70538610  0.24060727  0.33195417  1  0  0.127609  0  0.954864  0  0  0.13739  0  1.014595  0  0  0.141342  0  1.012771  0  0  0.119808  0.134617  0  1.016007  0
H  H18  1  0.79457058  0.75938488  0.83194129  1  0  0.127573  0  0.954833  0  0  0.137269  0  1.014696  0  0  0.14122  0  1.012876  0  0  0.119787  0.134504  0  1.016111  0
H  H19  1  0.29459265  0.74062876  0.16805594  1  0  0.127496  0  0.954841  0  0  0.137292  0  1.014624  0  0  0.141243  0  1.012801  0  0  0.119803  0.134528  0  1.016041  0
H  H20  1  0.58718337  0.67382471  0.48218295  1  0  0.093784  0  0.958727  0  0  0.101999  0  1.022133  0  0  0.104778  0  1.02161  0  0  0.101368  0.100016  0  1.022554  0
H  H21  1  0.08718687  0.82616564  0.51782279  1  0  0.093868  0  0.958754  0  0  0.102107  0  1.022119  0  0  0.104883  0  1.02161  0  0  0.101422  0.100128  0  1.022522  0
H  H22  1  0.41279053  0.17382944  0.01780832  1  0  0.093697  0  0.958771  0  0  0.102011  0  1.022059  0  0  0.104785  0  1.021552  0  0  0.101417  0.10003  0  1.022462  0
H  H23  1  0.91284281  0.32617712  0.98217466  1  0  0.093748  0  0.958689  0  0  0.10201  0  1.022059  0  0  0.104796  0  1.021536  0  0  0.101335  0.10002  0  1.022489  0
H  H24  1  0.25546298  0.53109715  0.46700406  1  0  0.110015  0  0.9683  0  0  0.113123  0  1.040433  0  0  0.118057  0  1.035874  0  0  0.112219  0.109544  0  1.043797  0
H  H25  1  0.75547701  0.96889116  0.53300271  1  0  0.109999  0  0.968488  0  0  0.113139  0  1.040566  0  0  0.118065  0  1.036024  0  0  0.112207  0.109567  0  1.043917  0
H  H26  1  0.74450522  0.03110075  0.03298874  1  0  0.110037  0  0.968179  0  0  0.113197  0  1.040232  0  0  0.118125  0  1.035685  0  0  0.112302  0.10962  0  1.043598  0
H  H27  1  0.24456249  0.46890632  0.96700115  1  0  0.109922  0  0.9684  0  0  0.113016  0  1.040533  0  0  0.117945  0  1.035983  0  0  0.112191  0.109442  0  1.043891  0
H  H28  1  0.63184683  0.76116351  0.59882033  1  0  0.09407  0  0.944313  0  0  0.105647  0  1.002619  0  0  0.108386  0  1.001824  0  0  0.102537  0.103643  0  1.003347  0
H  H29  1  0.13183530  0.73882844  0.40118540  1  0  0.094039  0  0.944342  0  0  0.105635  0  1.002605  0  0  0.108376  0  1.001805  0  0  0.102514  0.10363  0  1.00333  0
H  H30  1  0.36815127  0.26117318  0.90116939  1  0  0.09411  0  0.944345  0  0  0.105664  0  1.002684  0  0  0.10841  0  1.001876  0  0  0.102547  0.103655  0  1.003409  0
H  H31  1  0.86818251  0.23883254  0.09881201  1  0  0.094125  0  0.944307  0  0  0.105737  0  1.002561  0  0  0.108479  0  1.001761  0  0  0.102543  0.103732  0  1.003284  0
H  H32  1  0.34181563  0.70212237  0.70142784  1  0  0.09958  0  0.967832  0  0  0.105783  0  1.035863  0  0  0.109555  0  1.033561  0  0  0.101743  0.103043  0  1.037575  0
H  H33  1  0.84181404  0.79787526  0.29857998  1  0  0.099474  0  0.967719  0  0  0.105637  0  1.035789  0  0  0.109408  0  1.033487  0  0  0.101713  0.1029  0  1.037496  0
H  H34  1  0.65816947  0.20212248  0.79856207  1  0  0.099807  0  0.96753  0  0  0.105886  0  1.035682  0  0  0.109661  0  1.033379  0  0  0.101736  0.10314  0  1.037396  0
H  H35  1  0.15820032  0.29787373  0.20142148  1  0  0.099534  0  0.967673  0  0  0.105694  0  1.035744  0  0  0.109467  0  1.033442  0  0  0.101722  0.102952  0  1.03745  0
C  C36  1  0.91943230  0.44984161  0.56478303  1  0  0.411083  0  3.74872  0  0  0.389865  0  4.010313  0  0  0.414974  0  4.011151  0  0  0.161984  0.372926  0  4.009489  0
C  C37  1  0.41942680  0.05014582  0.43522854  1  0  0.411422  0  3.748272  0  0  0.39005  0  4.010019  0  0  0.415186  0  4.010865  0  0  0.162041  0.373101  0  4.009198  0
C  C38  1  0.08055762  0.94984409  0.93521348  1  0  0.411051  0  3.748972  0  0  0.389797  0  4.010702  0  0  0.414907  0  4.011541  0  0  0.161906  0.372866  0  4.009881  0
C  C39  1  0.58056012  0.55016846  0.06478114  1  0  0.411147  0  3.748473  0  0  0.389912  0  4.010029  0  0  0.415031  0  4.010862  0  0  0.161979  0.372974  0  4.009212  0
C  C40  1  0.11421878  0.53615486  0.57504517  1  0  -0.036828  0  3.7364  0  0  -0.02312  0  3.962389  0  0  -0.028175  0  3.986589  0  0  -0.003308  -0.019922  0  3.946061  0
C  C41  1  0.61421661  0.96384012  0.42496427  1  0  -0.036825  0  3.736417  0  0  -0.023039  0  3.962447  0  0  -0.028189  0  3.986776  0  0  -0.003315  -0.01982  0  3.946095  0
C  C42  1  0.88576242  0.03615445  0.92494793  1  0  -0.036392  0  3.736219  0  0  -0.022787  0  3.962377  0  0  -0.02784  0  3.986576  0  0  -0.003267  -0.019601  0  3.946067  0
C  C43  1  0.38579136  0.46385131  0.07504352  1  0  -0.036726  0  3.736218  0  0  -0.022897  0  3.962066  0  0  -0.027983  0  3.986304  0  0  -0.003165  -0.019704  0  3.945747  0
C  C44  1  0.74127722  0.41910162  0.62322656  1  0  -0.193984  0  3.6682  0  0  -0.18874  0  3.91278  0  0  -0.204632  0  3.938548  0  0  -0.021325  -0.178082  0  3.89497  0
C  C45  1  0.24127634  0.08089013  0.37678398  1  0  -0.194167  0  3.668446  0  0  -0.188803  0  3.912875  0  0  -0.204692  0  3.938629  0  0  -0.021437  -0.178139  0  3.895071  0
C  C46  1  0.25870825  0.91910401  0.87676952  1  0  -0.194314  0  3.667997  0  0  -0.189067  0  3.912639  0  0  -0.204957  0  3.938391  0  0  -0.021486  -0.178409  0  3.894841  0
C  C47  1  0.75871503  0.58090651  0.12322613  1  0  -0.193851  0  3.668236  0  0  -0.188615  0  3.912723  0  0  -0.204512  0  3.938504  0  0  -0.021306  -0.177952  0  3.894912  0
C  C48  1  0.62864220  0.42916159  0.74855316  1  0  0.052371  0  3.690465  0  0  0.027897  0  3.9506  0  0  0.02253  0  3.973123  0  0  0.073815  0.031302  0  3.935427  0
C  C49  1  0.12864569  0.07083841  0.25145793  1  0  0.052408  0  3.690281  0  0  0.027886  0  3.950231  0  0  0.022519  0  3.972757  0  0  0.07375  0.031292  0  3.935058  0
C  C50  1  0.37133103  0.92916195  0.75144130  1  0  0.052585  0  3.690168  0  0  0.028008  0  3.950328  0  0  0.022642  0  3.972849  0  0  0.073921  0.031415  0  3.935158  0
C  C51  1  0.87138671  0.57083266  0.24855010  1  0  0.052557  0  3.690314  0  0  0.027837  0  3.95058  0  0  0.022472  0  3.973102  0  0  0.073754  0.031243  0  3.935407  0
C  C52  1  0.13998964  0.58521436  0.64104080  1  0  -0.062365  0  3.779553  0  0  -0.049171  0  4.009255  0  0  -0.056325  0  4.034723  0  0  -0.015468  -0.044391  0  3.992039  0
C  C53  1  0.63999123  0.91478296  0.35896917  1  0  -0.062189  0  3.779584  0  0  -0.04928  0  4.00932  0  0  -0.056406  0  4.03481  0  0  -0.015397  -0.044503  0  3.992104  0
C  C54  1  0.85997771  0.08520900  0.85894897  1  0  -0.062652  0  3.779915  0  0  -0.049462  0  4.009526  0  0  -0.056619  0  4.034999  0  0  -0.015595  -0.044676  0  3.992309  0
C  C55  1  0.36001414  0.41478676  0.14103772  1  0  -0.062283  0  3.779477  0  0  -0.049339  0  4.009218  0  0  -0.056484  0  4.034697  0  0  -0.015552  -0.044557  0  3.991998  0
C  C56  1  0.97222667  0.55180515  0.70172668  1  0  0.391909  0  3.752255  0  0  0.370003  0  4.019298  0  0  0.393456  0  4.019632  0  0  0.157219  0.353872  0  4.018794  0
C  C57  1  0.47224039  0.94819727  0.29828165  1  0  0.391102  0  3.753228  0  0  0.369623  0  4.019663  0  0  0.39308  0  4.020001  0  0  0.157029  0.353488  0  4.019159  0
C  C58  1  0.02773825  0.05179970  0.79826585  1  0  0.391703  0  3.752564  0  0  0.370145  0  4.019035  0  0  0.393596  0  4.019372  0  0  0.157332  0.354009  0  4.018526  0
C  C59  1  0.52777769  0.44819861  0.20172302  1  0  0.391411  0  3.752914  0  0  0.369865  0  4.019497  0  0  0.393319  0  4.019835  0  0  0.157108  0.353728  0  4.018984  0
C  C60  1  0.41580590  0.35764617  0.74033600  1  0  -0.08035  0  3.768471  0  0  -0.1062  0  4.034329  0  0  -0.104255  0  4.054054  0  0  -0.079783  -0.107022  0  4.020688  0
C  C61  1  0.91579446  0.14234968  0.25967346  1  0  -0.080524  0  3.76853  0  0  -0.106445  0  4.034393  0  0  -0.104503  0  4.054118  0  0  -0.079886  -0.107252  0  4.020736  0
C  C62  1  0.58418094  0.85765293  0.75965870  1  0  -0.080431  0  3.76844  0  0  -0.106325  0  4.034334  0  0  -0.104379  0  4.054052  0  0  -0.07989  -0.107133  0  4.020687  0
C  C63  1  0.08422434  0.64234584  0.24033221  1  0  -0.080521  0  3.76856  0  0  -0.106211  0  4.03448  0  0  -0.104265  0  4.054201  0  0  -0.079832  -0.107021  0  4.020832  0
C  C64  1  0.36919680  0.31530028  0.67492758  1  0  -0.160578  0  3.650066  0  0  -0.184217  0  3.906639  0  0  -0.193338  0  3.926144  0  0  -0.080954  -0.178471  0  3.893596  0
C  C65  1  0.86916507  0.18468554  0.32508294  1  0  -0.160571  0  3.650027  0  0  -0.184212  0  3.90653  0  0  -0.193334  0  3.926036  0  0  -0.080896  -0.178452  0  3.89347  0
C  C66  1  0.63080397  0.81531125  0.82506990  1  0  -0.160631  0  3.649946  0  0  -0.184194  0  3.906475  0  0  -0.193316  0  3.925979  0  0  -0.080904  -0.17845  0  3.893438  0
C  C67  1  0.13082540  0.68469907  0.17492735  1  0  -0.160486  0  3.65014  0  0  -0.184247  0  3.906654  0  0  -0.193369  0  3.92616  0  0  -0.080902  -0.178505  0  3.893619  0
C  C68  1  0.46075894  0.64957715  0.52680124  1  0  -0.045953  0  3.722738  0  0  -0.060251  0  3.975631  0  0  -0.061486  0  3.995522  0  0  -0.075659  -0.059362  0  3.962041  0
C  C69  1  0.96074920  0.85041378  0.47320656  1  0  -0.046237  0  3.723191  0  0  -0.06062  0  3.976172  0  0  -0.061857  0  3.996048  0  0  -0.075874  -0.059726  0  3.962583  0
C  C70  1  0.53922353  0.14958199  0.97318885  1  0  -0.045645  0  3.722591  0  0  -0.060025  0  3.975532  0  0  -0.061258  0  3.995417  0  0  -0.075533  -0.059135  0  3.961947  0
C  C71  1  0.03927603  0.35042553  0.02679260  1  0  -0.04604  0  3.722917  0  0  -0.060422  0  3.975869  0  0  -0.061667  0  3.99576  0  0  -0.075773  -0.059532  0  3.962272  0
C  C72  1  0.52962770  0.34159310  0.61377620  1  0  0.415058  0  3.833639  0  0  0.400972  0  4.093762  0  0  0.420864  0  4.105006  0  0  0.126821  0.387783  0  4.085548  0
C  C73  1  0.02961120  0.15839449  0.38623543  1  0  0.415426  0  3.83354  0  0  0.401321  0  4.093558  0  0  0.421213  0  4.104805  0  0  0.127039  0.388129  0  4.085346  0
C  C74  1  0.47036307  0.84160187  0.88622119  1  0  0.415509  0  3.833284  0  0  0.401389  0  4.093387  0  0  0.421282  0  4.104627  0  0  0.126987  0.388199  0  4.085187  0
C  C75  1  0.97037280  0.65841663  0.11377496  1  0  0.41498  0  3.833902  0  0  0.401024  0  4.093817  0  0  0.420917  0  4.105062  0  0  0.126912  0.387833  0  4.085612  0
C  C76  1  0.78338175  0.46391381  0.69133489  1  0  -0.068833  0  3.761335  0  0  -0.070939  0  4.011347  0  0  -0.071057  0  4.03464  0  0  -0.009566  -0.070436  0  3.995085  0
C  C77  1  0.28339292  0.03608337  0.30867565  1  0  -0.06855  0  3.761469  0  0  -0.070715  0  4.011153  0  0  -0.070834  0  4.034452  0  0  -0.009375  -0.070214  0  3.994898  0
C  C78  1  0.21659187  0.96391430  0.80865945  1  0  -0.06872  0  3.761002  0  0  -0.070843  0  4.01085  0  0  -0.070962  0  4.034144  0  0  -0.009444  -0.070334  0  3.994588  0
C  C79  1  0.71661235  0.53609080  0.19133197  1  0  -0.068706  0  3.761311  0  0  -0.070858  0  4.011255  0  0  -0.070981  0  4.034558  0  0  -0.009479  -0.07035  0  3.994986  0
C  C80  1  0.27565347  0.56920800  0.51797305  1  0  -0.053354  0  3.666091  0  0  -0.079409  0  3.916895  0  0  -0.080038  0  3.934683  0  0  -0.068838  -0.078928  0  3.90498  0
C  C81  1  0.77565900  0.93078187  0.48203478  1  0  -0.053329  0  3.666366  0  0  -0.079359  0  3.91709  0  0  -0.079957  0  3.934899  0  0  -0.068768  -0.078883  0  3.905173  0
C  C82  1  0.72432398  0.06921154  0.98201677  1  0  -0.053636  0  3.665966  0  0  -0.079711  0  3.916907  0  0  -0.08034  0  3.93469  0  0  -0.068959  -0.079222  0  3.904977  0
C  C83  1  0.22436917  0.43079550  0.01797100  1  0  -0.053365  0  3.66643  0  0  -0.079375  0  3.917135  0  0  -0.07999  0  3.934929  0  0  -0.068878  -0.078894  0  3.90522  0
C  C84  1  0.48597650  0.69836942  0.59257183  1  0  -0.065467  0  3.740746  0  0  -0.081756  0  3.999078  0  0  -0.084094  0  4.019929  0  0  -0.08366  -0.080154  0  3.984935  0
C  C85  1  0.98597463  0.80162614  0.40743438  1  0  -0.065327  0  3.740543  0  0  -0.081601  0  3.998806  0  0  -0.083936  0  4.019657  0  0  -0.083536  -0.079997  0  3.984656  0
C  C86  1  0.51401474  0.19837544  0.90741757  1  0  -0.065524  0  3.740776  0  0  -0.081777  0  3.999133  0  0  -0.084117  0  4.019989  0  0  -0.083772  -0.08017  0  3.98497  0
C  C87  1  0.01404594  0.30163204  0.09256653  1  0  -0.065423  0  3.740585  0  0  -0.08176  0  3.998915  0  0  -0.084095  0  4.019768  0  0  -0.083543  -0.080157  0  3.984765  0
C  C88  1  0.32588495  0.66634001  0.64949092  1  0  -0.058448  0  3.706039  0  0  -0.086243  0  3.961862  0  0  -0.086349  0  3.980908  0  0  -0.079838  -0.086042  0  3.948978  0
C  C89  1  0.82587949  0.83365913  0.35051531  1  0  -0.058313  0  3.705597  0  0  -0.086002  0  3.961438  0  0  -0.086107  0  3.980477  0  0  -0.07983  -0.085805  0  3.948554  0
C  C90  1  0.67410387  0.16633902  0.85049752  1  0  -0.058672  0  3.705674  0  0  -0.086384  0  3.961539  0  0  -0.086494  0  3.980582  0  0  -0.079774  -0.086178  0  3.94864  0
C  C91  1  0.17413937  0.33366181  0.14948497  1  0  -0.058255  0  3.705755  0  0  -0.085939  0  3.9616  0  0  -0.086044  0  3.980642  0  0  -0.079706  -0.085738  0  3.948706  0
N  N92  1  0.68291723  0.45992783  0.82206452  1  0  0.481188  0  3.970607  0  0  0.539391  0  4.230974  0  0  0.562727  0  4.235927  0  0  0.061408  0.523258  0  4.227942  0
N  N93  1  0.18295761  0.04008757  0.17794391  1  0  0.48073  0  3.970508  0  0  0.539363  0  4.230366  0  0  0.562696  0  4.235323  0  0  0.061409  0.523226  0  4.22734  0
N  N94  1  0.31704812  0.95992096  0.67792984  1  0  0.481414  0  3.970081  0  0  0.539758  0  4.230319  0  0  0.563093  0  4.235262  0  0  0.061569  0.523617  0  4.227296  0
N  N95  1  0.81712587  0.54005826  0.32205892  1  0  0.480864  0  3.970401  0  0  0.53939  0  4.23044  0  0  0.562719  0  4.2354  0  0  0.06142  0.523251  0  4.227416  0
O  O96  1  0.47335535  0.29792712  0.55447344  1  0  -0.714053  0  2.004367  0  0  -0.673921  0  2.242759  0  0  -0.696538  0  2.236342  0  0  -0.437345  -0.6578  0  2.24675  0
O  O97  1  0.97334404  0.20206651  0.44553548  1  0  -0.714313  0  2.004593  0  0  -0.674182  0  2.242954  0  0  -0.6968  0  2.236532  0  0  -0.437403  -0.658058  0  2.246943  0
O  O98  1  0.52665139  0.79794170  0.94552463  1  0  -0.714279  0  2.004322  0  0  -0.674158  0  2.242768  0  0  -0.696776  0  2.236343  0  0  -0.437427  -0.658038  0  2.246767  0
O  O99  1  0.02662811  0.70209220  0.05447265  1  0  -0.714051  0  2.004554  0  0  -0.674024  0  2.242968  0  0  -0.696644  0  2.236549  0  0  -0.437399  -0.657904  0  2.246965  0
O  O100  1  0.92180989  0.40469329  0.50618662  1  0  -0.555549  0  2.024297  0  0  -0.514334  0  2.256631  0  0  -0.528335  0  2.246385  0  0  -0.317663  -0.504921  0  2.263809  0
O  O101  1  0.42181089  0.09529721  0.49382283  1  0  -0.555699  0  2.024076  0  0  -0.514519  0  2.256577  0  0  -0.528511  0  2.246306  0  0  -0.317681  -0.505101  0  2.263767  0
O  O102  1  0.07819598  0.90470225  0.99381057  1  0  -0.555521  0  2.024556  0  0  -0.514295  0  2.256937  0  0  -0.528293  0  2.246685  0  0  -0.317577  -0.504872  0  2.2641  0
O  O103  1  0.57815802  0.59532484  0.00618776  1  0  -0.555727  0  2.024252  0  0  -0.514512  0  2.256591  0  0  -0.528507  0  2.246327  0  0  -0.31772  -0.505099  0  2.263779  0
O  O104  1  0.98028777  0.59847110  0.75913701  1  0  -0.469485  0  1.977008  0  0  -0.423497  0  2.192781  0  0  -0.440227  0  2.187715  0  0  -0.24953  -0.411858  0  2.196144  0
O  O105  1  0.48029497  0.90154206  0.24086655  1  0  -0.469087  0  1.977436  0  0  -0.423267  0  2.193058  0  0  -0.440002  0  2.187988  0  0  -0.249421  -0.411623  0  2.196409  0
O  O106  1  0.01965916  0.09845837  0.74085060  1  0  -0.469458  0  1.977042  0  0  -0.423625  0  2.192695  0  0  -0.440351  0  2.187624  0  0  -0.249682  -0.411976  0  2.196043  0
O  O107  1  0.51972877  0.40153533  0.25913615  1  0  -0.469279  0  1.977289  0  0  -0.423448  0  2.192954  0  0  -0.440182  0  2.187892  0  0  -0.249493  -0.411804  0  2.1963  0
O  O108  1  0.41389755  0.34979205  0.40220213  1  0  -0.891617  0  1.78371  0  0  -0.854084  0  1.964572  0  0  -0.867844  0  1.934668  0  0  -0.643162  -0.844201  0  1.985599  0
O  O109  1  0.91388523  0.15018618  0.59779885  1  0  -0.891479  0  1.783947  0  0  -0.853903  0  1.964747  0  0  -0.867662  0  1.934853  0  0  -0.643048  -0.844007  0  1.985786  0
O  O110  1  0.58609064  0.84982749  0.09779862  1  0  -0.891386  0  1.783778  0  0  -0.853808  0  1.964701  0  0  -0.867591  0  1.934748  0  0  -0.643013  -0.843909  0  1.985752  0
O  O111  1  0.08610547  0.65019961  0.90220500  1  0  -0.891534  0  1.783798  0  0  -0.853991  0  1.964611  0  0  -0.867753  0  1.934718  0  0  -0.643118  -0.844107  0  1.985609  0
O  O112  1  0.88765084  0.42247078  0.85157143  1  0  -0.343137  0  1.762989  0  0  -0.339622  0  1.96163  0  0  -0.354366  0  1.958237  0  0  -0.116773  -0.329462  0  1.964071  0
O  O113  1  0.38771846  0.07754953  0.14844809  1  0  -0.34305  0  1.762843  0  0  -0.339737  0  1.961375  0  0  -0.354477  0  1.957981  0  0  -0.116884  -0.329577  0  1.963814  0
O  O114  1  0.11231409  0.92245384  0.64842622  1  0  -0.343373  0  1.762676  0  0  -0.339909  0  1.961241  0  0  -0.354648  0  1.957835  0  0  -0.116986  -0.329759  0  1.96369  0
O  O115  1  0.61239423  0.57751511  0.35156786  1  0  -0.342855  0  1.762845  0  0  -0.339432  0  1.961334  0  0  -0.354172  0  1.957937  0  0  -0.116625  -0.329272  0  1.963768  0
O  O116  1  0.50541057  0.51231807  0.85192502  1  0  -0.329169  0  1.795572  0  0  -0.324495  0  1.999458  0  0  -0.337871  0  1.99404  0  0  -0.101546  -0.31508  0  2.00312  0
O  O117  1  0.00546630  0.98770201  0.14807120  1  0  -0.328933  0  1.795408  0  0  -0.324429  0  1.999122  0  0  -0.337797  0  1.993693  0  0  -0.101485  -0.315018  0  2.002785  0
O  O118  1  0.49453129  0.01232280  0.64806764  1  0  -0.329207  0  1.795556  0  0  -0.324514  0  1.999355  0  0  -0.337896  0  1.993954  0  0  -0.10149  -0.315091  0  2.003016  0
O  O119  1  0.99462215  0.48765556  0.35191427  1  0  -0.329321  0  1.795387  0  0  -0.324702  0  1.999116  0  0  -0.33807  0  1.99369  0  0  -0.101685  -0.315281  0  2.002775  0
