# generated using pymatgen
data_CdH7C12NO4
_symmetry_space_group_name_H-M   'P 1'
_cell_length_a   7.07208674
_cell_length_b   14.28533786
_cell_length_c   15.30906630
_cell_angle_alpha   90.00011477
_cell_angle_beta   96.14243193
_cell_angle_gamma   90.00123043
_symmetry_Int_Tables_number   1
_chemical_formula_structural   CdH7C12NO4
_chemical_formula_sum   'Cd4 H28 C48 N4 O16'
_cell_volume   1537.75206355
_cell_formula_units_Z   4
loop_
 _symmetry_equiv_pos_site_id
 _symmetry_equiv_pos_as_xyz
  1  'x, y, z'
loop_
 _atom_site_type_symbol
 _atom_site_label
 _atom_site_symmetry_multiplicity
 _atom_site_fract_x
 _atom_site_fract_y
 _atom_site_fract_z
 _atom_site_occupancy
 _atom_site_pbe_bader_charge
 _atom_site_pbe_bader_spin_density
 _atom_site_pbe_cm5_charge
 _atom_site_pbe_ddec_charge
 _atom_site_pbe_ddec_spin_density
 _atom_site_pbe_ddec_sum_bond_order
 _atom_site_pbe_magmom
Cd  Cd0  1  0.52791853  0.80200239  0.31295105  1  1.324436  0  0.78885  0.981964  0  2.092115  0
Cd  Cd1  1  0.97209508  0.30201070  0.68705874  1  1.324561  0  0.788788  0.981845  0  2.092289  0
Cd  Cd2  1  0.47208676  0.19799160  0.68705178  1  1.324574  0  0.788825  0.981935  0  2.092185  0
Cd  Cd3  1  0.02791878  0.69798539  0.31293735  1  1.324531  0  0.788861  0.981952  0  2.091978  0
H  H4  1  0.82626586  0.14538958  0.39724916  1  0.10291  0  0.114744  0.125462  0  0.980855  0
H  H5  1  0.67376787  0.64539397  0.60275615  1  0.102846  0  0.114713  0.125386  0  0.980958  0
H  H6  1  0.17375794  0.85460441  0.60274873  1  0.10297  0  0.114777  0.125509  0  0.981005  0
H  H7  1  0.32621183  0.35460422  0.39724278  1  0.102787  0  0.114754  0.125483  0  0.980897  0
H  H8  1  0.70183870  0.01132127  0.29993722  1  0.128716  0  0.119977  0.096073  0  0.995954  0
H  H9  1  0.79818199  0.51132720  0.70006916  1  0.128528  0  0.11999  0.096061  0  0.995803  0
H  H10  1  0.29817655  0.98867272  0.70006482  1  0.12863  0  0.120004  0.096081  0  0.995939  0
H  H11  1  0.20180339  0.48867098  0.29993005  1  0.128789  0  0.120023  0.096151  0  0.995749  0
H  H12  1  0.63820309  0.84298929  0.51445266  1  0.119156  0  0.116041  0.094253  0  1.014247  0
H  H13  1  0.86180098  0.34298827  0.48555150  1  0.119145  0  0.116052  0.094254  0  1.014177  0
H  H14  1  0.36179366  0.15701170  0.48554974  1  0.119125  0  0.116029  0.094225  0  1.014236  0
H  H15  1  0.13820291  0.65701762  0.51444669  1  0.119072  0  0.116014  0.094138  0  1.01423  0
H  H16  1  0.74281853  0.97328649  0.62066297  1  0.130104  0  0.115901  0.128254  0  0.977647  0
H  H17  1  0.75718561  0.47328343  0.37934207  1  0.130136  0  0.115876  0.128127  0  0.977649  0
H  H18  1  0.25718108  0.02671520  0.37933762  1  0.130128  0  0.115881  0.128174  0  0.977707  0
H  H19  1  0.24280691  0.52672036  0.62065424  1  0.130164  0  0.115818  0.128066  0  0.977747  0
H  H20  1  0.64109975  0.99030348  0.05941468  1  0.097103  0  0.104132  0.108959  0  1.019322  0
H  H21  1  0.85889943  0.49029364  0.94059340  1  0.097092  0  0.104187  0.109003  0  1.019351  0
H  H22  1  0.35888846  0.00970031  0.94058859  1  0.097124  0  0.104201  0.109049  0  1.019424  0
H  H23  1  0.14108598  0.50970035  0.05940189  1  0.097113  0  0.104138  0.109004  0  1.019296  0
H  H24  1  0.67253521  0.09487182  0.92994558  1  0.088223  0  0.100863  0.113089  0  1.021702  0
H  H25  1  0.82747920  0.59486476  0.07006259  1  0.088183  0  0.100871  0.113182  0  1.021499  0
H  H26  1  0.32748568  0.90513687  0.07006393  1  0.088194  0  0.100854  0.113196  0  1.02139  0
H  H27  1  0.17252185  0.40512713  0.92993350  1  0.088141  0  0.100867  0.113187  0  1.021528  0
H  H28  1  0.12582542  0.83339312  0.17318972  1  0.112284  0  0.097622  0.106398  0  1.047507  0
H  H29  1  0.37417889  0.33337970  0.82681591  1  0.112549  0  0.097663  0.106516  0  1.047512  0
H  H30  1  0.87418406  0.16661837  0.82682443  1  0.112291  0  0.097691  0.106519  0  1.047481  0
H  H31  1  0.62581931  0.66661219  0.17318134  1  0.11264  0  0.097653  0.106418  0  1.047552  0
C  C32  1  0.84843808  0.14895369  0.57738003  1  1.581742  0  0.204899  0.575506  0  4.196419  0
C  C33  1  0.65156453  0.64895114  0.42262306  1  1.581692  0  0.204807  0.575358  0  4.196531  0
C  C34  1  0.15157008  0.85104870  0.42261642  1  1.581845  0  0.204779  0.575359  0  4.196696  0
C  C35  1  0.34841513  0.35105685  0.57738305  1  1.581872  0  0.204678  0.575277  0  4.196342  0
C  C36  1  0.79040339  0.06928351  0.51634871  1  -0.047711  0  0.004994  0.017998  0  3.951357  0
C  C37  1  0.70960137  0.56928592  0.48365696  1  -0.047665  0  0.005025  0.018069  0  3.951119  0
C  C38  1  0.20960050  0.93071678  0.48364883  1  -0.047824  0  0.004988  0.018168  0  3.951291  0
C  C39  1  0.29038970  0.43071787  0.51634254  1  -0.047825  0  0.005081  0.018058  0  3.951214  0
C  C40  1  0.78335098  0.07962475  0.42524033  1  -0.017598  0  -0.076792  -0.144583  0  3.950641  0
C  C41  1  0.71666706  0.57962603  0.57476212  1  -0.018066  0  -0.076731  -0.14452  0  3.950515  0
C  C42  1  0.21665859  0.92036924  0.57475946  1  -0.017816  0  -0.076764  -0.14472  0  3.950488  0
C  C43  1  0.28331547  0.42037496  0.42523891  1  -0.018185  0  -0.07685  -0.144687  0  3.950681  0
C  C44  1  0.71683843  0.00551198  0.37141687  1  0.484169  0  0.048032  0.091658  0  3.945606  0
C  C45  1  0.78317917  0.50551549  0.62858804  1  0.484666  0  0.048011  0.091643  0  3.945237  0
C  C46  1  0.28317826  0.99448621  0.62858263  1  0.484593  0  0.047983  0.091635  0  3.945691  0
C  C47  1  0.21681618  0.49448340  0.37140972  1  0.484703  0  0.047906  0.091519  0  3.945255  0
C  C48  1  0.67929148  0.91163539  0.49182262  1  0.489388  0  0.046366  0.093209  0  3.958642  0
C  C49  1  0.82070709  0.41163818  0.50818138  1  0.489505  0  0.046254  0.093025  0  3.958802  0
C  C50  1  0.32070670  0.08836490  0.50817855  1  0.489511  0  0.046313  0.093173  0  3.95841  0
C  C51  1  0.17928400  0.58836700  0.49181421  1  0.488909  0  0.046417  0.093465  0  3.958846  0
C  C52  1  0.73863898  0.98315595  0.54993657  1  -0.057232  0  -0.07617  -0.141779  0  3.950951  0
C  C53  1  0.76135991  0.48315659  0.45006691  1  -0.057165  0  -0.07618  -0.141595  0  3.95069  0
C  C54  1  0.26135778  0.01684294  0.45006322  1  -0.057204  0  -0.076178  -0.141759  0  3.950965  0
C  C55  1  0.23863403  0.51684930  0.54992947  1  -0.056912  0  -0.076211  -0.141684  0  3.95101  0
C  C56  1  0.74914521  0.86559731  0.18537197  1  1.515329  0  0.203883  0.575102  0  4.188728  0
C  C57  1  0.75085847  0.36558954  0.81462632  1  1.515734  0  0.204122  0.575375  0  4.187602  0
C  C58  1  0.25086863  0.13440578  0.81462803  1  1.515086  0  0.204009  0.5751  0  4.187702  0
C  C59  1  0.24914259  0.63440515  0.18536715  1  1.515091  0  0.204001  0.575192  0  4.188475  0
C  C60  1  0.86929798  0.90697947  0.12120738  1  -0.038534  0  -0.023076  -0.038292  0  4.008015  0
C  C61  1  0.63069038  0.40697406  0.87880328  1  -0.037721  0  -0.022987  -0.038329  0  4.007698  0
C  C62  1  0.13069442  0.09301592  0.87880852  1  -0.038078  0  -0.023043  -0.038286  0  4.007993  0
C  C63  1  0.36929927  0.59302063  0.12119550  1  -0.037781  0  -0.022871  -0.038057  0  4.008002  0
C  C64  1  0.79045312  0.97121197  0.05983658  1  -0.042075  0  -0.07901  -0.14107  0  3.933588  0
C  C65  1  0.70955943  0.47120684  0.94017280  1  -0.043177  0  -0.079199  -0.141151  0  3.933973  0
C  C66  1  0.20955781  0.02878762  0.94017307  1  -0.042675  0  -0.079222  -0.141284  0  3.934515  0
C  C67  1  0.29044446  0.52878855  0.05982474  1  -0.042947  0  -0.079217  -0.141351  0  3.934045  0
C  C68  1  0.90121882  0.01248584  0.99852816  1  -0.004802  0  -0.005506  0.076488  0  4.000543  0
C  C69  1  0.59878206  0.51248110  0.00146938  1  -0.060396  0  -0.005452  0.076494  0  4.00107  0
C  C70  1  0.09879076  0.98752075  0.00147032  1  -0.060389  0  -0.005437  0.07659  0  4.000915  0
C  C71  1  0.40121048  0.48751499  0.99852301  1  -0.004559  0  -0.005406  0.076642  0  4.000731  0
C  C72  1  0.82347182  0.07759967  0.93429574  1  0.017998  0  -0.087913  -0.123158  0  3.958693  0
C  C73  1  0.67653047  0.57758890  0.06570851  1  0.017598  0  -0.087933  -0.123267  0  3.958596  0
C  C74  1  0.17652350  0.92241322  0.06570659  1  0.017592  0  -0.087882  -0.123277  0  3.958478  0
C  C75  1  0.32346774  0.42239879  0.93428678  1  0.018217  0  -0.087892  -0.123236  0  3.958537  0
C  C76  1  0.06463102  0.88269784  0.12389537  1  -0.079886  0  -0.090727  -0.09071  0  3.965629  0
C  C77  1  0.43536554  0.38268518  0.87610669  1  -0.080566  0  -0.090836  -0.090873  0  3.965868  0
C  C78  1  0.93537140  0.11731085  0.87611124  1  -0.080067  0  -0.09082  -0.09082  0  3.965856  0
C  C79  1  0.56463125  0.61730391  0.12388983  1  -0.080264  0  -0.090831  -0.090796  0  3.965836  0
N  N80  1  0.66495982  0.92307212  0.40410993  1  -1.209062  0  -0.323283  -0.249191  0  3.513764  0
N  N81  1  0.83504068  0.42307176  0.59589419  1  -1.209279  0  -0.323177  -0.249024  0  3.513498  0
N  N82  1  0.33504119  0.07692607  0.59589465  1  -1.209274  0  -0.323227  -0.249105  0  3.513832  0
N  N83  1  0.16495184  0.57692853  0.40410082  1  -1.208883  0  -0.323095  -0.249095  0  3.513621  0
O  O84  1  0.78093495  0.15070276  0.65153562  1  -1.171312  0  -0.328468  -0.577082  0  2.29632  0
O  O85  1  0.71906347  0.65069796  0.34846661  1  -1.171259  0  -0.328476  -0.577078  0  2.296166  0
O  O86  1  0.21907035  0.84929613  0.34846460  1  -1.171427  0  -0.328367  -0.576966  0  2.296628  0
O  O87  1  0.28091762  0.34931632  0.65153696  1  -1.171618  0  -0.32841  -0.577054  0  2.29628  0
O  O88  1  0.96255962  0.20992448  0.55345793  1  -1.156933  0  -0.315721  -0.541739  0  2.1901  0
O  O89  1  0.53745424  0.70992007  0.44654192  1  -1.156817  0  -0.315634  -0.541619  0  2.190319  0
O  O90  1  0.03745138  0.79007371  0.44653932  1  -1.156939  0  -0.315707  -0.541748  0  2.190085  0
O  O91  1  0.46253251  0.29007672  0.55346782  1  -1.156647  0  -0.31557  -0.541551  0  2.19012  0
O  O92  1  0.81570639  0.79985759  0.23740079  1  -1.189184  0  -0.339348  -0.590366  0  2.386694  0
O  O93  1  0.68427308  0.29984969  0.76259224  1  -1.189379  0  -0.339512  -0.59059  0  2.386559  0
O  O94  1  0.18428754  0.20015250  0.76259820  1  -1.189321  0  -0.339346  -0.590326  0  2.386554  0
O  O95  1  0.31572662  0.70014780  0.23739267  1  -1.189074  0  -0.339395  -0.590458  0  2.386702  0
O  O96  1  0.58135414  0.89637133  0.18979174  1  -1.149123  0  -0.320327  -0.546466  0  2.177175  0
O  O97  1  0.91866936  0.39636814  0.81021350  1  -1.149212  0  -0.320335  -0.546424  0  2.176798  0
O  O98  1  0.41867246  0.10362336  0.81021414  1  -1.148703  0  -0.320339  -0.54641  0  2.176724  0
O  O99  1  0.08134305  0.60363075  0.18978709  1  -1.148922  0  -0.320337  -0.546437  0  2.177173  0
