# generated using pymatgen
data_AlH9C10N2O5
_symmetry_space_group_name_H-M   'P 1'
_cell_length_a   6.68165941
_cell_length_b   8.80890435
_cell_length_c   16.68174908
_cell_angle_alpha   115.50957093
_cell_angle_beta   85.67671275
_cell_angle_gamma   74.87798103
_symmetry_Int_Tables_number   1
_chemical_formula_structural   AlH9C10N2O5
_chemical_formula_sum   'Al2 H18 C20 N4 O10'
_cell_volume   835.35865423
_cell_formula_units_Z   2
loop_
 _symmetry_equiv_pos_site_id
 _symmetry_equiv_pos_as_xyz
  1  'x, y, z'
loop_
 _atom_site_type_symbol
 _atom_site_label
 _atom_site_symmetry_multiplicity
 _atom_site_fract_x
 _atom_site_fract_y
 _atom_site_fract_z
 _atom_site_occupancy
 _atom_site_pbe_bader_charge
 _atom_site_pbe_bader_spin_density
 _atom_site_pbe_cm5_charge
 _atom_site_pbe_ddec_charge
 _atom_site_pbe_ddec_spin_density
 _atom_site_pbe_ddec_sum_bond_order
 _atom_site_pbe_magmom
Al  Al0  1  0.99994474  0.50012571  0.50003283  1  2.50499  0  0.39875  1.643146  0  2.581001  0
Al  Al1  1  0.49993690  0.50013968  0.50002946  1  2.501688  0  0.396421  1.647927  0  2.586538  0
H  H2  1  0.16648774  0.68372520  0.61085862  1  0.623095  0  0.357884  0.436113  0  0.841632  0
H  H3  1  0.83356331  0.31613772  0.38929154  1  0.623887  0  0.357952  0.436203  0  0.842097  0
H  H4  1  0.65129592  0.35143910  0.23203152  1  0.102241  0  0.106506  0.106543  0  1.005217  0
H  H5  1  0.72213878  0.37008238  0.08768410  1  0.101752  0  0.107155  0.111236  0  1.012906  0
H  H6  1  0.05202311  0.60931337  0.12261852  1  0.093466  0  0.106237  0.112261  0  1.006981  0
H  H7  1  0.94807853  0.39030395  0.87724487  1  0.094809  0  0.106269  0.112283  0  1.006545  0
H  H8  1  0.27800945  0.62989029  0.91235031  1  0.102431  0  0.107153  0.111319  0  1.01312  0
H  H9  1  0.34871501  0.64865700  0.76803766  1  0.103214  0  0.106556  0.106708  0  1.005019  0
H  H10  1  0.80625875  0.67082317  0.24375329  1  0.02644  0  0.088817  0.126885  0  1.000862  0
H  H11  1  0.89302120  0.73721689  0.34825501  1  0.079858  0  0.092521  0.136691  0  1.026789  0
H  H12  1  0.85661541  0.52885712  0.29542630  1  0.063047  0  0.096087  0.139492  0  1.0147  0
H  H13  1  0.14344558  0.47098471  0.70454951  1  0.064544  0  0.09602  0.139464  0  1.014323  0
H  H14  1  0.10697811  0.26264500  0.65160729  1  0.07921  0  0.092698  0.137006  0  1.02704  0
H  H15  1  0.19378593  0.32878677  0.75609446  1  0.025482  0  0.088955  0.12692  0  1.000699  0
H  H16  1  0.73554709  0.14909258  0.51715547  1  0.491395  0  0.304713  0.307119  0  0.986757  0
H  H17  1  0.87445970  0.98763469  0.54520981  1  0.452385  0  0.300987  0.293791  0  0.97887  0
H  H18  1  0.26443643  0.85107399  0.48294449  1  0.491997  0  0.304729  0.306992  0  0.987103  0
H  H19  1  0.12537670  0.01248367  0.45487253  1  0.452951  0  0.300913  0.29372  0  0.979185  0
C  C20  1  0.64126150  0.79963938  0.51840522  1  1.515776  0  0.258893  0.603994  0  4.096129  0
C  C21  1  0.70924961  0.54035660  0.65406220  1  1.547717  0  0.266811  0.649254  0  4.076891  0
C  C22  1  0.35859741  0.20055888  0.48162847  1  1.518625  0  0.258978  0.604434  0  4.094862  0
C  C23  1  0.29067973  0.45984160  0.34598941  1  1.548069  0  0.266496  0.648878  0  4.078152  0
C  C24  1  0.31311310  0.46979777  0.25885022  1  -0.033531  0  -0.012392  -0.110092  0  3.896949  0
C  C25  1  0.52086403  0.40739154  0.20695790  1  -0.008919  0  -0.079482  -0.07123  0  4.002933  0
C  C26  1  0.56128234  0.41765782  0.12722273  1  -0.083543  0  -0.087803  -0.154847  0  3.969999  0
C  C27  1  0.38878190  0.49283528  0.09765391  1  0.312795  0  0.088053  0.180904  0  4.060491  0
C  C28  1  0.18154797  0.55237163  0.14800641  1  -0.007941  0  -0.082384  -0.208501  0  3.901524  0
C  C29  1  0.13777436  0.54469740  0.22934480  1  0.016736  0  0.007372  0.180734  0  3.918553  0
C  C30  1  0.81854127  0.44735655  0.85188863  1  -0.010125  0  -0.082595  -0.208404  0  3.901897  0
C  C31  1  0.61136439  0.50697896  0.90229471  1  0.314655  0  0.088417  0.18092  0  4.060587  0
C  C32  1  0.43883348  0.58227864  0.87277626  1  -0.083338  0  -0.087947  -0.155115  0  3.97034  0
C  C33  1  0.47919129  0.59258850  0.79305606  1  -0.009214  0  -0.079442  -0.071238  0  4.002903  0
C  C34  1  0.68690552  0.53015713  0.74112608  1  -0.03474  0  -0.01239  -0.110427  0  3.897403  0
C  C35  1  0.86227327  0.45511390  0.77057444  1  0.015484  0  0.007138  0.180438  0  3.919253  0
C  C36  1  0.59655248  0.96315841  0.50864712  1  0.490333  0  0.079775  0.045757  0  4.016681  0
C  C37  1  0.40338813  0.03697738  0.49135742  1  0.424259  0  0.079724  0.04568  0  4.01587  0
C  C38  1  0.91130910  0.62379526  0.28159548  1  -0.073942  0  -0.24349  -0.416615  0  3.948217  0
C  C39  1  0.08873209  0.37595569  0.71829373  1  -0.073879  0  -0.243698  -0.416888  0  3.947926  0
N  N40  1  0.40598624  0.51440523  0.01849794  1  -0.481247  0  -0.148407  -0.135658  0  3.27133  0
N  N41  1  0.59418215  0.48539761  0.98144720  1  -0.438098  0  -0.148487  -0.135436  0  3.271406  0
N  N42  1  0.76637679  0.02588574  0.51224433  1  -1.236277  0  -0.597513  -0.590261  0  3.417028  0
N  N43  1  0.23362152  0.97421832  0.48777016  1  -1.238538  0  -0.597324  -0.589754  0  3.41731  0
O  O44  1  0.82712473  0.73734242  0.52937327  1  -1.265544  0  -0.246947  -0.601651  0  2.351891  0
O  O45  1  0.54349731  0.55660103  0.62064883  1  -1.268047  0  -0.24243  -0.610949  0  2.350151  0
O  O46  1  0.50525123  0.27107704  0.48460913  1  -1.262518  0  -0.239897  -0.597739  0  2.401038  0
O  O47  1  0.11038166  0.46899191  0.38240191  1  -1.265101  0  -0.231337  -0.587709  0  2.367656  0
O  O48  1  0.17269952  0.26285117  0.47070149  1  -1.265851  0  -0.247163  -0.601995  0  2.351332  0
O  O49  1  0.45636376  0.44384848  0.37943120  1  -1.268669  0  -0.242012  -0.610858  0  2.351648  0
O  O50  1  0.49458964  0.72914510  0.51542373  1  -1.261138  0  -0.239971  -0.597405  0  2.40143  0
O  O51  1  0.88960011  0.53117070  0.61764894  1  -1.265026  0  -0.23154  -0.58805  0  2.367415  0
O  O52  1  0.20839235  0.59475024  0.54751096  1  -1.423789  0  -0.447058  -0.990783  0  2.199632  0
O  O53  1  0.79149607  0.40547952  0.45255588  1  -1.424315  0  -0.447269  -0.991207  0  2.200569  0
