# generated using pymatgen
data_Zn4H6C24Cl6O13
_symmetry_space_group_name_H-M   'P 1'
_cell_length_a   18.15157726
_cell_length_b   18.24217381
_cell_length_c   18.23171736
_cell_angle_alpha   61.50918065
_cell_angle_beta   61.39084308
_cell_angle_gamma   61.29807906
_symmetry_Int_Tables_number   1
_chemical_formula_structural   Zn4H6C24Cl6O13
_chemical_formula_sum   'Zn8 H12 C48 Cl12 O26'
_cell_volume   4402.93491555
_cell_formula_units_Z   2
loop_
 _symmetry_equiv_pos_site_id
 _symmetry_equiv_pos_as_xyz
  1  'x, y, z'
loop_
 _atom_site_type_symbol
 _atom_site_label
 _atom_site_symmetry_multiplicity
 _atom_site_fract_x
 _atom_site_fract_y
 _atom_site_fract_z
 _atom_site_occupancy
 _atom_site_pbe_bader_charge
 _atom_site_pbe_bader_spin_density
 _atom_site_pbe_cm5_charge
 _atom_site_pbe_ddec_charge
 _atom_site_pbe_ddec_spin_density
 _atom_site_pbe_ddec_sum_bond_order
 _atom_site_pbe_magmom
Zn  Zn0  1  0.94885111  0.14466979  0.94196219  1  1.293834  0  0.673512  0.967981  0  2.356876  0
Zn  Zn1  1  0.95017899  0.96977627  0.93492249  1  1.321324  0  0.676385  0.978145  0  2.32191  0
Zn  Zn2  1  0.94358540  0.97429718  0.11269346  1  1.302741  0  0.67359  0.967958  0  2.360304  0
Zn  Zn3  1  0.12186927  0.97223317  0.94391511  1  1.313294  0  0.674717  0.971413  0  2.347719  0
Zn  Zn4  1  0.53329780  0.38605508  0.52648117  1  1.317115  0  0.673668  0.96863  0  2.358704  0
Zn  Zn5  1  0.54086168  0.56020299  0.52340012  1  1.318152  0  0.676044  0.97634  0  2.325432  0
Zn  Zn6  1  0.36019397  0.55742240  0.52967208  1  1.313297  0  0.674829  0.970958  0  2.350647  0
Zn  Zn7  1  0.52820975  0.55839693  0.35406542  1  1.32037  0  0.674072  0.969119  0  2.356519  0
H  H8  1  0.67731478  0.21134802  0.89167135  1  0.088186  0  0.115448  0.132799  0  0.972588  0
H  H9  1  0.81520061  0.32170708  0.56619076  1  0.115867  0  0.115591  0.133405  0  0.970912  0
H  H10  1  0.89989290  0.21903741  0.19019885  1  0.069461  0  0.115994  0.133088  0  0.971054  0
H  H11  1  0.57127881  0.31490273  0.27591196  1  0.076706  0  0.116266  0.133772  0  0.971422  0
H  H12  1  0.19109894  0.20996722  0.66888217  1  0.104596  0  0.115054  0.132956  0  0.972888  0
H  H13  1  0.29187613  0.31908825  0.79676045  1  0.083018  0  0.115791  0.133532  0  0.972997  0
H  H14  1  0.67176429  0.92980735  0.18013495  1  0.075487  0  0.115256  0.132483  0  0.971806  0
H  H15  1  0.80772309  0.60303980  0.27055337  1  0.111252  0  0.115201  0.132103  0  0.972535  0
H  H16  1  0.19439889  0.69415429  0.89954115  1  0.078338  0  0.115654  0.133492  0  0.972583  0
H  H17  1  0.30669966  0.82798960  0.57370862  1  0.10215  0  0.115526  0.133263  0  0.972407  0
H  H18  1  0.19562824  0.93048107  0.19132519  1  0.084086  0  0.115886  0.13341  0  0.9708  0
H  H19  1  0.26795262  0.60504567  0.29165118  1  0.097813  0  0.11614  0.134329  0  0.970727  0
C  C20  1  0.85677497  0.15086427  0.84155335  1  1.623141  0  0.232288  0.624895  0  4.180405  0
C  C21  1  0.80005367  0.20947521  0.78264425  1  0.022924  0  -0.010793  -0.057109  0  3.947906  0
C  C22  1  0.70776038  0.23481678  0.82038017  1  0.025547  0  -0.082904  -0.152438  0  3.95075  0
C  C23  1  0.65427795  0.29057690  0.76681591  1  0.054993  0  0.018853  0.129082  0  4.037179  0
C  C24  1  0.69236974  0.32206986  0.67509217  1  0.041156  0  -0.010811  -0.058574  0  3.947341  0
C  C25  1  0.78467413  0.29739180  0.63741108  1  0.054035  0  -0.082398  -0.151512  0  3.947516  0
C  C26  1  0.83815176  0.24110279  0.69099512  1  0.075366  0  0.018275  0.127463  0  4.037748  0
C  C27  1  0.63489683  0.38001539  0.61689788  1  1.56007  0  0.231791  0.625335  0  4.178568  0
C  C28  1  0.84875372  0.15510691  0.12176549  1  1.623891  0  0.230593  0.621259  0  4.186731  0
C  C29  1  0.78962988  0.21289761  0.17941616  1  0.004329  0  -0.010847  -0.058747  0  3.953306  0
C  C30  1  0.82796850  0.23945977  0.20916345  1  0.041789  0  -0.082253  -0.150328  0  3.949279  0
C  C31  1  0.77410708  0.29239136  0.26331075  1  0.063011  0  0.018546  0.128118  0  4.040902  0
C  C32  1  0.68159383  0.31979107  0.28774584  1  0.08955  0  -0.010148  -0.058101  0  3.955859  0
C  C33  1  0.64321368  0.29370114  0.25760916  1  0.099079  0  -0.082375  -0.150712  0  3.949064  0
C  C34  1  0.69707057  0.24023957  0.20392959  1  0.02715  0  0.018662  0.128336  0  4.039281  0
C  C35  1  0.62329090  0.37718953  0.34577578  1  1.610507  0  0.230214  0.621486  0  4.188217  0
C  C36  1  0.13075588  0.15254135  0.84765941  1  1.623034  0  0.231978  0.625192  0  4.179909  0
C  C37  1  0.18838126  0.21021520  0.78853863  1  -0.01516  0  -0.010121  -0.056835  0  3.950922  0
C  C38  1  0.21314225  0.23363861  0.69713373  1  0.052924  0  -0.082558  -0.151937  0  3.946889  0
C  C39  1  0.26599426  0.28772829  0.64182881  1  0.063709  0  0.018858  0.129756  0  4.037178  0
C  C40  1  0.29461396  0.31881037  0.67716952  1  -0.002438  0  -0.010077  -0.058733  0  3.954414  0
C  C41  1  0.26984947  0.29534355  0.76857859  1  0.127498  0  -0.082195  -0.150435  0  3.948758  0
C  C42  1  0.21695262  0.24136343  0.82386647  1  0.058695  0  0.018815  0.128414  0  4.038926  0
C  C43  1  0.35202072  0.37672292  0.61898910  1  1.59654  0  0.231022  0.622653  0  4.184983  0
C  C44  1  0.85143795  0.87787119  0.11323691  1  1.609888  0  0.231846  0.62435  0  4.180742  0
C  C45  1  0.79392814  0.81981590  0.16956325  1  0.042039  0  -0.010726  -0.058841  0  3.950815  0
C  C46  1  0.70180601  0.85827110  0.19918899  1  0.073151  0  -0.082707  -0.150437  0  3.947837  0
C  C47  1  0.64797165  0.80509780  0.25382933  1  0.056217  0  0.018651  0.127875  0  4.03803  0
C  C48  1  0.68551166  0.71303477  0.28009067  1  0.060166  0  -0.01034  -0.058076  0  3.949491  0
C  C49  1  0.77763180  0.67458542  0.25049875  1  0.033956  0  -0.082728  -0.150159  0  3.94749  0
C  C50  1  0.83143827  0.72774306  0.19534978  1  0.016717  0  0.018742  0.127727  0  4.038589  0
C  C51  1  0.62824655  0.65491225  0.34006645  1  1.577981  0  0.23213  0.624766  0  4.181529  0
C  C52  1  0.13405304  0.87326039  0.84762513  1  1.602347  0  0.231725  0.623509  0  4.180105  0
C  C53  1  0.19400125  0.81543635  0.78991896  1  0.025635  0  -0.009782  -0.056968  0  3.947306  0
C  C54  1  0.21847423  0.72378342  0.82819781  1  0.069557  0  -0.082943  -0.151371  0  3.946998  0
C  C55  1  0.27379182  0.66985503  0.77502321  1  0.039209  0  0.018842  0.128903  0  4.034409  0
C  C56  1  0.30560837  0.70683015  0.68324511  1  0.088513  0  -0.010441  -0.059089  0  3.951326  0
C  C57  1  0.28211780  0.79844834  0.64502127  1  0.019765  0  -0.082265  -0.150758  0  3.947916  0
C  C58  1  0.22634703  0.85238337  0.69814006  1  0.061703  0  0.018413  0.127638  0  4.036168  0
C  C59  1  0.36199554  0.64975172  0.62472155  1  1.578606  0  0.232337  0.626429  0  4.175221  0
C  C60  1  0.12278021  0.88286481  0.12760671  1  1.615677  0  0.231413  0.62424  0  4.181595  0
C  C61  1  0.17837453  0.82328363  0.18735655  1  0.047145  0  -0.010083  -0.058467  0  3.955422  0
C  C62  1  0.21089134  0.85931514  0.21349514  1  0.10318  0  -0.082967  -0.150955  0  3.950665  0
C  C63  1  0.26343623  0.80397767  0.26803522  1  -0.002879  0  0.01798  0.126847  0  4.036131  0
C  C64  1  0.28453635  0.71229677  0.29633400  1  0.05489  0  -0.009786  -0.057147  0  3.951445  0
C  C65  1  0.25185824  0.67627269  0.27031284  1  0.084737  0  -0.082724  -0.151804  0  3.948862  0
C  C66  1  0.19873043  0.73165568  0.21633651  1  0.005031  0  0.018369  0.127938  0  4.036575  0
C  C67  1  0.34385202  0.65256058  0.35244032  1  1.617741  0  0.231686  0.62373  0  4.185399  0
Cl  Cl68  1  0.54001944  0.32176472  0.81469596  1  -0.196976  0  -0.015459  -0.086736  0  1.432543  0
Cl  Cl69  1  0.95245159  0.21062554  0.64347876  1  -0.195548  0  -0.015595  -0.086807  0  1.424275  0
Cl  Cl70  1  0.82246710  0.32502222  0.29958054  1  -0.209186  0  -0.016416  -0.087526  0  1.414829  0
Cl  Cl71  1  0.64872417  0.20809922  0.16716920  1  -0.203812  0  -0.016251  -0.087093  0  1.412239  0
Cl  Cl72  1  0.29607402  0.31648033  0.52862498  1  -0.206946  0  -0.018338  -0.089326  0  1.408871  0
Cl  Cl73  1  0.18688182  0.21265346  0.93705923  1  -0.214207  0  -0.017147  -0.087829  0  1.410852  0
Cl  Cl74  1  0.53389278  0.85363507  0.28973202  1  -0.197548  0  -0.015767  -0.086879  0  1.436253  0
Cl  Cl75  1  0.94555526  0.67913612  0.16012193  1  -0.198248  0  -0.015456  -0.085947  0  1.435107  0
Cl  Cl76  1  0.30369288  0.55635537  0.82345396  1  -0.207796  0  -0.016991  -0.088404  0  1.426058  0
Cl  Cl77  1  0.19688607  0.96585075  0.64979502  1  -0.194686  0  -0.015356  -0.086479  0  1.424135  0
Cl  Cl78  1  0.30370065  0.84925287  0.29987031  1  -0.203523  0  -0.015304  -0.086826  0  1.436035  0
Cl  Cl79  1  0.15875332  0.68642138  0.18416195  1  -0.204308  0  -0.016032  -0.088331  0  1.436622  0
O  O80  1  0.99113304  0.01478386  0.98303321  1  -1.205704  0  -0.569819  -1.036223  0  2.515149  0
O  O81  1  0.87825319  0.06814424  0.86059902  1  -1.157042  0  -0.305512  -0.532169  0  2.305931  0
O  O82  1  0.87601363  0.19083251  0.86762025  1  -1.162857  0  -0.306906  -0.533214  0  2.321687  0
O  O83  1  0.62112016  0.46245451  0.58948017  1  -1.147503  0  -0.305932  -0.532711  0  2.3011  0
O  O84  1  0.60660023  0.33989372  0.60026399  1  -1.144483  0  -0.306062  -0.533615  0  2.327399  0
O  O85  1  0.86753072  0.07250118  0.16138727  1  -1.148845  0  -0.305599  -0.531191  0  2.316898  0
O  O86  1  0.87525473  0.19452675  0.03938941  1  -1.164447  0  -0.304989  -0.529473  0  2.31249  0
O  O87  1  0.59714082  0.45959288  0.30622470  1  -1.164091  0  -0.306379  -0.530817  0  2.314001  0
O  O88  1  0.60556699  0.33746626  0.42829589  1  -1.161433  0  -0.305444  -0.531237  0  2.322354  0
O  O89  1  0.17077707  0.06982447  0.86779314  1  -1.157223  0  -0.305667  -0.532579  0  2.313541  0
O  O90  1  0.04761530  0.19254314  0.87053317  1  -1.152254  0  -0.305988  -0.532646  0  2.318468  0
O  O91  1  0.31162189  0.45936183  0.59820879  1  -1.150365  0  -0.305162  -0.531095  0  2.314322  0
O  O92  1  0.43527934  0.33709500  0.59809609  1  -1.151362  0  -0.305088  -0.529731  0  2.315724  0
O  O93  1  0.86964432  0.90242850  0.15539725  1  -1.159715  0  -0.305281  -0.52942  0  2.31889  0
O  O94  1  0.87483871  0.89760014  0.03017744  1  -1.139276  0  -0.30648  -0.535113  0  2.308828  0
O  O95  1  0.60241919  0.63261223  0.30241634  1  -1.15971  0  -0.305405  -0.53142  0  2.317298  0
O  O96  1  0.61269205  0.63283803  0.42220415  1  -1.144575  0  -0.306285  -0.53395  0  2.310818  0
O  O97  1  0.17254307  0.89334271  0.87467818  1  -1.153854  0  -0.305185  -0.53087  0  2.316233  0
O  O98  1  0.05114797  0.89536004  0.86436343  1  -1.145442  0  -0.305209  -0.532489  0  2.309721  0
O  O99  1  0.31951985  0.62472209  0.60733231  1  -1.1638  0  -0.30689  -0.534682  0  2.325524  0
O  O100  1  0.44537365  0.63366062  0.59740817  1  -1.140642  0  -0.304677  -0.530956  0  2.302186  0
O  O101  1  0.16518927  0.90594460  0.04559154  1  -1.162327  0  -0.306087  -0.532038  0  2.312656  0
O  O102  1  0.03920708  0.90471063  0.16510379  1  -1.157881  0  -0.305864  -0.531138  0  2.319617  0
O  O103  1  0.30620463  0.63354675  0.43540881  1  -1.157246  0  -0.304595  -0.529918  0  2.3139  0
O  O104  1  0.42622368  0.62645084  0.31062532  1  -1.164081  0  -0.306654  -0.532345  0  2.317274  0
O  O105  1  0.49087057  0.51592308  0.48374831  1  -1.240451  0  -0.570413  -1.036355  0  2.516512  0
