# generated using pymatgen
data_LaH12C21NO6
_symmetry_space_group_name_H-M   'P 1'
_cell_length_a   13.02371438
_cell_length_b   14.74747924
_cell_length_c   14.74744238
_cell_angle_alpha   111.72593552
_cell_angle_beta   107.11419794
_cell_angle_gamma   107.11429999
_symmetry_Int_Tables_number   1
_chemical_formula_structural   LaH12C21NO6
_chemical_formula_sum   'La3 H36 C63 N3 O18'
_cell_volume   2240.47497004
_cell_formula_units_Z   3
loop_
 _symmetry_equiv_pos_site_id
 _symmetry_equiv_pos_as_xyz
  1  'x, y, z'
loop_
 _atom_site_type_symbol
 _atom_site_label
 _atom_site_symmetry_multiplicity
 _atom_site_fract_x
 _atom_site_fract_y
 _atom_site_fract_z
 _atom_site_occupancy
 _atom_site_pbe_bader_charge
 _atom_site_pbe_bader_spin_density
 _atom_site_pbe_cm5_charge
 _atom_site_pbe_ddec_charge
 _atom_site_pbe_ddec_spin_density
 _atom_site_pbe_ddec_sum_bond_order
 _atom_site_pbe_magmom
La  La0  1  0.82355024  0.32354362  0.64710825  1  2.240361  0  1.463108  1.902264  0  2.376898  0
La  La1  1  0.17644979  0.35289071  0.67645612  1  2.240369  0  1.463085  1.902224  0  2.376939  0
La  La2  1  0.50000155  0.32353901  0.67645925  1  2.239454  0  1.463781  1.902716  0  2.376518  0
H  H3  1  0.65484523  0.47968735  0.30087067  1  0.082992  0  0.105522  0.116229  0  0.996658  0
H  H4  1  0.35391774  0.69918788  0.17881753  1  0.077091  0  0.10547  0.115911  0  0.997397  0
H  H5  1  0.17527154  0.82121940  0.52042887  1  0.059576  0  0.105412  0.115989  0  0.997047  0
H  H6  1  0.64607981  0.82118010  0.30081101  1  0.077064  0  0.105462  0.115921  0  0.99733  0
H  H7  1  0.82473191  0.47957349  0.17878236  1  0.059701  0  0.105414  0.116003  0  0.997017  0
H  H8  1  0.34515383  0.69913030  0.52031300  1  0.082999  0  0.105509  0.116219  0  0.996664  0
H  H9  1  0.64166740  0.37927554  0.40320962  1  0.079926  0  0.113227  0.112121  0  0.984373  0
H  H10  1  0.23846369  0.59680761  0.97604513  1  0.082117  0  0.112781  0.111896  0  0.983717  0
H  H11  1  0.26250839  0.02397939  0.62071849  1  0.083857  0  0.113531  0.112898  0  0.983599  0
H  H12  1  0.76153344  0.02395263  0.40319136  1  0.082123  0  0.112809  0.111966  0  0.983678  0
H  H13  1  0.73749476  0.37928332  0.97602209  1  0.083795  0  0.113555  0.112952  0  0.983588  0
H  H14  1  0.35833238  0.59679156  0.62072544  1  0.079883  0  0.113218  0.112059  0  0.984386  0
H  H15  1  0.66850385  0.65484273  0.66670265  1  0.072819  0  0.111566  0.118421  0  0.982927  0
H  H16  1  0.00183684  0.33338303  0.98816929  1  0.1077  0  0.111528  0.118192  0  0.982657  0
H  H17  1  0.01369199  0.01176167  0.34513680  1  0.088536  0  0.111243  0.117279  0  0.982222  0
H  H18  1  0.99816443  0.01182982  0.66661449  1  0.107715  0  0.111549  0.118208  0  0.982733  0
H  H19  1  0.98630937  0.65486402  0.98823861  1  0.088516  0  0.111263  0.117275  0  0.982286  0
H  H20  1  0.33149515  0.33329901  0.34515805  1  0.072626  0  0.111572  0.118448  0  0.982971  0
H  H21  1  0.68824914  0.75872905  0.56924731  1  0.075809  0  0.105978  0.114961  0  1.012249  0
H  H22  1  0.11916216  0.43078251  0.18948798  1  0.068033  0  0.105832  0.115187  0  1.012217  0
H  H23  1  0.92968680  0.81043719  0.24136014  1  0.034633  0  0.105899  0.11467  0  1.012468  0
H  H24  1  0.88083996  0.81051212  0.56921808  1  0.068095  0  0.105852  0.115198  0  1.01222  0
H  H25  1  0.07031506  0.75864143  0.18956336  1  0.034576  0  0.10592  0.114655  0  1.012525  0
H  H26  1  0.31175150  0.43075335  0.24127200  1  0.075821  0  0.105976  0.114992  0  1.012236  0
H  H27  1  0.45556201  0.53825297  0.24236711  1  0.077557  0  0.100134  0.103338  0  1.058557  0
H  H28  1  0.21325938  0.75761083  0.29597565  1  0.07496  0  0.100625  0.104504  0  1.057897  0
H  H29  1  0.91725528  0.70403543  0.46167858  1  0.057184  0  0.100366  0.103854  0  1.059462  0
H  H30  1  0.78674077  0.70402324  0.24238830  1  0.074952  0  0.100622  0.104505  0  1.057893  0
H  H31  1  0.08274687  0.53832256  0.29596365  1  0.057145  0  0.100379  0.103821  0  1.059472  0
H  H32  1  0.54443746  0.75763355  0.46174734  1  0.077606  0  0.100122  0.103351  0  1.05857  0
H  H33  1  0.35152664  0.43939381  0.03783161  1  0.133695  0  0.1074  0.109854  0  1.004353  0
H  H34  1  0.31372226  0.96214341  0.40153052  1  0.101216  0  0.107153  0.109708  0  1.004355  0
H  H35  1  0.91203356  0.59836194  0.56056364  1  0.078703  0  0.107939  0.110748  0  1.004454  0
H  H36  1  0.68627635  0.59846682  0.03785457  1  0.101201  0  0.107153  0.109733  0  1.004323  0
H  H37  1  0.08796804  0.43943582  0.40163614  1  0.078477  0  0.107952  0.110735  0  1.004479  0
H  H38  1  0.64847190  0.96216772  0.56060534  1  0.133712  0  0.107412  0.109866  0  1.00431  0
C  C39  1  0.67348571  0.62688999  0.42774188  1  0.290669  0  0.099214  0.188185  0  4.014069  0
C  C40  1  0.24580627  0.57229750  0.19914626  1  0.314497  0  0.099623  0.1885  0  4.014145  0
C  C41  1  0.04675057  0.80082725  0.37317065  1  0.30197  0  0.099436  0.187289  0  4.014474  0
C  C42  1  0.75419518  0.80085311  0.42770224  1  0.314614  0  0.099679  0.188612  0  4.014465  0
C  C43  1  0.95325179  0.62683168  0.19917435  1  0.301906  0  0.099465  0.187265  0  4.014625  0
C  C44  1  0.32651343  0.57225769  0.37311014  1  0.290662  0  0.099212  0.188216  0  4.014163  0
C  C45  1  0.65816059  0.51849004  0.38118421  1  -0.051886  0  -0.096379  -0.18143  0  3.987791  0
C  C46  1  0.27693145  0.61887996  0.13728822  1  0.021414  0  -0.096347  -0.181159  0  3.988658  0
C  C47  1  0.13982141  0.86270272  0.48157335  1  -0.052299  0  -0.09628  -0.181464  0  3.988651  0
C  C48  1  0.72306955  0.86271220  0.38112183  1  0.021392  0  -0.096373  -0.181227  0  3.988759  0
C  C49  1  0.86018275  0.51842884  0.13729960  1  -0.052244  0  -0.096341  -0.181554  0  3.988724  0
C  C50  1  0.34183949  0.61881637  0.48151154  1  -0.051934  0  -0.096378  -0.181479  0  3.987859  0
C  C51  1  0.65075793  0.46216536  0.43837847  1  0.064606  0  -0.071722  -0.060115  0  3.973357  0
C  C52  1  0.21235761  0.56167002  0.02376911  1  -0.002064  0  -0.071509  -0.058913  0  3.972127  0
C  C53  1  0.18874190  0.97623764  0.53782468  1  0.052148  0  -0.071881  -0.060104  0  3.972406  0
C  C54  1  0.78764306  0.97623195  0.43833100  1  -0.002103  0  -0.071595  -0.05907  0  3.9723  0
C  C55  1  0.81126100  0.46217780  0.02376543  1  0.052028  0  -0.071838  -0.060067  0  3.972375  0
C  C56  1  0.34924285  0.56162191  0.53783357  1  0.064628  0  -0.071695  -0.059985  0  3.973441  0
C  C57  1  0.65610290  0.51127992  0.54232398  1  -0.055826  0  -0.020954  -0.059946  0  3.995461  0
C  C58  1  0.11371255  0.45775139  0.96893942  1  -0.02654  0  -0.021472  -0.062906  0  3.998237  0
C  C59  1  0.14495381  0.03108573  0.48872279  1  0.029484  0  -0.021764  -0.062172  0  3.995498  0
C  C60  1  0.88628545  0.03105948  0.54224638  1  -0.026062  0  -0.021476  -0.062942  0  3.998229  0
C  C61  1  0.85504750  0.51127824  0.96891466  1  0.029591  0  -0.021779  -0.062242  0  3.995482  0
C  C62  1  0.34389853  0.45767953  0.48872239  1  -0.055944  0  -0.020972  -0.059943  0  3.995571  0
C  C63  1  0.66783721  0.61800457  0.58732997  1  -0.006367  0  -0.077291  -0.065255  0  3.984192  0
C  C64  1  0.08051233  0.41275367  0.03068495  1  -0.04984  0  -0.076821  -0.062637  0  3.983059  0
C  C65  1  0.04995343  0.96929690  0.38200662  1  -0.003467  0  -0.076264  -0.061157  0  3.97911  0
C  C66  1  0.91948996  0.96931344  0.58724473  1  -0.050276  0  -0.076817  -0.062571  0  3.982918  0
C  C67  1  0.95004819  0.61799404  0.03070323  1  -0.003482  0  -0.076308  -0.061128  0  3.979218  0
C  C68  1  0.33216464  0.41267325  0.38199725  1  -0.006109  0  -0.07728  -0.065293  0  3.984335  0
C  C69  1  0.67722628  0.67538119  0.53165373  1  -0.016552  0  -0.100044  -0.191445  0  4.011542  0
C  C70  1  0.14569645  0.46837162  0.14372530  1  -0.033317  0  -0.100462  -0.19369  0  4.012699  0
C  C71  1  0.00205241  0.85624600  0.32466575  1  -0.058916  0  -0.100655  -0.192909  0  4.010218  0
C  C72  1  0.85430337  0.85627235  0.53162545  1  -0.033499  0  -0.100478  -0.193747  0  4.012856  0
C  C73  1  0.99794859  0.67533561  0.14375401  1  -0.059101  0  -0.100654  -0.192863  0  4.010282  0
C  C74  1  0.32277462  0.46834800  0.32462004  1  -0.016578  0  -0.100055  -0.191478  0  4.011676  0
C  C75  1  0.64397298  0.45208679  0.60358716  1  1.501657  0  0.21182  0.593729  0  4.200153  0
C  C76  1  0.04036100  0.39641890  0.84850254  1  1.502331  0  0.211881  0.594243  0  4.202305  0
C  C77  1  0.19196625  0.15152529  0.54790519  1  1.501404  0  0.212015  0.594504  0  4.201129  0
C  C78  1  0.95963839  0.15149617  0.60358226  1  1.502801  0  0.211928  0.594292  0  4.202482  0
C  C79  1  0.80803491  0.45209501  0.84847459  1  1.501259  0  0.212016  0.594581  0  4.201066  0
C  C80  1  0.35603220  0.39641709  0.54791637  1  1.501734  0  0.21184  0.593739  0  4.200065  0
C  C81  1  0.62722821  0.62723747  0.25455040  1  0.269339  0  0.09142  0.179616  0  4.031016  0
C  C82  1  0.37277024  0.74544946  0.37276173  1  0.269369  0  0.091425  0.179615  0  4.030953  0
C  C83  1  0.99999786  0.62723959  0.37275846  1  0.311004  0  0.091057  0.178694  0  4.03247  0
C  C84  1  0.50493603  0.55152256  0.19681572  1  0.00725  0  -0.096741  -0.173866  0  3.995185  0
C  C85  1  0.30820621  0.80317057  0.35473444  1  0.065998  0  -0.097246  -0.176033  0  3.994379  0
C  C86  1  0.95340264  0.64523674  0.44846245  1  0.032276  0  -0.096315  -0.173677  0  3.997274  0
C  C87  1  0.69179295  0.64526488  0.19682966  1  0.065831  0  -0.097224  -0.176025  0  3.994429  0
C  C88  1  0.04659752  0.55153681  0.35476193  1  0.032295  0  -0.096313  -0.173616  0  3.9972  0
C  C89  1  0.49506458  0.80318472  0.44847832  1  0.007271  0  -0.09676  -0.173917  0  3.995204  0
C  C90  1  0.44756133  0.49578098  0.08293052  1  -0.074306  0  -0.080516  -0.074467  0  3.977643  0
C  C91  1  0.36466643  0.91705812  0.41283185  1  -0.062333  0  -0.080711  -0.074296  0  3.977421  0
C  C92  1  0.95172452  0.58709425  0.50420495  1  -0.023156  0  -0.081446  -0.07661  0  3.980051  0
C  C93  1  0.63533175  0.58716611  0.08294135  1  -0.06209  0  -0.080752  -0.074368  0  3.977586  0
C  C94  1  0.04827522  0.49579396  0.41290357  1  -0.022906  0  -0.081488  -0.076608  0  3.980034  0
C  C95  1  0.55243698  0.91706954  0.50421870  1  -0.074318  0  -0.080499  -0.074428  0  3.977595  0
C  C96  1  0.51244002  0.51249746  0.02490594  1  -0.061615  0  -0.019045  -0.053471  0  3.972249  0
C  C97  1  0.48755983  0.97509393  0.48750116  1  -0.061593  0  -0.019073  -0.053537  0  3.97214  0
C  C98  1  0.00000018  0.51245161  0.48754823  1  -0.034666  0  -0.018862  -0.051257  0  3.96974  0
C  C99  1  0.45128897  0.45133743  0.90257724  1  1.535118  0  0.24479  0.649715  0  4.157435  0
C  C100  1  0.54870874  0.09742146  0.54865936  1  1.5351  0  0.244891  0.649875  0  4.157254  0
C  C101  1  0.99999963  0.45127705  0.54872041  1  1.538669  0  0.24422  0.647753  0  4.158728  0
N  N102  1  0.68565764  0.68570992  0.37140052  1  -1.20889  0  -0.249145  -0.15515  0  3.660967  0
N  N103  1  0.31434316  0.62859863  0.31428982  1  -1.208872  0  -0.24915  -0.155159  0  3.660999  0
N  N104  1  0.00000068  0.68567218  0.31432787  1  -1.205353  0  -0.249181  -0.153285  0  3.659109  0
O  O105  1  0.62151806  0.49100804  0.68436047  1  -1.176935  0  -0.384502  -0.592381  0  2.179633  0
O  O106  1  0.93717127  0.31559931  0.80662284  1  -1.175411  0  -0.384708  -0.592716  0  2.18035  0
O  O107  1  0.13059723  0.19338275  0.50897603  1  -1.182967  0  -0.384898  -0.593202  0  2.18031  0
O  O108  1  0.06282629  0.19337527  0.68440040  1  -1.175989  0  -0.384722  -0.592706  0  2.180441  0
O  O109  1  0.86940299  0.49102433  0.80661589  1  -1.182832  0  -0.384903  -0.593228  0  2.180313  0
O  O110  1  0.37848942  0.31564545  0.50899493  1  -1.177019  0  -0.384501  -0.592382  0  2.179652  0
O  O111  1  0.65045288  0.36055809  0.57223186  1  -1.214762  0  -0.397135  -0.685545  0  2.261039  0
O  O112  1  0.07816304  0.42772265  0.78828315  1  -1.216675  0  -0.397416  -0.685591  0  2.261551  0
O  O113  1  0.28992692  0.21174559  0.63947775  1  -1.215863  0  -0.397685  -0.686407  0  2.262729  0
O  O114  1  0.92183607  0.21171523  0.57227578  1  -1.216407  0  -0.397442  -0.685625  0  2.261653  0
O  O115  1  0.71007559  0.36052194  0.78825576  1  -1.215838  0  -0.397677  -0.686429  0  2.262689  0
O  O116  1  0.34955074  0.42777002  0.63944497  1  -1.214797  0  -0.397128  -0.685571  0  2.26095  0
O  O117  1  0.51289766  0.42479926  0.85398139  1  -1.206474  0  -0.394517  -0.632659  0  2.232621  0
O  O118  1  0.65890591  0.14600251  0.57070675  1  -1.207356  0  -0.394744  -0.632994  0  2.231174  0
O  O119  1  0.08806096  0.42910829  0.57512085  1  -1.20763  0  -0.393821  -0.631767  0  2.232503  0
O  O120  1  0.34109178  0.42928797  0.85399753  1  -1.207391  0  -0.394694  -0.632909  0  2.231295  0
O  O121  1  0.91193805  0.42487625  0.57088907  1  -1.207576  0  -0.393836  -0.631801  0  2.232452  0
O  O122  1  0.48710057  0.14601659  0.57519922  1  -1.206486  0  -0.394575  -0.632716  0  2.232598  0
