# generated using pymatgen
data_ZnH12C18N2O3
_symmetry_space_group_name_H-M   'P 1'
_cell_length_a   5.18582184
_cell_length_b   18.80506973
_cell_length_c   18.79249345
_cell_angle_alpha   88.86862655
_cell_angle_beta   82.04511161
_cell_angle_gamma   82.07497522
_symmetry_Int_Tables_number   1
_chemical_formula_structural   ZnH12C18N2O3
_chemical_formula_sum   'Zn4 H48 C72 N8 O12'
_cell_volume   1797.66933047
_cell_formula_units_Z   4
loop_
 _symmetry_equiv_pos_site_id
 _symmetry_equiv_pos_as_xyz
  1  'x, y, z'
loop_
 _atom_site_type_symbol
 _atom_site_label
 _atom_site_symmetry_multiplicity
 _atom_site_fract_x
 _atom_site_fract_y
 _atom_site_fract_z
 _atom_site_occupancy
 _atom_site_pbe_bader_charge
 _atom_site_pbe_bader_spin_density
 _atom_site_pbe_cm5_charge
 _atom_site_pbe_ddec_charge
 _atom_site_pbe_ddec_spin_density
 _atom_site_pbe_ddec_sum_bond_order
 _atom_site_pbe_magmom
Zn  Zn0  1  0.86670805  0.05959926  0.48931757  1  1.271593  0  0.653855  0.905832  0  2.411151  0
Zn  Zn1  1  0.41631445  0.94023035  0.51062142  1  1.271397  0  0.653993  0.905793  0  2.409586  0
Zn  Zn2  1  0.07848032  0.51060535  0.06001895  1  1.271063  0  0.654068  0.906027  0  2.409388  0
Zn  Zn3  1  0.64933924  0.48918080  0.94039069  1  1.272485  0  0.653394  0.905002  0  2.408341  0
H  H4  1  0.07974417  0.15359867  0.15851420  1  0.11277  0  0.102411  0.110983  0  1.061968  0
H  H5  1  0.46771409  0.09264224  0.08447543  1  0.062264  0  0.096642  0.101191  0  1.03249  0
H  H6  1  0.73249878  0.95200070  0.29705103  1  0.075771  0  0.104178  0.110759  0  1.017115  0
H  H7  1  0.69387448  0.35386173  0.12669363  1  0.096058  0  0.106684  0.107462  0  1.026877  0
H  H8  1  0.03551607  0.34824004  0.29053749  1  0.137987  0  0.10946  0.116169  0  0.989878  0
H  H9  1  0.55686449  0.19386365  0.40981609  1  0.173732  0  0.154341  0.122845  0  0.960893  0
H  H10  1  0.01370394  0.93658071  0.17839693  1  0.093041  0  0.098274  0.096452  0  1.0209  0
H  H11  1  0.33621737  0.00751298  0.37268443  1  0.103438  0  0.111691  0.130289  0  1.025449  0
H  H12  1  0.94226756  0.25189158  0.18332209  1  0.069217  0  0.103271  0.106743  0  1.050392  0
H  H13  1  0.27003709  0.24113726  0.34527783  1  0.057382  0  0.10635  0.113555  0  1.007516  0
H  H14  1  0.87676158  0.00653303  0.07263214  1  0.047997  0  0.092296  0.08263  0  1.047251  0
H  H15  1  0.39207891  0.84641341  0.84159417  1  0.074177  0  0.102389  0.111057  0  1.062562  0
H  H16  1  0.64503516  0.90732823  0.91554731  1  0.099886  0  0.096315  0.100154  0  1.033585  0
H  H17  1  0.98223820  0.04800981  0.70292898  1  0.074644  0  0.104151  0.110806  0  1.01734  0
H  H18  1  0.17650067  0.64585778  0.87336222  1  0.087056  0  0.106191  0.106054  0  1.028015  0
H  H19  1  0.67506319  0.65162719  0.70991708  1  0.129518  0  0.1098  0.117727  0  0.988885  0
H  H20  1  0.16018872  0.80631667  0.59040113  1  0.16033  0  0.154191  0.122305  0  0.961142  0
H  H21  1  0.12965096  0.06326059  0.82153197  1  0.064798  0  0.09862  0.096735  0  1.020516  0
H  H22  1  0.71691310  0.99249837  0.62733789  1  0.109364  0  0.11143  0.129258  0  1.026652  0
H  H23  1  0.37926052  0.74784404  0.81655362  1  0.081683  0  0.103163  0.105592  0  1.050526  0
H  H24  1  0.85630946  0.75885291  0.65518479  1  0.088678  0  0.106392  0.11305  0  1.007458  0
H  H25  1  0.95675691  0.99327116  0.92729350  1  0.040713  0  0.09285  0.082323  0  1.046482  0
H  H26  1  0.76665496  0.84093338  0.15444551  1  0.098328  0  0.101977  0.110352  0  1.062868  0
H  H27  1  0.44055245  0.91468252  0.09334940  1  0.07061  0  0.096396  0.10123  0  1.033687  0
H  H28  1  0.31811910  0.70243235  0.95237475  1  0.078168  0  0.104263  0.110183  0  1.017729  0
H  H29  1  0.95540954  0.87293925  0.35448726  1  0.092655  0  0.106517  0.107707  0  1.025204  0
H  H30  1  0.61807542  0.70894145  0.34908347  1  0.111073  0  0.109646  0.116555  0  0.989279  0
H  H31  1  0.25313343  0.59011842  0.19436315  1  0.175427  0  0.153919  0.122479  0  0.961018  0
H  H32  1  0.05087310  0.82080845  0.93728191  1  0.049809  0  0.098438  0.096302  0  1.021534  0
H  H33  1  0.66012864  0.62690056  0.00794849  1  0.119553  0  0.111143  0.128872  0  1.026533  0
H  H34  1  0.80832326  0.81637293  0.25267269  1  0.085838  0  0.103226  0.106506  0  1.048957  0
H  H35  1  0.49027010  0.65426620  0.24213054  1  0.05781  0  0.106556  0.11304  0  1.007524  0
H  H36  1  0.11718235  0.92649002  0.00725977  1  0.047221  0  0.09236  0.081974  0  1.048231  0
H  H37  1  0.76274387  0.15888400  0.84576246  1  0.105436  0  0.10217  0.110957  0  1.061654  0
H  H38  1  0.44863873  0.08513952  0.90669053  1  0.110941  0  0.096  0.100181  0  1.033987  0
H  H39  1  0.97228787  0.29736713  0.04772448  1  0.085705  0  0.104457  0.110536  0  1.018108  0
H  H40  1  0.18197360  0.12711178  0.64539013  1  0.08661  0  0.106336  0.107386  0  1.026006  0
H  H41  1  0.67606730  0.29082850  0.65099568  1  0.116136  0  0.109646  0.117281  0  0.99069  0
H  H42  1  0.03772955  0.40970594  0.80588728  1  0.146306  0  0.153453  0.120701  0  0.961235  0
H  H43  1  0.80873445  0.17890298  0.06290304  1  0.076552  0  0.098215  0.096362  0  1.020509  0
H  H44  1  0.29453652  0.37282951  0.99231143  1  0.116274  0  0.111091  0.129671  0  1.025444  0
H  H45  1  0.87657728  0.18360000  0.74736855  1  0.080112  0  0.102962  0.106262  0  1.049417  0
H  H46  1  0.38673198  0.34538721  0.75809503  1  0.053989  0  0.106601  0.113702  0  1.007755  0
H  H47  1  0.05105903  0.07325185  0.99289803  1  0.054167  0  0.092627  0.083173  0  1.047683  0
H  H48  1  0.17848599  0.54082646  0.93026419  1  0.635927  0  0.270992  0.375487  0  0.972214  0
H  H49  1  0.89845403  0.92971522  0.45947305  1  0.634723  0  0.270314  0.375288  0  0.972438  0
H  H50  1  0.28690363  0.07008767  0.54048246  1  0.626122  0  0.27056  0.374429  0  0.973218  0
H  H51  1  0.64894854  0.45908355  0.07024372  1  0.630703  0  0.269787  0.374281  0  0.973835  0
C  C52  1  0.62280457  0.23866653  0.26750999  1  0.270971  0  0.096189  0.182  0  4.009013  0
C  C53  1  0.13372965  0.12421853  0.20579200  1  0.023208  0  -0.092219  -0.211185  0  3.963458  0
C  C54  1  0.20019157  0.42030947  0.17128552  1  1.564938  0  0.197125  0.562438  0  4.22902  0
C  C55  1  0.99080512  0.13414541  0.27339521  1  0.245604  0  0.09526  0.097348  0  3.993443  0
C  C56  1  0.36247598  0.07276383  0.19830045  1  -0.013075  0  -0.008376  0.080095  0  3.9971  0
C  C57  1  0.52570759  0.06188469  0.13092447  1  -0.039707  0  -0.095705  -0.138936  0  3.973294  0
C  C58  1  0.67546586  0.98171149  0.25002078  1  -0.077244  0  -0.088921  -0.127397  0  3.962862  0
C  C59  1  0.06355968  0.09119442  0.33295440  1  0.377396  0  0.088007  0.140513  0  4.091866  0
C  C60  1  0.43901018  0.03088918  0.25917188  1  0.034959  0  -0.009254  0.07488  0  4.002872  0
C  C61  1  0.60210441  0.32855242  0.17432415  1  0.096051  0  -0.075471  -0.055893  0  3.957978  0
C  C62  1  0.34876216  0.35720214  0.20471714  1  -0.112317  0  -0.01754  -0.034487  0  3.956642  0
C  C63  1  0.23330943  0.32562223  0.26718576  1  -0.001924  0  -0.076757  -0.065778  0  3.97458  0
C  C64  1  0.71579087  0.16476449  0.37361814  1  1.017767  0  0.180284  0.160208  0  3.883025  0
C  C65  1  0.83038593  0.97345291  0.18437104  1  -0.036075  0  -0.099056  -0.095545  0  4.046044  0
C  C66  1  0.28271362  0.03988423  0.32686129  1  -0.028007  0  -0.082917  -0.193548  0  3.918873  0
C  C67  1  0.74016775  0.27025648  0.20551355  1  -0.009379  0  -0.094328  -0.178135  0  3.990839  0
C  C68  1  0.36647857  0.26612057  0.29792981  1  -0.077548  0  -0.097238  -0.189238  0  4.001628  0
C  C69  1  0.75308308  0.01373588  0.12443050  1  -0.08774  0  -0.098333  -0.09031  0  4.047199  0
C  C70  1  0.12972695  0.76125067  0.73264384  1  0.275903  0  0.095451  0.181127  0  4.006581  0
C  C71  1  0.46382266  0.87583957  0.79430349  1  0.009638  0  -0.093277  -0.213894  0  3.966679  0
C  C72  1  0.79312657  0.57939959  0.82902843  1  1.553472  0  0.19605  0.560865  0  4.227196  0
C  C73  1  0.39865308  0.86586386  0.72670755  1  0.295867  0  0.096566  0.101883  0  3.992713  0
C  C74  1  0.63370380  0.92729591  0.80173832  1  -0.032409  0  -0.007215  0.081603  0  3.995507  0
C  C75  1  0.71876441  0.93812964  0.86909831  1  -0.101963  0  -0.09474  -0.138768  0  3.973936  0
C  C76  1  0.90780302  0.01829435  0.74995778  1  -0.084935  0  -0.089552  -0.12852  0  3.962158  0
C  C77  1  0.48784235  0.90886320  0.66714225  1  0.407277  0  0.088991  0.141363  0  4.090615  0
C  C78  1  0.72932920  0.96919289  0.74085563  1  0.049375  0  -0.008331  0.07655  0  4.001797  0
C  C79  1  0.10678341  0.67117587  0.82576998  1  -0.046761  0  -0.076542  -0.056561  0  3.956752  0
C  C80  1  0.91201961  0.64255866  0.79557062  1  0.073181  0  -0.016747  -0.033067  0  3.953953  0
C  C81  1  0.82696192  0.67423812  0.73320815  1  -0.00624  0  -0.077694  -0.069204  0  3.976334  0
C  C82  1  0.25399285  0.83535591  0.62656799  1  1.021451  0  0.180595  0.161876  0  3.882572  0
C  C83  1  0.98901596  0.02645116  0.81557507  1  -0.020139  0  -0.100571  -0.097263  0  4.045427  0
C  C84  1  0.64960837  0.96019545  0.67320134  1  -0.055753  0  -0.083711  -0.1944  0  3.921376  0
C  C85  1  0.21749295  0.72951394  0.79447485  1  -0.045978  0  -0.094186  -0.175775  0  3.988748  0
C  C86  1  0.93086397  0.73383075  0.70243559  1  -0.087571  0  -0.097302  -0.188359  0  4.001752  0
C  C87  1  0.89187466  0.98618344  0.87553398  1  -0.037958  0  -0.098935  -0.088452  0  4.0456  0
C  C88  1  0.14065380  0.73210073  0.23942265  1  0.271675  0  0.095669  0.179235  0  4.008963  0
C  C89  1  0.74364017  0.79369633  0.12481414  1  0.022416  0  -0.093072  -0.212873  0  3.963097  0
C  C90  1  0.38321872  0.82834041  0.42093127  1  1.566293  0  0.197579  0.563849  0  4.225179  0
C  C91  1  0.87752947  0.72625186  0.13471925  1  0.268451  0  0.095567  0.099745  0  3.99104  0
C  C92  1  0.56680248  0.80109961  0.07319973  1  0.00529  0  -0.007875  0.080611  0  3.993599  0
C  C93  1  0.41382558  0.86835274  0.06241795  1  -0.090384  0  -0.09648  -0.142211  0  3.974344  0
C  C94  1  0.34525193  0.74939393  0.98211158  1  -0.044923  0  -0.089097  -0.125267  0  3.960418  0
C  C95  1  0.84870905  0.66677969  0.09161967  1  0.356135  0  0.086613  0.139227  0  4.089719  0
C  C96  1  0.53288242  0.74029288  0.03121876  1  -0.041341  0  -0.00805  0.074993  0  4.000703  0
C  C97  1  0.07214628  0.82524439  0.32928677  1  -0.069828  0  -0.075559  -0.057521  0  3.955056  0
C  C98  1  0.29677307  0.79485128  0.35797579  1  0.011901  0  -0.017334  -0.034541  0  3.95391  0
C  C99  1  0.44308574  0.73235437  0.32644983  1  -0.006562  0  -0.07772  -0.068014  0  3.976371  0
C  C100  1  0.12313760  0.62624295  0.16524020  1  1.00082  0  0.182516  0.163291  0  3.880031  0
C  C101  1  0.19775582  0.81490067  0.97403051  1  -0.017459  0  -0.098831  -0.09557  0  4.04636  0
C  C102  1  0.68091371  0.67276654  0.04024357  1  0.02211  0  -0.081928  -0.191671  0  3.917491  0
C  C103  1  0.99196990  0.79405457  0.27103130  1  0.022114  0  -0.093974  -0.175033  0  3.987833  0
C  C104  1  0.36920716  0.70164142  0.26698643  1  -0.053625  0  -0.096523  -0.186549  0  4.001079  0
C  C105  1  0.23432071  0.87481310  0.01433462  1  -0.050233  0  -0.097647  -0.087108  0  4.046119  0
C  C106  1  0.11188301  0.26771995  0.76071971  1  0.281926  0  0.097156  0.182085  0  4.008895  0
C  C107  1  0.66235175  0.20610566  0.87534269  1  -0.017737  0  -0.091366  -0.211302  0  3.962759  0
C  C108  1  0.63202031  0.17155343  0.57906127  1  1.57155  0  0.196412  0.562243  0  4.226394  0
C  C109  1  0.73864693  0.27356271  0.86552498  1  0.273856  0  0.094337  0.098338  0  3.991061  0
C  C110  1  0.44093073  0.19871743  0.92686814  1  0.003488  0  -0.007284  0.081081  0  3.995453  0
C  C111  1  0.34441024  0.13147162  0.93761307  1  -0.113242  0  -0.095361  -0.138831  0  3.974783  0
C  C112  1  0.07623362  0.25041045  0.01798844  1  -0.05206  0  -0.088847  -0.126005  0  3.960118  0
C  C113  1  0.60720902  0.33302111  0.90867444  1  0.357264  0  0.088886  0.141003  0  4.08445  0
C  C114  1  0.30408912  0.25949645  0.96888317  1  0.019223  0  -0.008988  0.074806  0  4.001953  0
C  C115  1  0.22586494  0.17472878  0.67068657  1  -0.024338  0  -0.075164  -0.056474  0  3.956033  0
C  C116  1  0.44913627  0.20502733  0.64205294  1  -0.009363  0  -0.017823  -0.03418  0  3.95561  0
C  C117  1  0.50172698  0.26744503  0.67363170  1  -0.049824  0  -0.0771  -0.068103  0  3.979773  0
C  C118  1  0.91478662  0.37356754  0.83502794  1  1.041918  0  0.182262  0.164193  0  3.87914  0
C  C119  1  0.98638043  0.18486887  0.02610657  1  -0.07043  0  -0.09976  -0.096268  0  4.044457  0
C  C120  1  0.39379622  0.32701062  0.95999945  1  -0.00514  0  -0.083221  -0.194166  0  3.918506  0
C  C121  1  0.05635848  0.20587141  0.72902007  1  -0.035187  0  -0.094056  -0.176537  0  3.988511  0
C  C122  1  0.33781413  0.29808202  0.73317836  1  0.017772  0  -0.098728  -0.190287  0  4.004304  0
C  C123  1  0.12330362  0.12498169  0.98576136  1  -0.051249  0  -0.098191  -0.090475  0  4.047567  0
N  N124  1  0.88522203  0.11199534  0.39370284  1  -1.233362  0  -0.343677  -0.335733  0  3.56005  0
N  N125  1  0.76585510  0.18104280  0.30182569  1  -1.221889  0  -0.213516  -0.052002  0  3.697768  0
N  N126  1  0.39087453  0.88809998  0.60642667  1  -1.217803  0  -0.342179  -0.33454  0  3.559391  0
N  N127  1  0.24886726  0.81900024  0.69833029  1  -1.243048  0  -0.215063  -0.056589  0  3.699575  0
N  N128  1  0.00695528  0.60616057  0.11237549  1  -1.220288  0  -0.343629  -0.336676  0  3.55905  0
N  N129  1  0.05554213  0.69789522  0.18169747  1  -1.224124  0  -0.214771  -0.05444  0  3.696851  0
N  N130  1  0.72570054  0.39364547  0.88794089  1  -1.228135  0  -0.343825  -0.33583  0  3.554585  0
N  N131  1  0.93524698  0.30192715  0.81853799  1  -1.22326  0  -0.214435  -0.054175  0  3.697174  0
O  O132  1  0.18371123  0.03171478  0.53191210  1  -1.257838  0  -0.604159  -0.869102  0  2.165423  0
O  O133  1  0.32192902  0.44392306  0.11139168  1  -1.194053  0  -0.336766  -0.590197  0  2.361389  0
O  O134  1  0.97548249  0.44626574  0.19874372  1  -1.169664  0  -0.332924  -0.548551  0  2.084628  0
O  O135  1  0.74800122  0.96804502  0.46784004  1  -1.265382  0  -0.603302  -0.87019  0  2.164305  0
O  O136  1  0.87794515  0.55586033  0.88900437  1  -1.192536  0  -0.335955  -0.589385  0  2.359564  0
O  O137  1  0.62247230  0.55331586  0.80145634  1  -1.164983  0  -0.331764  -0.546733  0  2.084769  0
O  O138  1  0.79091821  0.46751869  0.03185695  1  -1.26082  0  -0.602949  -0.868922  0  2.16488  0
O  O139  1  0.24034501  0.88874415  0.44390617  1  -1.190767  0  -0.337178  -0.591029  0  2.360521  0
O  O140  1  0.58044694  0.80049301  0.44730159  1  -1.163919  0  -0.333116  -0.548596  0  2.083862  0
O  O141  1  0.29049710  0.53232067  0.96862205  1  -1.267037  0  -0.604432  -0.870136  0  2.161919  0
O  O142  1  0.57280006  0.11111504  0.55611652  1  -1.192507  0  -0.336992  -0.590472  0  2.362275  0
O  O143  1  0.82768174  0.19946742  0.55266254  1  -1.167434  0  -0.332034  -0.548142  0  2.082936  0
