# generated using pymatgen
data_BaH4(C2O)4
_symmetry_space_group_name_H-M   'P 1'
_cell_length_a   7.79716931
_cell_length_b   10.39726049
_cell_length_c   19.06329908
_cell_angle_alpha   90.00002319
_cell_angle_beta   90.00010581
_cell_angle_gamma   90.00017063
_symmetry_Int_Tables_number   1
_chemical_formula_structural   BaH4(C2O)4
_chemical_formula_sum   'Ba8 H32 C64 O32'
_cell_volume   1545.44641473
_cell_formula_units_Z   8
loop_
 _symmetry_equiv_pos_site_id
 _symmetry_equiv_pos_as_xyz
  1  'x, y, z'
loop_
 _atom_site_type_symbol
 _atom_site_label
 _atom_site_symmetry_multiplicity
 _atom_site_fract_x
 _atom_site_fract_y
 _atom_site_fract_z
 _atom_site_occupancy
 _atom_site_hle17_bader_spin_density
 _atom_site_hle17_ddec_charge
 _atom_site_hle17_ddec_spin_density
 _atom_site_hle17_ddec_sum_bond_order
 _atom_site_hle17_magmom
 _atom_site_hse06_10hf_bader_spin_density
 _atom_site_hse06_10hf_ddec_charge
 _atom_site_hse06_10hf_ddec_spin_density
 _atom_site_hse06_10hf_ddec_sum_bond_order
 _atom_site_hse06_10hf_magmom
 _atom_site_hse06_bader_spin_density
 _atom_site_hse06_ddec_charge
 _atom_site_hse06_ddec_spin_density
 _atom_site_hse06_ddec_sum_bond_order
 _atom_site_hse06_magmom
 _atom_site_pbe_bader_spin_density
 _atom_site_pbe_cm5_charge
 _atom_site_pbe_ddec_charge
 _atom_site_pbe_ddec_spin_density
 _atom_site_pbe_ddec_sum_bond_order
 _atom_site_pbe_magmom
Ba  Ba0  1  0.53568315  0.20161833  0.52437431  1  0  1.654625  0  1.196522  0  0  1.510638  0  1.601022  0  0  1.551619  0  1.557321  0  0  1.003116  1.480112  0  1.632274  0
Ba  Ba1  1  0.96431954  0.79838255  0.02437556  1  0  1.654673  0  1.196431  0  0  1.510658  0  1.600971  0  0  1.551669  0  1.557224  0  0  1.003103  1.480112  0  1.632263  0
Ba  Ba2  1  0.46431566  0.70161743  0.97562519  1  0  1.654606  0  1.196542  0  0  1.510632  0  1.601018  0  0  1.551597  0  1.557347  0  0  1.003101  1.480119  0  1.632258  0
Ba  Ba3  1  0.03568255  0.29838459  0.47562496  1  0  1.654624  0  1.196494  0  0  1.510651  0  1.60096  0  0  1.551622  0  1.557286  0  0  1.003086  1.480065  0  1.6323  0
Ba  Ba4  1  0.46431986  0.79838216  0.47562465  1  0  1.654649  0  1.196482  0  0  1.51065  0  1.600998  0  0  1.551642  0  1.55728  0  0  1.00311  1.480105  0  1.632286  0
Ba  Ba5  1  0.03568091  0.20161794  0.97562550  1  0  1.654648  0  1.196484  0  0  1.51067  0  1.60096  0  0  1.551641  0  1.557282  0  0  1.003111  1.480112  0  1.632269  0
Ba  Ba6  1  0.53568094  0.29838209  0.02437535  1  0  1.654656  0  1.19647  0  0  1.51067  0  1.600961  0  0  1.551653  0  1.55726  0  0  1.00311  1.480115  0  1.632261  0
Ba  Ba7  1  0.96431662  0.70161879  0.52437453  1  0  1.654637  0  1.196501  0  0  1.510633  0  1.601028  0  0  1.551626  0  1.557312  0  0  1.003106  1.48011  0  1.632284  0
H  H8  1  0.73693533  0.21568854  0.35595548  1  0  0.09005  0  1.000612  0  0  0.094516  0  1.074804  0  0  0.098787  0  1.07185  0  0  0.111613  0.09126  0  1.077396  0
H  H9  1  0.76306756  0.78431066  0.85595400  1  0  0.090142  0  1.000554  0  0  0.094582  0  1.074767  0  0  0.098852  0  1.071814  0  0  0.111617  0.091324  0  1.07736  0
H  H10  1  0.26306644  0.71568791  0.14404555  1  0  0.090051  0  1.000617  0  0  0.094537  0  1.074793  0  0  0.098809  0  1.071836  0  0  0.111605  0.091276  0  1.077385  0
H  H11  1  0.23693670  0.28431386  0.64404447  1  0  0.090047  0  1.000607  0  0  0.094514  0  1.074784  0  0  0.098786  0  1.071828  0  0  0.111583  0.091254  0  1.077379  0
H  H12  1  0.26306641  0.78431098  0.64404558  1  0  0.090085  0  1.00064  0  0  0.094565  0  1.074797  0  0  0.098835  0  1.071845  0  0  0.111606  0.091305  0  1.077394  0
H  H13  1  0.23693289  0.21568694  0.14404601  1  0  0.090025  0  1.000621  0  0  0.094502  0  1.074811  0  0  0.098775  0  1.071852  0  0  0.111578  0.091243  0  1.077404  0
H  H14  1  0.73693273  0.28431065  0.85595446  1  0  0.090043  0  1.000582  0  0  0.094516  0  1.074768  0  0  0.098788  0  1.071811  0  0  0.111589  0.091257  0  1.077359  0
H  H15  1  0.76306759  0.71568759  0.35595345  1  0  0.090027  0  1.000619  0  0  0.09451  0  1.0748  0  0  0.098782  0  1.07184  0  0  0.111577  0.091251  0  1.077393  0
H  H16  1  0.74585118  0.25821605  0.22770329  1  0  0.091671  0  0.978397  0  0  0.099856  0  1.046447  0  0  0.10275  0  1.045352  0  0  0.103779  0.097571  0  1.047778  0
H  H17  1  0.75415114  0.74178113  0.72770180  1  0  0.09163  0  0.978433  0  0  0.099815  0  1.046494  0  0  0.102709  0  1.045397  0  0  0.103755  0.097525  0  1.047809  0
H  H18  1  0.25414690  0.75821838  0.27229775  1  0  0.091648  0  0.978358  0  0  0.099833  0  1.046418  0  0  0.102727  0  1.04532  0  0  0.103776  0.097554  0  1.047744  0
H  H19  1  0.24585168  0.24178445  0.77229614  1  0  0.091675  0  0.978333  0  0  0.099862  0  1.046387  0  0  0.102755  0  1.045288  0  0  0.103792  0.097585  0  1.04771  0
H  H20  1  0.25414927  0.74178155  0.77229725  1  0  0.091642  0  0.978429  0  0  0.099817  0  1.04649  0  0  0.102712  0  1.045393  0  0  0.103773  0.097539  0  1.047816  0
H  H21  1  0.24585188  0.25821647  0.27229822  1  0  0.091669  0  0.97834  0  0  0.099857  0  1.046398  0  0  0.10275  0  1.045303  0  0  0.103783  0.097578  0  1.047726  0
H  H22  1  0.74585355  0.24178403  0.72770227  1  0  0.09167  0  0.978363  0  0  0.09986  0  1.04641  0  0  0.102753  0  1.045314  0  0  0.103769  0.097571  0  1.047731  0
H  H23  1  0.75414877  0.75821796  0.22770125  1  0  0.091641  0  0.978348  0  0  0.099831  0  1.046406  0  0  0.102724  0  1.045309  0  0  0.103759  0.097541  0  1.047732  0
H  H24  1  0.01136147  0.90131731  0.19517251  1  0  0.086428  0  0.96403  0  0  0.096104  0  1.03029  0  0  0.099084  0  1.028787  0  0  0.109414  0.093747  0  1.031874  0
H  H25  1  0.48863805  0.09868257  0.69517315  1  0  0.086435  0  0.963974  0  0  0.096113  0  1.030237  0  0  0.099093  0  1.028735  0  0  0.109408  0.093759  0  1.031809  0
H  H26  1  0.98863333  0.40131847  0.30482909  1  0  0.086505  0  0.963901  0  0  0.096146  0  1.03021  0  0  0.099137  0  1.028694  0  0  0.109426  0.093767  0  1.031791  0
H  H27  1  0.51136292  0.59868358  0.80482790  1  0  0.086406  0  0.964035  0  0  0.096081  0  1.030302  0  0  0.099059  0  1.028807  0  0  0.1094  0.093734  0  1.031851  0
H  H28  1  0.98863770  0.09868221  0.80482645  1  0  0.086421  0  0.96403  0  0  0.0961  0  1.030289  0  0  0.099081  0  1.028785  0  0  0.109403  0.093759  0  1.031853  0
H  H29  1  0.51136368  0.90131792  0.30482896  1  0  0.086457  0  0.964001  0  0  0.096133  0  1.030269  0  0  0.09911  0  1.028773  0  0  0.109425  0.09378  0  1.031818  0
H  H30  1  0.01136455  0.59868490  0.69517355  1  0  0.086416  0  0.964017  0  0  0.096095  0  1.030279  0  0  0.099076  0  1.028774  0  0  0.10941  0.09374  0  1.031852  0
H  H31  1  0.48863369  0.40131787  0.19517002  1  0  0.086484  0  0.963907  0  0  0.096116  0  1.030229  0  0  0.099112  0  1.028711  0  0  0.109413  0.093738  0  1.031806  0
H  H32  1  0.99182902  0.85329042  0.32284228  1  0  0.102614  0  0.966765  0  0  0.110161  0  1.033054  0  0  0.113327  0  1.031715  0  0  0.109217  0.107894  0  1.034139  0
H  H33  1  0.50817244  0.14670972  0.82284205  1  0  0.102587  0  0.966749  0  0  0.11012  0  1.033047  0  0  0.113285  0  1.031711  0  0  0.109195  0.10785  0  1.034123  0
H  H34  1  0.00816816  0.35328929  0.17715825  1  0  0.102603  0  0.966784  0  0  0.11015  0  1.033071  0  0  0.113315  0  1.031733  0  0  0.109208  0.107888  0  1.034157  0
H  H35  1  0.49183000  0.64671251  0.67715797  1  0  0.102576  0  0.966786  0  0  0.11012  0  1.033091  0  0  0.113285  0  1.031753  0  0  0.109212  0.107859  0  1.03417  0
H  H36  1  0.00817272  0.14671006  0.67715721  1  0  0.102557  0  0.966798  0  0  0.110088  0  1.033107  0  0  0.113254  0  1.031769  0  0  0.1092  0.107827  0  1.03419  0
H  H37  1  0.49183057  0.85328885  0.17715954  1  0  0.102586  0  0.966793  0  0  0.110119  0  1.033097  0  0  0.113286  0  1.031757  0  0  0.109196  0.10786  0  1.034179  0
H  H38  1  0.99182844  0.64671120  0.82284281  1  0  0.102582  0  0.966802  0  0  0.110135  0  1.033095  0  0  0.113301  0  1.031755  0  0  0.109207  0.107864  0  1.034175  0
H  H39  1  0.50816789  0.35328991  0.32283995  1  0  0.102599  0  0.966831  0  0  0.110132  0  1.033139  0  0  0.113298  0  1.0318  0  0  0.109203  0.107868  0  1.034212  0
C  C40  1  0.85858422  0.02923668  0.34737410  1  0  -0.061567  0  3.731108  0  0  -0.039217  0  3.960846  0  0  -0.044246  0  3.981451  0  0  -0.000297  -0.035903  0  3.946842  0
C  C41  1  0.64142120  0.97075963  0.84737467  1  0  -0.061608  0  3.731226  0  0  -0.039294  0  3.960953  0  0  -0.044333  0  3.981554  0  0  -0.000341  -0.03598  0  3.946943  0
C  C42  1  0.14141681  0.52923674  0.15262742  1  0  -0.061525  0  3.730993  0  0  -0.039181  0  3.960763  0  0  -0.044218  0  3.981368  0  0  -0.000293  -0.035866  0  3.946764  0
C  C43  1  0.35858380  0.47076408  0.65262595  1  0  -0.061641  0  3.731107  0  0  -0.039313  0  3.960916  0  0  -0.044344  0  3.981522  0  0  -0.000318  -0.035997  0  3.946908  0
C  C44  1  0.14142265  0.97075996  0.65262487  1  0  -0.061504  0  3.731172  0  0  -0.039226  0  3.960953  0  0  -0.044262  0  3.981555  0  0  -0.000309  -0.035909  0  3.946942  0
C  C45  1  0.35858181  0.02923605  0.15262797  1  0  -0.061504  0  3.731022  0  0  -0.03918  0  3.960808  0  0  -0.044212  0  3.981416  0  0  -0.000284  -0.035865  0  3.946802  0
C  C46  1  0.85857851  0.47076375  0.84737469  1  0  -0.061594  0  3.731066  0  0  -0.039305  0  3.960908  0  0  -0.044337  0  3.981514  0  0  -0.000349  -0.035997  0  3.9469  0
C  C47  1  0.64141665  0.52923641  0.34737145  1  0  -0.06157  0  3.731129  0  0  -0.039158  0  3.960796  0  0  -0.044204  0  3.98142  0  0  -0.0003  -0.03584  0  3.946785  0
C  C48  1  0.79581417  0.14585386  0.32064262  1  0  -0.103206  0  3.753582  0  0  -0.123613  0  4.003879  0  0  -0.126518  0  4.025207  0  0  -0.077871  -0.121563  0  3.989738  0
C  C49  1  0.70418985  0.85414532  0.82064268  1  0  -0.103284  0  3.753508  0  0  -0.123678  0  4.003834  0  0  -0.126581  0  4.025159  0  0  -0.077832  -0.121627  0  3.98969  0
C  C50  1  0.20418475  0.64585408  0.17935840  1  0  -0.103251  0  3.753598  0  0  -0.123663  0  4.00388  0  0  -0.126567  0  4.025207  0  0  -0.077856  -0.121607  0  3.989731  0
C  C51  1  0.29581470  0.35414772  0.67935685  1  0  -0.103202  0  3.753594  0  0  -0.123585  0  4.003877  0  0  -0.126489  0  4.025201  0  0  -0.077832  -0.121531  0  3.989727  0
C  C52  1  0.20418884  0.85414471  0.67935740  1  0  -0.10328  0  3.753625  0  0  -0.123698  0  4.003936  0  0  -0.126604  0  4.025268  0  0  -0.077825  -0.121644  0  3.989792  0
C  C53  1  0.29581445  0.14585324  0.17935891  1  0  -0.103271  0  3.753537  0  0  -0.123665  0  4.003817  0  0  -0.126569  0  4.025142  0  0  -0.077855  -0.121612  0  3.989672  0
C  C54  1  0.79581313  0.35414737  0.82064214  1  0  -0.103245  0  3.753548  0  0  -0.123624  0  4.003843  0  0  -0.126528  0  4.025168  0  0  -0.077834  -0.121572  0  3.989698  0
C  C55  1  0.70418575  0.64585373  0.32064001  1  0  -0.10323  0  3.753598  0  0  -0.123656  0  4.003874  0  0  -0.126557  0  4.025204  0  0  -0.077817  -0.121601  0  3.989724  0
C  C56  1  0.80064658  0.17013715  0.24887855  1  0  -0.061745  0  3.732491  0  0  -0.083998  0  3.979232  0  0  -0.084725  0  4.000968  0  0  -0.078116  -0.083224  0  3.964755  0
C  C57  1  0.69935711  0.82986197  0.74887808  1  0  -0.061677  0  3.732318  0  0  -0.083948  0  3.979077  0  0  -0.084679  0  4.000826  0  0  -0.07813  -0.083174  0  3.964582  0
C  C58  1  0.19935372  0.67013549  0.25112300  1  0  -0.061652  0  3.73248  0  0  -0.083925  0  3.979242  0  0  -0.084654  0  4.000992  0  0  -0.078113  -0.08315  0  3.964758  0
C  C59  1  0.30064733  0.32986539  0.75112145  1  0  -0.061736  0  3.732417  0  0  -0.084003  0  3.97917  0  0  -0.084732  0  4.000919  0  0  -0.078136  -0.083226  0  3.96468  0
C  C60  1  0.19935515  0.82986141  0.75112094  1  0  -0.061686  0  3.732378  0  0  -0.083908  0  3.979095  0  0  -0.084636  0  4.000829  0  0  -0.078089  -0.083132  0  3.964607  0
C  C61  1  0.30064718  0.17013467  0.25112351  1  0  -0.06162  0  3.732378  0  0  -0.083907  0  3.97913  0  0  -0.084636  0  4.000879  0  0  -0.078074  -0.083131  0  3.964652  0
C  C62  1  0.80064673  0.32986403  0.74887754  1  0  -0.061628  0  3.732441  0  0  -0.08391  0  3.979201  0  0  -0.084639  0  4.000951  0  0  -0.078101  -0.083136  0  3.964713  0
C  C63  1  0.69935055  0.67013605  0.24887594  1  0  -0.061575  0  3.732389  0  0  -0.083869  0  3.979177  0  0  -0.0846  0  4.000924  0  0  -0.078062  -0.083097  0  3.964699  0
C  C64  1  0.87381901  0.08087332  0.20285033  1  0  -0.067345  0  3.74029  0  0  -0.044729  0  3.969201  0  0  -0.051962  0  3.991556  0  0  -0.010031  -0.040155  0  3.953997  0
C  C65  1  0.62618191  0.91912577  0.70284825  1  0  -0.067305  0  3.740214  0  0  -0.044666  0  3.969089  0  0  -0.051905  0  3.991446  0  0  -0.009999  -0.040088  0  3.953901  0
C  C66  1  0.12617965  0.58087153  0.29715120  1  0  -0.06744  0  3.740378  0  0  -0.044789  0  3.969263  0  0  -0.052031  0  3.991622  0  0  -0.010032  -0.040212  0  3.954038  0
C  C67  1  0.37382160  0.41912939  0.79715025  1  0  -0.067342  0  3.740295  0  0  -0.044726  0  3.969193  0  0  -0.051965  0  3.991549  0  0  -0.01  -0.04015  0  3.953983  0
C  C68  1  0.12618016  0.91912428  0.79715073  1  0  -0.067334  0  3.740229  0  0  -0.044729  0  3.969138  0  0  -0.051964  0  3.991494  0  0  -0.010075  -0.040151  0  3.953926  0
C  C69  1  0.37382238  0.08087183  0.29715176  1  0  -0.067367  0  3.740398  0  0  -0.044695  0  3.969253  0  0  -0.051933  0  3.99161  0  0  -0.010005  -0.040118  0  3.954042  0
C  C70  1  0.87382080  0.41912703  0.70284882  1  0  -0.067458  0  3.740345  0  0  -0.044821  0  3.969237  0  0  -0.052061  0  3.991593  0  0  -0.010029  -0.040249  0  3.954037  0
C  C71  1  0.62617500  0.58087302  0.20284767  1  0  -0.067396  0  3.740394  0  0  -0.044732  0  3.969263  0  0  -0.051971  0  3.991624  0  0  -0.010044  -0.040161  0  3.954053  0
C  C72  1  0.94663443  0.96815810  0.23028170  1  0  -0.059838  0  3.729793  0  0  -0.082574  0  3.978869  0  0  -0.082671  0  3.999095  0  0  -0.073356  -0.082182  0  3.965286  0
C  C73  1  0.55336662  0.03184005  0.73028147  1  0  -0.059882  0  3.729764  0  0  -0.082644  0  3.97885  0  0  -0.08274  0  3.999078  0  0  -0.073387  -0.082255  0  3.965266  0
C  C74  1  0.05336192  0.46815906  0.26972044  1  0  -0.059861  0  3.729702  0  0  -0.082583  0  3.978757  0  0  -0.082684  0  3.998977  0  0  -0.073366  -0.082149  0  3.965195  0
C  C75  1  0.44663537  0.53184281  0.76971904  1  0  -0.059841  0  3.729791  0  0  -0.082577  0  3.978859  0  0  -0.082674  0  3.999085  0  0  -0.073357  -0.08218  0  3.965276  0
C  C76  1  0.05336602  0.03183951  0.76971832  1  0  -0.059835  0  3.72976  0  0  -0.082589  0  3.978848  0  0  -0.082686  0  3.999072  0  0  -0.073349  -0.082205  0  3.965252  0
C  C77  1  0.44663768  0.96815948  0.26972064  1  0  -0.059885  0  3.729804  0  0  -0.082638  0  3.978872  0  0  -0.082734  0  3.999098  0  0  -0.073398  -0.08223  0  3.965289  0
C  C78  1  0.94663597  0.53184143  0.73028220  1  0  -0.059776  0  3.729732  0  0  -0.082521  0  3.978805  0  0  -0.082617  0  3.999033  0  0  -0.073338  -0.082126  0  3.965219  0
C  C79  1  0.55335995  0.46815864  0.23027835  1  0  -0.059909  0  3.729726  0  0  -0.08262  0  3.978782  0  0  -0.082731  0  3.999001  0  0  -0.073398  -0.082191  0  3.965237  0
C  C80  1  0.93711185  0.94152129  0.30166388  1  0  -0.074111  0  3.713352  0  0  -0.094454  0  3.960702  0  0  -0.096474  0  3.98112  0  0  -0.076257  -0.092983  0  3.946924  0
C  C81  1  0.56288952  0.05847787  0.80166367  1  0  -0.074095  0  3.71334  0  0  -0.094397  0  3.96066  0  0  -0.096417  0  3.981079  0  0  -0.076235  -0.09293  0  3.946883  0
C  C82  1  0.06288439  0.44152126  0.19833773  1  0  -0.07417  0  3.713303  0  0  -0.094498  0  3.960638  0  0  -0.096516  0  3.981059  0  0  -0.076243  -0.093027  0  3.94685  0
C  C83  1  0.43711386  0.55847959  0.69833686  1  0  -0.074041  0  3.713273  0  0  -0.094368  0  3.960614  0  0  -0.096386  0  3.981032  0  0  -0.07623  -0.0929  0  3.946838  0
C  C84  1  0.06288988  0.05847727  0.69833613  1  0  -0.0741  0  3.713395  0  0  -0.094399  0  3.96073  0  0  -0.096418  0  3.981147  0  0  -0.076216  -0.09293  0  3.946961  0
C  C85  1  0.43711350  0.94152165  0.19833845  1  0  -0.074148  0  3.713279  0  0  -0.094464  0  3.960632  0  0  -0.096483  0  3.981048  0  0  -0.076229  -0.092992  0  3.946844  0
C  C86  1  0.93711221  0.55848019  0.80166439  1  0  -0.074137  0  3.71332  0  0  -0.09446  0  3.960672  0  0  -0.096478  0  3.981089  0  0  -0.076282  -0.092991  0  3.946888  0
C  C87  1  0.56288531  0.44152186  0.30166106  1  0  -0.074122  0  3.713337  0  0  -0.094474  0  3.960666  0  0  -0.09649  0  3.981092  0  0  -0.076224  -0.093004  0  3.946865  0
C  C88  1  0.83044788  0.99658380  0.42341297  1  0  0.712184  0  3.878283  0  0  0.662188  0  4.170332  0  0  0.69802  0  4.157627  0  0  0.245121  0.637693  0  4.178078  0
C  C89  1  0.66955403  0.00341354  0.92341283  1  0  0.7123  0  3.878151  0  0  0.662386  0  4.170045  0  0  0.698243  0  4.15729  0  0  0.245239  0.6379  0  4.177784  0
C  C90  1  0.16955243  0.49658199  0.07658865  1  0  0.71239  0  3.877956  0  0  0.662345  0  4.170092  0  0  0.698184  0  4.157372  0  0  0.245174  0.637855  0  4.177836  0
C  C91  1  0.33044656  0.50341685  0.57658611  1  0  0.712354  0  3.877971  0  0  0.662296  0  4.170128  0  0  0.698128  0  4.157422  0  0  0.245178  0.63781  0  4.17786  0
C  C92  1  0.16955513  0.00341381  0.57658652  1  0  0.71231  0  3.878155  0  0  0.6624  0  4.170059  0  0  0.698255  0  4.157303  0  0  0.245244  0.637916  0  4.177789  0
C  C93  1  0.33044770  0.99658407  0.07658876  1  0  0.712362  0  3.877952  0  0  0.662325  0  4.170088  0  0  0.698158  0  4.157381  0  0  0.245193  0.637847  0  4.177805  0
C  C94  1  0.83044546  0.50341465  0.92341452  1  0  0.712355  0  3.878029  0  0  0.66233  0  4.170149  0  0  0.698163  0  4.157441  0  0  0.245191  0.637854  0  4.177872  0
C  C95  1  0.66955261  0.49658268  0.42341023  1  0  0.712337  0  3.878104  0  0  0.662307  0  4.170172  0  0  0.698146  0  4.157458  0  0  0.245192  0.637818  0  4.177912  0
C  C96  1  0.87740481  0.10792465  0.12553738  1  0  0.677653  0  3.910464  0  0  0.63216  0  4.196157  0  0  0.66683  0  4.186321  0  0  0.224604  0.608737  0  4.201856  0
C  C97  1  0.62259449  0.89207534  0.62553634  1  0  0.677733  0  3.910458  0  0  0.632263  0  4.196105  0  0  0.666934  0  4.186274  0  0  0.224692  0.608808  0  4.201917  0
C  C98  1  0.12259525  0.60792580  0.37446363  1  0  0.67786  0  3.910148  0  0  0.632334  0  4.19587  0  0  0.667006  0  4.186031  0  0  0.224699  0.608908  0  4.201563  0
C  C99  1  0.37740508  0.39207711  0.87446320  1  0  0.677745  0  3.910449  0  0  0.632276  0  4.196093  0  0  0.666948  0  4.186256  0  0  0.224652  0.608838  0  4.201818  0
C  C100  1  0.12259436  0.89207584  0.87446316  1  0  0.67771  0  3.910515  0  0  0.632235  0  4.19617  0  0  0.666905  0  4.186337  0  0  0.224635  0.608806  0  4.201869  0
C  C101  1  0.37740724  0.10792418  0.37446420  1  0  0.677814  0  3.910369  0  0  0.632292  0  4.196071  0  0  0.666964  0  4.186236  0  0  0.224667  0.608855  0  4.201798  0
C  C102  1  0.87740649  0.39207854  0.62553691  1  0  0.677935  0  3.910227  0  0  0.632464  0  4.195875  0  0  0.667135  0  4.186036  0  0  0.224755  0.609036  0  4.201594  0
C  C103  1  0.62259153  0.60792530  0.12553524  1  0  0.677822  0  3.910183  0  0  0.632288  0  4.195911  0  0  0.66696  0  4.186072  0  0  0.224699  0.608875  0  4.201595  0
O  O104  1  0.82728991  0.08890625  0.46744880  1  0  -0.752929  0  2.002956  0  0  -0.689716  0  2.255817  0  0  -0.716715  0  2.24441  0  0  -0.405356  -0.670267  0  2.263187  0
O  O105  1  0.67271220  0.91109111  0.96744938  1  0  -0.75302  0  2.002913  0  0  -0.689832  0  2.255737  0  0  -0.716844  0  2.244313  0  0  -0.405406  -0.670392  0  2.263103  0
O  O106  1  0.17271007  0.58890437  0.03255221  1  0  -0.753062  0  2.002876  0  0  -0.689823  0  2.255756  0  0  -0.71683  0  2.244346  0  0  -0.40538  -0.670373  0  2.263121  0
O  O107  1  0.32729001  0.41109155  0.53255122  1  0  -0.753016  0  2.002884  0  0  -0.689772  0  2.255775  0  0  -0.716774  0  2.244371  0  0  -0.405378  -0.67032  0  2.263137  0
O  O108  1  0.17271439  0.91109135  0.53255069  1  0  -0.753036  0  2.002963  0  0  -0.689831  0  2.255759  0  0  -0.716845  0  2.244341  0  0  -0.405402  -0.670384  0  2.263114  0
O  O109  1  0.32728697  0.08890553  0.03255274  1  0  -0.753051  0  2.002932  0  0  -0.689809  0  2.255801  0  0  -0.716809  0  2.244395  0  0  -0.405401  -0.670356  0  2.263157  0
O  O110  1  0.82728782  0.41109227  0.96744938  1  0  -0.753048  0  2.002952  0  0  -0.689804  0  2.255815  0  0  -0.716806  0  2.24441  0  0  -0.405399  -0.670363  0  2.263177  0
O  O111  1  0.67271044  0.58890606  0.46744617  1  0  -0.753036  0  2.002943  0  0  -0.689801  0  2.255805  0  0  -0.716805  0  2.244391  0  0  -0.405413  -0.670359  0  2.263171  0
O  O112  1  0.80503590  0.87887584  0.43907918  1  0  -0.746069  0  1.994552  0  0  -0.685051  0  2.251867  0  0  -0.711719  0  2.239367  0  0  -0.387568  -0.665996  0  2.260096  0
O  O113  1  0.69496608  0.12112054  0.93908170  1  0  -0.746087  0  1.994436  0  0  -0.685099  0  2.2517  0  0  -0.711771  0  2.239184  0  0  -0.387625  -0.666025  0  2.259889  0
O  O114  1  0.19496138  0.37887312  0.06092241  1  0  -0.746129  0  1.994456  0  0  -0.685102  0  2.251802  0  0  -0.711768  0  2.239296  0  0  -0.387596  -0.666036  0  2.260023  0
O  O115  1  0.30503369  0.62112474  0.56091831  1  0  -0.74609  0  1.99439  0  0  -0.685049  0  2.251731  0  0  -0.711716  0  2.239231  0  0  -0.387579  -0.665995  0  2.259959  0
O  O116  1  0.19496712  0.12112176  0.56091874  1  0  -0.746109  0  1.994435  0  0  -0.685113  0  2.251676  0  0  -0.711792  0  2.239184  0  0  -0.387639  -0.666033  0  2.259848  0
O  O117  1  0.30503565  0.87887322  0.06092251  1  0  -0.746116  0  1.994394  0  0  -0.685087  0  2.251728  0  0  -0.711754  0  2.239229  0  0  -0.387587  -0.66604  0  2.259959  0
O  O118  1  0.80503266  0.62112352  0.93908127  1  0  -0.746079  0  1.994434  0  0  -0.685041  0  2.251751  0  0  -0.711708  0  2.239252  0  0  -0.387555  -0.665988  0  2.259954  0
O  O119  1  0.69496163  0.37887382  0.43907698  1  0  -0.746099  0  1.99446  0  0  -0.685087  0  2.251791  0  0  -0.711751  0  2.239287  0  0  -0.387583  -0.666024  0  2.26  0
O  O120  1  0.95720404  0.02900490  0.08579717  1  0  -0.755146  0  2.0366  0  0  -0.689912  0  2.288375  0  0  -0.717465  0  2.278504  0  0  -0.415014  -0.670436  0  2.294548  0
O  O121  1  0.54279637  0.97099603  0.58579713  1  0  -0.755169  0  2.036599  0  0  -0.689967  0  2.288402  0  0  -0.717503  0  2.278498  0  0  -0.415068  -0.670502  0  2.294618  0
O  O122  1  0.04279314  0.52900686  0.41420435  1  0  -0.755233  0  2.036509  0  0  -0.689998  0  2.288324  0  0  -0.717549  0  2.278455  0  0  -0.415072  -0.670523  0  2.294487  0
O  O123  1  0.45720351  0.47099608  0.91420348  1  0  -0.755187  0  2.036619  0  0  -0.689984  0  2.288422  0  0  -0.717524  0  2.278532  0  0  -0.415055  -0.670513  0  2.294603  0
O  O124  1  0.04279385  0.97099559  0.91420285  1  0  -0.755178  0  2.036601  0  0  -0.689976  0  2.288416  0  0  -0.717521  0  2.278533  0  0  -0.41505  -0.670507  0  2.29459  0
O  O125  1  0.45720537  0.02900639  0.41420445  1  0  -0.755206  0  2.036523  0  0  -0.689996  0  2.28838  0  0  -0.717539  0  2.278489  0  0  -0.415086  -0.670515  0  2.294541  0
O  O126  1  0.95720474  0.47099844  0.58579671  1  0  -0.755253  0  2.03654  0  0  -0.690063  0  2.288382  0  0  -0.717607  0  2.278496  0  0  -0.415097  -0.670589  0  2.294561  0
O  O127  1  0.54279181  0.52900537  0.08579444  1  0  -0.755254  0  2.036497  0  0  -0.690032  0  2.288341  0  0  -0.717573  0  2.278449  0  0  -0.415121  -0.670568  0  2.294506  0
O  O128  1  0.80660619  0.21009475  0.10233309  1  0  -0.733297  0  1.949422  0  0  -0.672368  0  2.190671  0  0  -0.697934  0  2.179489  0  0  -0.382982  -0.65431  0  2.197691  0
O  O129  1  0.69339429  0.78990811  0.60233051  1  0  -0.733338  0  1.949418  0  0  -0.67241  0  2.190658  0  0  -0.69798  0  2.179476  0  0  -0.383046  -0.654352  0  2.197712  0
O  O130  1  0.19339171  0.71009607  0.39766794  1  0  -0.733376  0  1.949282  0  0  -0.672439  0  2.190556  0  0  -0.698008  0  2.179373  0  0  -0.38302  -0.654385  0  2.197571  0
O  O131  1  0.30660487  0.28990878  0.89766744  1  0  -0.733337  0  1.949377  0  0  -0.672418  0  2.190609  0  0  -0.697983  0  2.179427  0  0  -0.383012  -0.654365  0  2.197638  0
O  O132  1  0.19339298  0.78990863  0.89766955  1  0  -0.733327  0  1.949419  0  0  -0.672397  0  2.190654  0  0  -0.697964  0  2.179473  0  0  -0.383006  -0.654353  0  2.197675  0
O  O133  1  0.30660616  0.21009333  0.39766898  1  0  -0.733358  0  1.949418  0  0  -0.672424  0  2.190688  0  0  -0.697988  0  2.179503  0  0  -0.383002  -0.654376  0  2.197728  0
O  O134  1  0.80660746  0.28991019  0.60233050  1  0  -0.733431  0  1.949293  0  0  -0.672504  0  2.190523  0  0  -0.698068  0  2.179337  0  0  -0.383062  -0.65444  0  2.197543  0
O  O135  1  0.69339301  0.71009460  0.10233100  1  0  -0.733349  0  1.949326  0  0  -0.672398  0  2.190596  0  0  -0.697968  0  2.179412  0  0  -0.38299  -0.654346  0  2.197606  0
