# generated using pymatgen
data_CaH18(C6O7)2
_symmetry_space_group_name_H-M   'P 1'
_cell_length_a   6.34985957
_cell_length_b   8.24782516
_cell_length_c   15.82896696
_cell_angle_alpha   90.00024034
_cell_angle_beta   89.99980214
_cell_angle_gamma   108.34585796
_symmetry_Int_Tables_number   1
_chemical_formula_structural   CaH18(C6O7)2
_chemical_formula_sum   'Ca2 H36 C24 O28'
_cell_volume   786.86804803
_cell_formula_units_Z   2
loop_
 _symmetry_equiv_pos_site_id
 _symmetry_equiv_pos_as_xyz
  1  'x, y, z'
loop_
 _atom_site_type_symbol
 _atom_site_label
 _atom_site_symmetry_multiplicity
 _atom_site_fract_x
 _atom_site_fract_y
 _atom_site_fract_z
 _atom_site_occupancy
 _atom_site_hle17_bader_spin_density
 _atom_site_hle17_ddec_charge
 _atom_site_hle17_ddec_spin_density
 _atom_site_hle17_ddec_sum_bond_order
 _atom_site_hle17_magmom
 _atom_site_hse06_10hf_bader_spin_density
 _atom_site_hse06_10hf_ddec_charge
 _atom_site_hse06_10hf_ddec_spin_density
 _atom_site_hse06_10hf_ddec_sum_bond_order
 _atom_site_hse06_10hf_magmom
 _atom_site_hse06_bader_spin_density
 _atom_site_hse06_ddec_charge
 _atom_site_hse06_ddec_spin_density
 _atom_site_hse06_ddec_sum_bond_order
 _atom_site_hse06_magmom
 _atom_site_pbe_bader_spin_density
 _atom_site_pbe_cm5_charge
 _atom_site_pbe_ddec_charge
 _atom_site_pbe_ddec_spin_density
 _atom_site_pbe_ddec_sum_bond_order
 _atom_site_pbe_magmom
Ca  Ca0  1  0.52822209  0.78209059  0.75114615  1  0  1.544767  0  1.070989  0  0  1.406025  0  1.41695  0  0  1.447098  0  1.37322  0  0  0.847734  1.374906  0  1.448321  0
Ca  Ca1  1  0.47177990  0.21791116  0.25114580  1  0  1.544769  0  1.071001  0  0  1.406049  0  1.416956  0  0  1.447123  0  1.373225  0  0  0.847746  1.374929  0  1.448328  0
H  H2  1  0.13886078  0.44836721  0.71809147  1  0  0.414606  0  0.892853  0  0  0.384326  0  0.956099  0  0  0.394633  0  0.940903  0  0  0.292721  0.377036  0  0.966846  0
H  H3  1  0.86114191  0.55163558  0.21809383  1  0  0.414623  0  0.892833  0  0  0.384349  0  0.956065  0  0  0.394655  0  0.940869  0  0  0.292742  0.377057  0  0.966812  0
H  H4  1  0.15412988  0.48113672  0.81609347  1  0  0.415711  0  0.895166  0  0  0.384769  0  0.959804  0  0  0.395436  0  0.944323  0  0  0.291965  0.377236  0  0.970726  0
H  H5  1  0.84587173  0.51886545  0.31609578  1  0  0.415655  0  0.895255  0  0  0.384716  0  0.959888  0  0  0.395383  0  0.944406  0  0  0.291923  0.377183  0  0.970809  0
H  H6  1  0.97070805  0.98769885  0.84209831  1  0  0.425524  0  0.870104  0  0  0.392496  0  0.937638  0  0  0.403563  0  0.921153  0  0  0.299024  0.384564  0  0.949439  0
H  H7  1  0.02929080  0.01230094  0.34209749  1  0  0.4255  0  0.870128  0  0  0.392468  0  0.937674  0  0  0.403536  0  0.921187  0  0  0.299012  0.384534  0  0.949478  0
H  H8  1  0.03909771  0.91874650  0.75759558  1  0  0.423092  0  0.871614  0  0  0.392023  0  0.936866  0  0  0.402888  0  0.920693  0  0  0.303155  0.384239  0  0.948453  0
H  H9  1  0.96090057  0.08125400  0.25759614  1  0  0.423074  0  0.871644  0  0  0.392017  0  0.936874  0  0  0.402883  0  0.920701  0  0  0.303152  0.384235  0  0.94846  0
H  H10  1  0.22452635  0.34698684  0.08890811  1  0  0.389773  0  0.900362  0  0  0.355514  0  0.980992  0  0  0.368731  0  0.966915  0  0  0.300624  0.34623  0  0.99081  0
H  H11  1  0.77547085  0.65300742  0.58890973  1  0  0.389801  0  0.900333  0  0  0.355557  0  0.980944  0  0  0.368784  0  0.966853  0  0  0.300632  0.346281  0  0.99074  0
H  H12  1  0.00373304  0.70295888  0.88126484  1  0  0.105742  0  0.927241  0  0  0.11058  0  0.990225  0  0  0.113565  0  0.987633  0  0  0.13029  0.108352  0  0.992278  0
H  H13  1  0.99627505  0.29704121  0.38126582  1  0  0.105738  0  0.927233  0  0  0.110564  0  0.990235  0  0  0.113546  0  0.987649  0  0  0.130307  0.108338  0  0.992287  0
H  H14  1  0.58530389  0.44840921  0.95900075  1  0  0.035851  0  0.931311  0  0  0.043201  0  1.000977  0  0  0.043194  0  1.001521  0  0  0.102376  0.043086  0  1.000789  0
H  H15  1  0.41470323  0.55159012  0.45900184  1  0  0.035819  0  0.931329  0  0  0.043172  0  1.000963  0  0  0.043165  0  1.001505  0  0  0.102346  0.043056  0  1.000773  0
H  H16  1  0.61088347  0.74971401  0.93874264  1  0  0.384238  0  0.869466  0  0  0.355783  0  0.948527  0  0  0.366142  0  0.9357  0  0  0.320515  0.348357  0  0.957721  0
H  H17  1  0.38912061  0.25028517  0.43874247  1  0  0.384256  0  0.869442  0  0  0.355796  0  0.948509  0  0  0.366158  0  0.935679  0  0  0.320518  0.348364  0  0.957718  0
H  H18  1  0.73142653  0.34354954  0.82474667  1  0  0.077236  0  0.931261  0  0  0.088808  0  0.993653  0  0  0.090121  0  0.992366  0  0  0.111748  0.087727  0  0.994798  0
H  H19  1  0.26857452  0.65645142  0.32475135  1  0  0.077263  0  0.931257  0  0  0.08882  0  0.99365  0  0  0.090132  0  0.992362  0  0  0.111749  0.08774  0  0.994796  0
H  H20  1  0.45301829  0.34942289  0.82340250  1  0  0.066125  0  0.922026  0  0  0.076976  0  0.988542  0  0  0.07799  0  0.987576  0  0  0.107736  0.076116  0  0.989484  0
H  H21  1  0.54698644  0.65057935  0.32340235  1  0  0.066086  0  0.922053  0  0  0.076937  0  0.988558  0  0  0.077948  0  0.987592  0  0  0.107705  0.076077  0  0.9895  0
H  H22  1  0.78827560  0.52318872  0.71666208  1  0  0.382928  0  0.886338  0  0  0.35505  0  0.962821  0  0  0.365815  0  0.949802  0  0  0.315232  0.347228  0  0.972382  0
H  H23  1  0.21172289  0.47681533  0.21666517  1  0  0.382889  0  0.886429  0  0  0.355019  0  0.962891  0  0  0.365781  0  0.949878  0  0  0.315228  0.347198  0  0.972451  0
H  H24  1  0.08713528  0.21328413  0.93554448  1  0  0.372274  0  0.937426  0  0  0.339926  0  1.020033  0  0  0.351274  0  1.00486  0  0  0.292975  0.331994  0  1.028945  0
H  H25  1  0.91286879  0.78671885  0.43554854  1  0  0.37216  0  0.937609  0  0  0.339819  0  1.020178  0  0  0.351167  0  1.005002  0  0  0.292942  0.331886  0  1.029082  0
H  H26  1  0.76441622  0.22039695  0.01650489  1  0  0.065473  0  0.957305  0  0  0.070809  0  1.029042  0  0  0.072099  0  1.028533  0  0  0.114815  0.069772  0  1.029616  0
H  H27  1  0.23557977  0.77960448  0.51650628  1  0  0.065442  0  0.957362  0  0  0.070791  0  1.029081  0  0  0.072081  0  1.02857  0  0  0.114815  0.069752  0  1.029655  0
H  H28  1  0.84263764  0.97791702  0.08478617  1  0  0.070852  0  0.913559  0  0  0.072719  0  0.985275  0  0  0.075209  0  0.982348  0  0  0.113166  0.070807  0  0.98757  0
H  H29  1  0.15735846  0.02208614  0.58478918  1  0  0.070871  0  0.913583  0  0  0.072698  0  0.985286  0  0  0.075212  0  0.982339  0  0  0.113156  0.070786  0  0.98758  0
H  H30  1  0.89798147  0.24649718  0.15050725  1  0  0.371889  0  0.912178  0  0  0.343971  0  0.985777  0  0  0.354336  0  0.974831  0  0  0.310317  0.336674  0  0.993481  0
H  H31  1  0.10201901  0.75350260  0.65050877  1  0  0.371915  0  0.912145  0  0  0.343992  0  0.985756  0  0  0.354365  0  0.974797  0  0  0.310313  0.336698  0  0.99345  0
H  H32  1  0.44407668  0.78080400  0.09550962  1  0  0.056721  0  0.928734  0  0  0.067092  0  0.999343  0  0  0.06712  0  0.999196  0  0  0.102435  0.066933  0  0.999653  0
H  H33  1  0.55592251  0.21919923  0.59551123  1  0  0.056762  0  0.928686  0  0  0.067114  0  0.999305  0  0  0.067138  0  0.999157  0  0  0.102465  0.066956  0  0.999612  0
H  H34  1  0.61204651  0.79913876  0.18726282  1  0  0.068303  0  0.92039  0  0  0.080149  0  0.985814  0  0  0.08148  0  0.984085  0  0  0.105027  0.079077  0  0.987267  0
H  H35  1  0.38795166  0.20085999  0.68726527  1  0  0.068315  0  0.920456  0  0  0.080153  0  0.985879  0  0  0.081481  0  0.98415  0  0  0.105051  0.079081  0  0.987334  0
H  H36  1  0.22257740  0.85576566  0.18201013  1  0  0.385583  0  0.903097  0  0  0.359511  0  0.977812  0  0  0.36919  0  0.966664  0  0  0.307041  0.352659  0  0.985694  0
H  H37  1  0.77741817  0.14423432  0.68201127  1  0  0.385613  0  0.903097  0  0  0.359544  0  0.977804  0  0  0.369222  0  0.966656  0  0  0.307076  0.352694  0  0.98568  0
C  C38  1  0.97675820  0.64712407  0.07331498  1  0  0.514283  0  3.908304  0  0  0.457589  0  4.220275  0  0  0.489831  0  4.217084  0  0  0.200518  0.435843  0  4.221938  0
C  C39  1  0.02324170  0.35287265  0.57331321  1  0  0.514214  0  3.908483  0  0  0.457513  0  4.220432  0  0  0.489755  0  4.217243  0  0  0.200484  0.435769  0  4.22209  0
C  C40  1  0.04230185  0.50458426  0.04736305  1  0  -0.053316  0  3.892269  0  0  -0.072436  0  4.186754  0  0  -0.081286  0  4.203217  0  0  0.013555  -0.067028  0  4.175818  0
C  C41  1  0.95769666  0.49540845  0.54736598  1  0  -0.053305  0  3.892272  0  0  -0.072317  0  4.186761  0  0  -0.081155  0  4.203215  0  0  0.013642  -0.066907  0  4.175818  0
C  C42  1  0.02011353  0.48780792  0.96028681  1  0  0.261229  0  3.890469  0  0  0.22322  0  4.189856  0  0  0.244183  0  4.198961  0  0  0.088522  0.209214  0  4.183439  0
C  C43  1  0.97988930  0.51220033  0.46028386  1  0  0.26145  0  3.890267  0  0  0.223338  0  4.189771  0  0  0.244304  0  4.198867  0  0  0.088659  0.209331  0  4.183351  0
C  C44  1  0.91095217  0.61701352  0.93097425  1  0  0.030676  0  3.587223  0  0  0.002981  0  3.840264  0  0  0.004863  0  3.848677  0  0  0.001011  0.001668  0  3.834574  0
C  C45  1  0.08905035  0.38298943  0.43097542  1  0  0.030678  0  3.586935  0  0  0.002963  0  3.840079  0  0  0.004846  0  3.848491  0  0  0.000966  0.001643  0  3.834387  0
C  C46  1  0.66639727  0.53341277  0.90644272  1  0  0.187286  0  3.605269  0  0  0.158095  0  3.865469  0  0  0.163956  0  3.875105  0  0  0.000126  0.15399  0  3.859099  0
C  C47  1  0.33360910  0.46658748  0.40644373  1  0  0.187282  0  3.605213  0  0  0.158175  0  3.865299  0  0  0.164037  0  3.874932  0  0  0.000127  0.154079  0  3.858914  0
C  C48  1  0.62853771  0.42845262  0.82535206  1  0  0.084479  0  3.61158  0  0  0.022222  0  3.885618  0  0  0.028147  0  3.891212  0  0  -0.070019  0.018167  0  3.881988  0
C  C49  1  0.37146648  0.57154835  0.32535261  1  0  0.084487  0  3.611552  0  0  0.02225  0  3.885501  0  0  0.028188  0  3.891071  0  0  -0.069965  0.018183  0  3.881887  0
C  C50  1  0.40018844  0.98855868  0.92110197  1  0  0.52551  0  3.897212  0  0  0.473701  0  4.200127  0  0  0.506805  0  4.196293  0  0  0.208169  0.451334  0  4.202231  0
C  C51  1  0.59981208  0.01143910  0.42110035  1  0  0.525559  0  3.897205  0  0  0.473815  0  4.200087  0  0  0.506925  0  4.196249  0  0  0.208211  0.451417  0  4.202199  0
C  C52  1  0.28795143  0.08279386  0.96930572  1  0  -0.042291  0  3.902903  0  0  -0.056495  0  4.193676  0  0  -0.065743  0  4.21049  0  0  0.018209  -0.05085  0  4.18257  0
C  C53  1  0.71204929  0.91720934  0.46930592  1  0  -0.042316  0  3.902963  0  0  -0.056508  0  4.193736  0  0  -0.065754  0  4.210544  0  0  0.018207  -0.05087  0  4.182635  0
C  C54  1  0.41601661  0.15309302  0.03910224  1  0  0.249061  0  3.881927  0  0  0.214408  0  4.179207  0  0  0.234584  0  4.189438  0  0  0.084313  0.200766  0  4.17213  0
C  C55  1  0.58397821  0.84690600  0.53910202  1  0  0.249066  0  3.881929  0  0  0.214403  0  4.179241  0  0  0.234581  0  4.189468  0  0  0.084314  0.200756  0  4.172169  0
C  C56  1  0.62752984  0.10453534  0.03270743  1  0  0.051364  0  3.615553  0  0  0.020912  0  3.875035  0  0  0.023425  0  3.884682  0  0  0.001993  0.019187  0  3.868657  0
C  C57  1  0.37246554  0.89546491  0.53270762  1  0  0.051404  0  3.615655  0  0  0.020945  0  3.875181  0  0  0.023464  0  3.884836  0  0  0.001962  0.0192  0  3.868783  0
C  C58  1  0.70501173  0.02049689  0.10783664  1  0  0.170478  0  3.594586  0  0  0.138132  0  3.857679  0  0  0.144399  0  3.864806  0  0  -0.002248  0.133797  0  3.852965  0
C  C59  1  0.29498375  0.97950131  0.60783775  1  0  0.1704  0  3.594828  0  0  0.138168  0  3.857752  0  0  0.144413  0  3.864874  0  0  -0.00224  0.133827  0  3.853044  0
C  C60  1  0.52970204  0.86845602  0.14614467  1  0  0.097101  0  3.621074  0  0  0.032641  0  3.9  0  0  0.039868  0  3.904614  0  0  -0.072612  0.027694  0  3.896895  0
C  C61  1  0.47029374  0.13154372  0.64614558  1  0  0.097051  0  3.621215  0  0  0.032601  0  3.900107  0  0  0.039834  0  3.904719  0  0  -0.072666  0.027652  0  3.897006  0
O  O62  1  0.19367771  0.54025864  0.76058262  1  0  -0.884268  0  1.8189  0  0  -0.829746  0  2.006528  0  0  -0.850444  0  1.975813  0  0  -0.632513  -0.814749  0  2.027978  0
O  O63  1  0.80632107  0.45974315  0.26058548  1  0  -0.884207  0  1.818903  0  0  -0.829705  0  2.006566  0  0  -0.850403  0  1.97585  0  0  -0.632487  -0.814709  0  2.028018  0
O  O64  1  0.91289080  0.94004980  0.78635366  1  0  -0.869829  0  1.813607  0  0  -0.817606  0  1.99489  0  0  -0.836013  0  1.960901  0  0  -0.621945  -0.804296  0  2.018843  0
O  O65  1  0.08711096  0.05995600  0.28635413  1  0  -0.86982  0  1.813706  0  0  -0.81759  0  1.994952  0  0  -0.835998  0  1.96096  0  0  -0.621925  -0.80428  0  2.018905  0
O  O66  1  0.97666475  0.71026542  0.14531406  1  0  -0.56892  0  2.046913  0  0  -0.511086  0  2.265886  0  0  -0.531483  0  2.253885  0  0  -0.2932  -0.496978  0  2.273867  0
O  O67  1  0.02332952  0.28972666  0.64531468  1  0  -0.568968  0  2.046821  0  0  -0.511122  0  2.265792  0  0  -0.531518  0  2.253792  0  0  -0.293236  -0.497016  0  2.273772  0
O  O68  1  0.10535678  0.40625306  0.10571731  1  0  -0.521354  0  2.30202  0  0  -0.449285  0  2.524093  0  0  -0.468128  0  2.515899  0  0  -0.342781  -0.435706  0  2.529545  0
O  O69  1  0.89463878  0.59373748  0.60571738  1  0  -0.521427  0  2.302134  0  0  -0.449468  0  2.524259  0  0  -0.468341  0  2.516093  0  0  -0.342852  -0.435896  0  2.529702  0
O  O70  1  0.06877394  0.38407224  0.90901421  1  0  -0.543351  0  2.093436  0  0  -0.47956  0  2.315542  0  0  -0.502765  0  2.307631  0  0  -0.304893  -0.463489  0  2.320341  0
O  O71  1  0.93123608  0.61592932  0.40901724  1  0  -0.543421  0  2.093721  0  0  -0.479576  0  2.315837  0  0  -0.502783  0  2.307929  0  0  -0.304936  -0.46351  0  2.32063  0
O  O72  1  0.90673604  0.71986071  0.00553178  1  0  -0.313979  0  2.245368  0  0  -0.251621  0  2.485965  0  0  -0.270614  0  2.485525  0  0  -0.164014  -0.238445  0  2.485929  0
O  O73  1  0.09326738  0.28013939  0.50553228  1  0  -0.313981  0  2.245442  0  0  -0.251631  0  2.486053  0  0  -0.270626  0  2.485617  0  0  -0.164033  -0.238453  0  2.486015  0
O  O74  1  0.56077875  0.66188964  0.89495576  1  0  -0.596724  0  2.113799  0  0  -0.544235  0  2.353794  0  0  -0.561548  0  2.34199  0  0  -0.412845  -0.531645  0  2.361789  0
O  O75  1  0.43922559  0.33810925  0.39495572  1  0  -0.596711  0  2.113799  0  0  -0.544239  0  2.353776  0  0  -0.561555  0  2.341968  0  0  -0.412812  -0.531651  0  2.361774  0
O  O76  1  0.67206076  0.53912690  0.75342515  1  0  -0.604266  0  2.157622  0  0  -0.542824  0  2.403205  0  0  -0.561144  0  2.390374  0  0  -0.4371  -0.529571  0  2.412119  0
O  O77  1  0.32793861  0.46087230  0.25342616  1  0  -0.604236  0  2.157679  0  0  -0.542831  0  2.403256  0  0  -0.561156  0  2.390431  0  0  -0.437118  -0.529577  0  2.412175  0
O  O78  1  0.34762270  0.91019640  0.85348601  1  0  -0.589093  0  2.053958  0  0  -0.53416  0  2.293815  0  0  -0.557745  0  2.285044  0  0  -0.325737  -0.517555  0  2.299377  0
O  O79  1  0.65237296  0.08979963  0.35348449  1  0  -0.589116  0  2.054045  0  0  -0.534187  0  2.293882  0  0  -0.557774  0  2.285109  0  0  -0.325761  -0.517586  0  2.299457  0
O  O80  1  0.08509930  0.08962232  0.94490125  1  0  -0.499516  0  2.238403  0  0  -0.447387  0  2.473603  0  0  -0.462098  0  2.462282  0  0  -0.363621  -0.436724  0  2.480041  0
O  O81  1  0.91489998  0.91038071  0.44490241  1  0  -0.499399  0  2.238629  0  0  -0.447279  0  2.473851  0  0  -0.461992  0  2.462524  0  0  -0.363608  -0.43661  0  2.480282  0
O  O82  1  0.38776112  0.25462053  0.09773159  1  0  -0.603068  0  2.051543  0  0  -0.545341  0  2.294372  0  0  -0.569854  0  2.286828  0  0  -0.34601  -0.527857  0  2.298982  0
O  O83  1  0.61223545  0.74538017  0.59773112  1  0  -0.60308  0  2.05155  0  0  -0.545358  0  2.294393  0  0  -0.569868  0  2.286841  0  0  -0.346022  -0.527882  0  2.298999  0
O  O84  1  0.59590413  0.99184588  0.96027116  1  0  -0.330721  0  2.256276  0  0  -0.263857  0  2.491674  0  0  -0.282826  0  2.490211  0  0  -0.160967  -0.25083  0  2.492415  0
O  O85  1  0.40409458  0.00815215  0.46027297  1  0  -0.330696  0  2.256225  0  0  -0.263968  0  2.491705  0  0  -0.282955  0  2.490256  0  0  -0.160945  -0.250867  0  2.492404  0
O  O86  1  0.78023325  0.14532085  0.17394274  1  0  -0.598115  0  2.125854  0  0  -0.530292  0  2.349076  0  0  -0.55045  0  2.338639  0  0  -0.400039  -0.515781  0  2.35603  0
O  O87  1  0.21976343  0.85467780  0.67394495  1  0  -0.598122  0  2.126011  0  0  -0.530227  0  2.349087  0  0  -0.550384  0  2.338648  0  0  -0.400007  -0.515718  0  2.356039  0
O  O88  1  0.37685727  0.92700752  0.19411133  1  0  -0.609325  0  2.151289  0  0  -0.547699  0  2.390323  0  0  -0.567799  0  2.381238  0  0  -0.434776  -0.533141  0  2.396205  0
O  O89  1  0.62314032  0.07299382  0.69411190  1  0  -0.609354  0  2.151374  0  0  -0.547739  0  2.390411  0  0  -0.567847  0  2.381327  0  0  -0.434832  -0.533181  0  2.396289  0
