# generated using pymatgen
data_ZnH13C19N5O4
_symmetry_space_group_name_H-M   'P 1'
_cell_length_a   9.13832081
_cell_length_b   11.12876486
_cell_length_c   11.61921625
_cell_angle_alpha   84.70660047
_cell_angle_beta   68.87916713
_cell_angle_gamma   71.25984923
_symmetry_Int_Tables_number   1
_chemical_formula_structural   ZnH13C19N5O4
_chemical_formula_sum   'Zn2 H26 C38 N10 O8'
_cell_volume   1043.46680399
_cell_formula_units_Z   2
loop_
 _symmetry_equiv_pos_site_id
 _symmetry_equiv_pos_as_xyz
  1  'x, y, z'
loop_
 _atom_site_type_symbol
 _atom_site_label
 _atom_site_symmetry_multiplicity
 _atom_site_fract_x
 _atom_site_fract_y
 _atom_site_fract_z
 _atom_site_occupancy
 _atom_site_hle17_bader_spin_density
 _atom_site_hle17_ddec_charge
 _atom_site_hle17_ddec_spin_density
 _atom_site_hle17_ddec_sum_bond_order
 _atom_site_hle17_magmom
 _atom_site_hse06_10hf_bader_spin_density
 _atom_site_hse06_10hf_ddec_charge
 _atom_site_hse06_10hf_ddec_spin_density
 _atom_site_hse06_10hf_ddec_sum_bond_order
 _atom_site_hse06_10hf_magmom
 _atom_site_hse06_bader_spin_density
 _atom_site_hse06_ddec_charge
 _atom_site_hse06_ddec_spin_density
 _atom_site_hse06_ddec_sum_bond_order
 _atom_site_hse06_magmom
 _atom_site_pbe_bader_spin_density
 _atom_site_pbe_cm5_charge
 _atom_site_pbe_ddec_charge
 _atom_site_pbe_ddec_spin_density
 _atom_site_pbe_ddec_sum_bond_order
 _atom_site_pbe_magmom
Zn  Zn0  1  0.40016896  0.30482634  0.30863121  1  0  1.009383  0  1.895309  0  0  0.819389  0  2.379423  0  0  0.865277  0  2.323858  0  0  0.697773  0.787407  0  2.417644  0
Zn  Zn1  1  0.59983946  0.69517774  0.69136731  1  0  1.009358  0  1.895339  0  0  0.819364  0  2.379448  0  0  0.865248  0  2.323886  0  0  0.697752  0.787373  0  2.417668  0
H  H2  1  0.92679978  0.72790651  0.05136089  1  0  0.090967  0  0.9235  0  0  0.101884  0  0.980471  0  0  0.104454  0  0.979278  0  0  0.121175  0.099954  0  0.981448  0
H  H3  1  0.07319481  0.27209379  0.94863872  1  0  0.090936  0  0.923495  0  0  0.101898  0  0.98043  0  0  0.104443  0  0.979271  0  0  0.121185  0.099968  0  0.981405  0
H  H4  1  0.37849441  0.42989550  0.86971750  1  0  0.129237  0  0.930845  0  0  0.144433  0  0.982669  0  0  0.147222  0  0.980951  0  0  0.12448  0.142394  0  0.984019  0
H  H5  1  0.62150018  0.57010480  0.13028211  1  0  0.129193  0  0.930855  0  0  0.144381  0  0.9827  0  0  0.147165  0  0.980988  0  0  0.124469  0.142343  0  0.984049  0
H  H6  1  0.03578211  0.63271185  0.68769478  1  0  0.095945  0  0.990995  0  0  0.101118  0  1.059106  0  0  0.103764  0  1.05774  0  0  0.114883  0.099146  0  1.060175  0
H  H7  1  0.96420736  0.36728369  0.31230681  1  0  0.095885  0  0.990997  0  0  0.10112  0  1.059057  0  0  0.103767  0  1.057686  0  0  0.114881  0.09915  0  1.060128  0
H  H8  1  0.13417254  0.59751922  0.37583249  1  0  0.118925  0  0.994582  0  0  0.124818  0  1.059691  0  0  0.128582  0  1.056877  0  0  0.117049  0.122092  0  1.061649  0
H  H9  1  0.86582674  0.40248108  0.62416570  1  0  0.118917  0  0.99466  0  0  0.124801  0  1.05978  0  0  0.128564  0  1.056968  0  0  0.117033  0.122076  0  1.061736  0
H  H10  1  0.02353750  0.72721465  0.19512806  1  0  0.122797  0  0.949539  0  0  0.134144  0  1.005923  0  0  0.136708  0  1.00514  0  0  0.130526  0.132197  0  1.006736  0
H  H11  1  0.97645581  0.27277996  0.80487073  1  0  0.122829  0  0.949448  0  0  0.134149  0  1.005874  0  0  0.136715  0  1.005089  0  0  0.130537  0.132199  0  1.006691  0
H  H12  1  0.38338803  0.37079843  0.04897594  1  0  0.121796  0  0.976831  0  0  0.128642  0  1.040311  0  0  0.132817  0  1.034383  0  0  0.1397  0.125441  0  1.04478  0
H  H13  1  0.61661677  0.62919997  0.95102248  1  0  0.12183  0  0.976847  0  0  0.128682  0  1.04032  0  0  0.132853  0  1.034395  0  0  0.139704  0.12548  0  1.04479  0
H  H14  1  0.55871704  0.37581146  0.68074270  1  0  0.115747  0  0.961867  0  0  0.126443  0  1.022529  0  0  0.128677  0  1.021922  0  0  0.125775  0.124842  0  1.022992  0
H  H15  1  0.44127850  0.62418120  0.31926334  1  0  0.115843  0  0.961821  0  0  0.126532  0  1.022478  0  0  0.128768  0  1.021868  0  0  0.125818  0.124932  0  1.022942  0
H  H16  1  0.65283928  0.26385118  0.45036678  1  0  0.120825  0  0.935584  0  0  0.130882  0  0.992414  0  0  0.133336  0  0.991623  0  0  0.128319  0.129067  0  0.993094  0
H  H17  1  0.34715711  0.73614528  0.54963952  1  0  0.120826  0  0.93557  0  0  0.130913  0  0.99236  0  0  0.133364  0  0.991566  0  0  0.128321  0.129096  0  0.993038  0
H  H18  1  0.14651756  0.47248916  0.56211353  1  0  0.116062  0  0.949713  0  0  0.122039  0  1.018153  0  0  0.124968  0  1.014354  0  0  0.142323  0.119922  0  1.020718  0
H  H19  1  0.85348288  0.52751400  0.43788319  1  0  0.116013  0  0.949682  0  0  0.12199  0  1.018133  0  0  0.124919  0  1.014334  0  0  0.142296  0.119875  0  1.020699  0
H  H20  1  0.82048257  0.09092493  0.87544629  1  0  0.097457  0  0.953403  0  0  0.105144  0  1.017627  0  0  0.108927  0  1.015105  0  0  0.099074  0.102444  0  1.019454  0
H  H21  1  0.17952353  0.90907345  0.12455518  1  0  0.097407  0  0.953425  0  0  0.105106  0  1.017646  0  0  0.10889  0  1.015123  0  0  0.099052  0.102408  0  1.019473  0
H  H22  1  0.10206732  0.93359692  0.77891019  1  0  0.101612  0  0.946361  0  0  0.110584  0  1.007091  0  0  0.114193  0  1.005211  0  0  0.100662  0.108007  0  1.008525  0
H  H23  1  0.89793481  0.06639671  0.22109205  1  0  0.101592  0  0.946369  0  0  0.110565  0  1.007101  0  0  0.114174  0  1.005219  0  0  0.100664  0.107991  0  1.008537  0
H  H24  1  0.26813840  0.96668451  0.32661965  1  0  0.109596  0  0.935454  0  0  0.119797  0  0.991386  0  0  0.123976  0  0.988502  0  0  0.10808  0.116759  0  0.993568  0
H  H25  1  0.73186212  0.03332149  0.67337851  1  0  0.109522  0  0.935448  0  0  0.119766  0  0.991339  0  0  0.123946  0  0.988459  0  0  0.108062  0.116716  0  0.993516  0
H  H26  1  0.14696680  0.78767595  0.39604498  1  0  0.080813  0  0.982439  0  0  0.089975  0  1.049653  0  0  0.092776  0  1.048596  0  0  0.094485  0.087861  0  1.050607  0
H  H27  1  0.85303670  0.21233103  0.60394789  1  0  0.080824  0  0.982236  0  0  0.089996  0  1.049468  0  0  0.092807  0  1.048383  0  0  0.094523  0.087884  0  1.050415  0
C  C28  1  0.01337126  0.66808465  0.97068834  1  0  0.026286  0  3.719402  0  0  -0.01142  0  3.993542  0  0  -0.009104  0  4.010617  0  0  0.044378  -0.01251  0  3.981634  0
C  C29  1  0.98662375  0.33191469  0.02931209  1  0  0.026322  0  3.719344  0  0  -0.011462  0  3.993512  0  0  -0.009127  0  4.010594  0  0  0.044358  -0.01255  0  3.981601  0
C  C30  1  0.15905819  0.57761516  0.97446550  1  0  0.157498  0  3.779197  0  0  0.15191  0  4.029887  0  0  0.155157  0  4.053391  0  0  0.107537  0.149459  0  4.014167  0
C  C31  1  0.84093884  0.42238513  0.02553595  1  0  0.157364  0  3.779132  0  0  0.151834  0  4.02978  0  0  0.15508  0  4.053276  0  0  0.107493  0.149387  0  4.014058  0
C  C32  1  0.26533544  0.50213281  0.86936865  1  0  -0.179247  0  3.671167  0  0  -0.21554  0  3.928389  0  0  -0.217798  0  3.945911  0  0  -0.070825  -0.214237  0  3.917058  0
C  C33  1  0.73465529  0.49786558  0.13063402  1  0  -0.179074  0  3.671168  0  0  -0.215381  0  3.928381  0  0  -0.217633  0  3.945902  0  0  -0.070792  -0.214078  0  3.91705  0
C  C34  1  0.22044907  0.52092364  0.76504950  1  0  0.148519  0  3.786885  0  0  0.143209  0  4.038608  0  0  0.146961  0  4.060595  0  0  0.102467  0.140431  0  4.023915  0
C  C35  1  0.77954525  0.47907474  0.23495381  1  0  0.148486  0  3.786928  0  0  0.143166  0  4.038673  0  0  0.146919  0  4.060659  0  0  0.102479  0.140389  0  4.023984  0
C  C36  1  0.07311670  0.61472048  0.76864322  1  0  0.027374  0  3.688975  0  0  -0.008812  0  3.95726  0  0  -0.006371  0  3.973998  0  0  0.04202  -0.010079  0  3.945758  0
C  C37  1  0.92687392  0.38527507  0.23135716  1  0  0.027329  0  3.689058  0  0  -0.008903  0  3.957335  0  0  -0.006464  0  3.974074  0  0  0.04198  -0.010171  0  3.945836  0
C  C38  1  0.17296448  0.57021095  0.27932260  1  0  -0.007666  0  3.73722  0  0  -0.041236  0  4.006619  0  0  -0.040524  0  4.026469  0  0  -0.002597  -0.041578  0  3.99305  0
C  C39  1  0.82703284  0.42978840  0.72067627  1  0  -0.007786  0  3.737225  0  0  -0.041351  0  4.006616  0  0  -0.040642  0  4.026473  0  0  -0.002665  -0.041695  0  3.993045  0
C  C40  1  0.11173969  0.63425214  0.19186420  1  0  -0.051505  0  3.64729  0  0  -0.09501  0  3.910362  0  0  -0.093842  0  3.929817  0  0  0.006228  -0.095692  0  3.897281  0
C  C41  1  0.88825339  0.36574624  0.80813776  1  0  -0.051533  0  3.64742  0  0  -0.095029  0  3.910505  0  0  -0.093859  0  3.929954  0  0  0.006164  -0.095711  0  3.897424  0
C  C42  1  0.30145176  0.45129121  0.11074171  1  0  0.18536  0  3.610232  0  0  0.119376  0  3.877716  0  0  0.134823  0  3.887059  0  0  0.152065  0.109389  0  3.87123  0
C  C43  1  0.69855142  0.54870814  0.88925538  1  0  0.185279  0  3.610392  0  0  0.119279  0  3.877876  0  0  0.134729  0  3.887224  0  0  0.152025  0.109293  0  3.871386  0
C  C44  1  0.48839007  0.37798664  0.62256406  1  0  -0.057711  0  3.656476  0  0  -0.098146  0  3.914811  0  0  -0.097532  0  3.93483  0  0  0.004503  -0.098643  0  3.901387  0
C  C45  1  0.51160585  0.62200793  0.37744084  1  0  -0.057838  0  3.656535  0  0  -0.098262  0  3.914881  0  0  -0.097648  0  3.934894  0  0  0.004454  -0.098761  0  3.901458  0
C  C46  1  0.53398634  0.32448292  0.50847043  1  0  0.021795  0  3.710434  0  0  -0.013671  0  3.974862  0  0  -0.011468  0  3.994593  0  0  0.009038  -0.01503  0  3.961596  0
C  C47  1  0.46600801  0.67551545  0.49153373  1  0  0.021774  0  3.710321  0  0  -0.013715  0  3.974778  0  0  -0.011506  0  3.994501  0  0  0.009041  -0.015071  0  3.961505  0
C  C48  1  0.27172381  0.43159942  0.56147633  1  0  0.178041  0  3.610519  0  0  0.115881  0  3.874277  0  0  0.130133  0  3.886508  0  0  0.155506  0.106527  0  3.865923  0
C  C49  1  0.72827825  0.56840278  0.43852171  1  0  0.178068  0  3.610447  0  0  0.115904  0  3.874223  0  0  0.130155  0  3.886453  0  0  0.155507  0.106547  0  3.865871  0
C  C50  1  0.84354573  0.08815405  0.05337677  1  0  -0.06493  0  3.762542  0  0  -0.041851  0  3.992205  0  0  -0.048953  0  4.01614  0  0  -0.021905  -0.03721  0  3.975956  0
C  C51  1  0.15645764  0.91184528  0.94662544  1  0  -0.065056  0  3.762691  0  0  -0.041942  0  3.992348  0  0  -0.049041  0  4.016285  0  0  -0.021851  -0.037298  0  3.976094  0
C  C52  1  0.90097616  0.05095050  0.92866719  1  0  -0.087222  0  3.75677  0  0  -0.10855  0  4.006324  0  0  -0.110134  0  4.027261  0  0  -0.09028  -0.1072  0  3.991963  0
C  C53  1  0.09902829  0.94904885  0.07133210  1  0  -0.087092  0  3.756795  0  0  -0.108451  0  4.00636  0  0  -0.110034  0  4.027294  0  0  -0.090247  -0.107105  0  3.992005  0
C  C54  1  0.05659448  0.96383333  0.87541025  1  0  -0.075575  0  3.747203  0  0  -0.099231  0  3.997362  0  0  -0.100069  0  4.017757  0  0  -0.090325  -0.098599  0  3.983445  0
C  C55  1  0.94340764  0.03616316  0.12459087  1  0  -0.075595  0  3.747168  0  0  -0.099244  0  3.997345  0  0  -0.100079  0  4.017739  0  0  -0.090332  -0.098617  0  3.983438  0
C  C56  1  0.67680219  0.18453308  0.10804869  1  0  0.636183  0  3.934108  0  0  0.590053  0  4.225268  0  0  0.623864  0  4.217964  0  0  0.194813  0.567128  0  4.229398  0
C  C57  1  0.32320392  0.81547100  0.89195140  1  0  0.636385  0  3.933804  0  0  0.590212  0  4.225012  0  0  0.624021  0  4.21771  0  0  0.194879  0.567285  0  4.229142  0
C  C58  1  0.06738413  0.09989973  0.46096567  1  0  -0.053777  0  3.753119  0  0  -0.030825  0  3.981231  0  0  -0.037522  0  4.00427  0  0  -0.01656  -0.026342  0  3.965649  0
C  C59  1  0.93262175  0.90010439  0.53902846  1  0  -0.05387  0  3.75332  0  0  -0.030928  0  3.981483  0  0  -0.037621  0  4.004518  0  0  -0.016586  -0.026442  0  3.965895  0
C  C60  1  0.15090452  0.97989051  0.40240504  1  0  -0.069149  0  3.732751  0  0  -0.091662  0  3.977914  0  0  -0.092608  0  3.997992  0  0  -0.082707  -0.091076  0  3.964365  0
C  C61  1  0.84910361  0.02011363  0.59758582  1  0  -0.06911  0  3.732736  0  0  -0.091644  0  3.9779  0  0  -0.092599  0  3.997986  0  0  -0.082718  -0.09104  0  3.964333  0
C  C62  1  0.08367891  0.88101813  0.44138282  1  0  -0.089066  0  3.767582  0  0  -0.108805  0  4.012835  0  0  -0.110431  0  4.03473  0  0  -0.090542  -0.107639  0  3.998029  0
C  C63  1  0.91633247  0.11898409  0.55861067  1  0  -0.08902  0  3.767425  0  0  -0.108796  0  4.012682  0  0  -0.110418  0  4.034584  0  0  -0.090583  -0.107629  0  3.997873  0
C  C64  1  0.14114324  0.20600891  0.42032175  1  0  0.638962  0  3.92049  0  0  0.591588  0  4.210417  0  0  0.625736  0  4.202639  0  0  0.202523  0.568491  0  4.214709  0
C  C65  1  0.85885971  0.79399992  0.57967714  1  0  0.639046  0  3.920671  0  0  0.591623  0  4.210663  0  0  0.625772  0  4.202884  0  0  0.202566  0.568522  0  4.214953  0
N  N66  1  0.97183187  0.68571546  0.86992179  1  0  -0.243762  0  3.080568  0  0  -0.210735  0  3.353966  0  0  -0.219081  0  3.369584  0  0  -0.309681  -0.205147  0  3.343133  0
N  N67  1  0.02816276  0.31428198  0.13007979  1  0  -0.243689  0  3.080529  0  0  -0.210649  0  3.353964  0  0  -0.218993  0  3.369572  0  0  -0.309651  -0.205059  0  3.343131  0
N  N68  1  0.29157836  0.45686557  0.22702335  1  0  -0.382396  0  3.321087  0  0  -0.301014  0  3.628474  0  0  -0.321018  0  3.639428  0  0  -0.355812  -0.287565  0  3.620819  0
N  N69  1  0.70842055  0.54313853  0.77297460  1  0  -0.382293  0  3.320941  0  0  -0.300892  0  3.628328  0  0  -0.320893  0  3.639279  0  0  -0.355745  -0.287441  0  3.620669  0
N  N70  1  0.19365281  0.55773901  0.08515633  1  0  -0.083891  0  3.597379  0  0  0.004364  0  3.809738  0  0  -0.011063  0  3.836704  0  0  -0.220359  0.014603  0  3.791373  0
N  N71  1  0.80634255  0.44225939  0.91484322  1  0  -0.083831  0  3.59751  0  0  0.004423  0  3.809831  0  0  -0.011001  0  3.836795  0  0  -0.220271  0.014661  0  3.791465  0
N  N72  1  0.39805923  0.35895547  0.47174894  1  0  -0.367571  0  3.287818  0  0  -0.286655  0  3.584623  0  0  -0.305943  0  3.596049  0  0  -0.348914  -0.273763  0  3.576866  0
N  N73  1  0.60194243  0.64104483  0.52824940  1  0  -0.367492  0  3.287703  0  0  -0.286583  0  3.584521  0  0  -0.305868  0  3.595946  0  0  -0.348853  -0.273686  0  3.576758  0
N  N74  1  0.32158138  0.44640422  0.65560763  1  0  -0.087424  0  3.60014  0  0  0.001935  0  3.809265  0  0  -0.013204  0  3.83574  0  0  -0.220838  0.012093  0  3.791271  0
N  N75  1  0.67841567  0.55359321  0.34439494  1  0  -0.087368  0  3.600162  0  0  0.001995  0  3.80929  0  0  -0.013143  0  3.835766  0  0  -0.220825  0.012153  0  3.791298  0
O  O76  1  0.63394111  0.21447550  0.22398531  1  0  -0.661565  0  2.035279  0  0  -0.587728  0  2.306763  0  0  -0.616088  0  2.290933  0  0  -0.346497  -0.567835  0  2.316905  0
O  O77  1  0.36606538  0.78552193  0.77601613  1  0  -0.661617  0  2.035217  0  0  -0.587804  0  2.306782  0  0  -0.616157  0  2.290933  0  0  -0.34651  -0.567909  0  2.316915  0
O  O78  1  0.59130232  0.23065192  0.04191352  1  0  -0.617951  0  1.907224  0  0  -0.576063  0  2.12029  0  0  -0.597906  0  2.110223  0  0  -0.334766  -0.560751  0  2.126698  0
O  O79  1  0.40870421  0.76935691  0.95808601  1  0  -0.617982  0  1.906967  0  0  -0.576081  0  2.120067  0  0  -0.597924  0  2.110001  0  0  -0.33481  -0.56077  0  2.126474  0
O  O80  1  0.29206451  0.17241855  0.34557772  1  0  -0.623548  0  2.037956  0  0  -0.550832  0  2.296686  0  0  -0.5787  0  2.280424  0  0  -0.329023  -0.531315  0  2.307169  0
O  O81  1  0.70794030  0.82758555  0.65441932  1  0  -0.623651  0  2.038047  0  0  -0.550895  0  2.296774  0  0  -0.578762  0  2.280513  0  0  -0.329117  -0.531378  0  2.307254  0
O  O82  1  0.05676218  0.31834615  0.45923730  1  0  -0.647221  0  1.938216  0  0  -0.5998  0  2.169726  0  0  -0.622984  0  2.15993  0  0  -0.333758  -0.583426  0  2.175617  0
O  O83  1  0.94324054  0.68165790  0.54076725  1  0  -0.647134  0  1.938209  0  0  -0.599711  0  2.169746  0  0  -0.622895  0  2.159953  0  0  -0.333678  -0.583336  0  2.175634  0
