# generated using pymatgen
data_Zn4H12C44O21F8
_symmetry_space_group_name_H-M   'P 1'
_cell_length_a   23.70213803
_cell_length_b   23.70323914
_cell_length_c   23.70192293
_cell_angle_alpha   65.80011062
_cell_angle_beta   72.84463904
_cell_angle_gamma   107.16255669
_symmetry_Int_Tables_number   1
_chemical_formula_structural   Zn4H12C44O21F8
_chemical_formula_sum   'Zn8 H24 C88 O42 F16'
_cell_volume   10198.19453478
_cell_formula_units_Z   2
loop_
 _symmetry_equiv_pos_site_id
 _symmetry_equiv_pos_as_xyz
  1  'x, y, z'
loop_
 _atom_site_type_symbol
 _atom_site_label
 _atom_site_symmetry_multiplicity
 _atom_site_fract_x
 _atom_site_fract_y
 _atom_site_fract_z
 _atom_site_occupancy
 _atom_site_pbe_bader_charge
 _atom_site_pbe_bader_spin_density
 _atom_site_pbe_cm5_charge
 _atom_site_pbe_ddec_charge
 _atom_site_pbe_ddec_spin_density
 _atom_site_pbe_ddec_sum_bond_order
 _atom_site_pbe_magmom
Zn  Zn0  1  0.06000121  0.95961505  0.48435783  1  1.320047  0  0.681442  0.971591  0  2.352538  0
Zn  Zn1  1  0.06000242  0.10038381  0.45563874  1  1.319286  0  0.681562  0.971739  0  2.352367  0
Zn  Zn2  1  0.93999544  0.98436444  0.45960951  1  1.319973  0  0.681482  0.97156  0  2.352443  0
Zn  Zn3  1  0.94000754  0.95564008  0.60038019  1  1.319385  0  0.681538  0.971701  0  2.35229  0
Zn  Zn4  1  0.94397541  0.54435837  0.01563882  1  1.321306  0  0.681514  0.971654  0  2.352383  0
Zn  Zn5  1  0.05603253  0.51563903  0.04436076  1  1.32119  0  0.681508  0.971642  0  2.352477  0
Zn  Zn6  1  0.94398193  0.39961876  0.04038301  1  1.321646  0  0.681514  0.971658  0  2.35246  0
Zn  Zn7  1  0.05601965  0.54038550  0.89960949  1  1.32165  0  0.681477  0.971616  0  2.352494  0
H  H8  1  0.92149996  0.65276447  0.11479235  1  0.152761  0  0.121896  0.157248  0  0.973418  0
H  H9  1  0.07851506  0.61477401  0.15278060  1  0.152437  0  0.121994  0.157394  0  0.97311  0
H  H10  1  0.92772870  0.89597786  0.34236516  1  0.136294  0  0.12421  0.161256  0  0.969249  0
H  H11  1  0.07219549  0.84234402  0.39602598  1  0.13549  0  0.124235  0.161245  0  0.969307  0
H  H12  1  0.07849926  0.46369498  0.76873110  1  0.151783  0  0.12189  0.157191  0  0.973436  0
H  H13  1  0.92148576  0.26871316  0.96374348  1  0.151659  0  0.122013  0.157398  0  0.973086  0
H  H14  1  0.07221510  0.22987831  0.53176900  1  0.155139  0  0.124226  0.161272  0  0.969365  0
H  H15  1  0.92776014  0.03176223  0.72986634  1  0.154938  0  0.124254  0.161284  0  0.969394  0
H  H16  1  0.73836680  0.46821900  0.10398241  1  0.14819  0  0.124219  0.161222  0  0.969295  0
H  H17  1  0.73836088  0.27010871  0.15764277  1  0.137215  0  0.124198  0.161113  0  0.96939  0
H  H18  1  0.26755575  0.23127996  0.34722648  1  0.137103  0  0.121881  0.157235  0  0.973265  0
H  H19  1  0.26756766  0.03629658  0.38519811  1  0.157513  0  0.121889  0.157282  0  0.973233  0
H  H20  1  0.26164976  0.60399538  0.96823020  1  0.148035  0  0.124288  0.161281  0  0.969381  0
H  H21  1  0.26163326  0.65765378  0.77011562  1  0.137441  0  0.124195  0.161174  0  0.969259  0
H  H22  1  0.73246214  0.84722208  0.73127764  1  0.136777  0  0.122031  0.15731  0  0.973154  0
H  H23  1  0.73242447  0.88519896  0.53628889  1  0.157361  0  0.121916  0.157263  0  0.973188  0
H  H24  1  0.83667611  0.73221556  0.81151265  1  0.638548  0  0.350049  0.386994  0  0.844169  0
H  H25  1  0.04375716  0.64822030  0.68844311  1  0.63646  0  0.349976  0.386852  0  0.844479  0
H  H26  1  0.95623990  0.76777166  0.89555583  1  0.621184  0  0.349888  0.386756  0  0.844353  0
H  H27  1  0.16333251  0.85180312  0.60445861  1  0.6297  0  0.350042  0.386983  0  0.844334  0
H  H28  1  0.83666497  0.10446293  0.35179361  1  0.628961  0  0.34995  0.38694  0  0.844336  0
H  H29  1  0.04374487  0.39553952  0.26779778  1  0.620803  0  0.349968  0.386885  0  0.844385  0
H  H30  1  0.95625447  0.18847823  0.14819569  1  0.636574  0  0.349871  0.386806  0  0.844337  0
H  H31  1  0.16333220  0.31153917  0.23221944  1  0.638696  0  0.349801  0.386671  0  0.844295  0
C  C32  1  0.18490683  0.09245705  0.40754547  1  1.535098  0  0.230132  0.604095  0  4.159928  0
C  C33  1  0.00000360  0.13730793  0.36268262  1  1.567858  0  0.230873  0.60404  0  4.161913  0
C  C34  1  0.99996452  0.91036167  0.41039110  1  1.555963  0  0.233883  0.608191  0  4.149759  0
C  C35  1  0.81509682  0.90754379  0.59245263  1  1.535029  0  0.230121  0.604091  0  4.160151  0
C  C36  1  0.00000513  0.86268971  0.63730635  1  1.56789  0  0.231011  0.604347  0  4.161782  0
C  C37  1  0.99999551  0.08962538  0.58961589  1  1.563303  0  0.234051  0.60836  0  4.149447  0
C  C38  1  0.00000588  0.59245110  0.09245423  1  1.536116  0  0.229995  0.603884  0  4.160201  0
C  C39  1  0.00001283  0.36269883  0.13730253  1  1.559711  0  0.231025  0.604309  0  4.161784  0
C  C40  1  0.82075829  0.41036201  0.08962362  1  1.524223  0  0.233889  0.608071  0  4.150069  0
C  C41  1  0.99999262  0.40754137  0.90755130  1  1.548154  0  0.230092  0.604077  0  4.159799  0
C  C42  1  0.99999567  0.63730689  0.86269173  1  1.559499  0  0.230849  0.604128  0  4.162125  0
C  C43  1  0.17924648  0.58962892  0.91037179  1  1.524253  0  0.233924  0.608163  0  4.149523  0
C  C44  1  0.00000315  0.80446209  0.69553138  1  0.075367  0  0.001647  -0.039596  0  3.907109  0
C  C45  1  0.99999248  0.69553198  0.80446505  1  0.037169  0  0.001639  -0.039553  0  3.907008  0
C  C46  1  0.95718588  0.77774204  0.76600873  1  -0.004614  0  -0.001228  -0.088543  0  3.960215  0
C  C47  1  0.04375702  0.72319511  0.73398834  1  0.061923  0  -0.001207  -0.088725  0  3.960218  0
C  C48  1  0.95624006  0.72225526  0.82056383  1  -0.065757  0  -0.001239  -0.088745  0  3.960408  0
C  C49  1  0.04282125  0.77680443  0.67943639  1  -0.030843  0  -0.001324  -0.088657  0  3.960495  0
C  C50  1  0.99999643  0.19553478  0.30446064  1  0.075853  0  0.001788  -0.039303  0  3.906941  0
C  C51  1  0.00000611  0.30446900  0.19553914  1  0.036152  0  0.001793  -0.039221  0  3.906907  0
C  C52  1  0.95717628  0.17943970  0.27680058  1  -0.030988  0  -0.001321  -0.088675  0  3.960701  0
C  C53  1  0.04376229  0.32056351  0.22226265  1  -0.064693  0  -0.001301  -0.088856  0  3.960788  0
C  C54  1  0.95624491  0.23399415  0.22319069  1  0.061666  0  -0.001234  -0.088759  0  3.960247  0
C  C55  1  0.04281823  0.26600879  0.27774855  1  -0.004987  0  -0.001316  -0.08878  0  3.960462  0
C  C56  1  0.00000888  0.62988805  0.12989932  1  0.088647  0  -0.011306  0.016898  0  3.998896  0
C  C57  1  0.95581576  0.65802631  0.13656244  1  -0.001853  0  -0.094793  -0.241669  0  3.978807  0
C  C58  1  0.95680294  0.69275185  0.17127666  1  0.470947  0  0.113907  0.274507  0  4.03554  0
C  C59  1  0.00000662  0.70085767  0.20090378  1  0.184306  0  -0.007651  -0.071249  0  4.121784  0
C  C60  1  0.04321272  0.67123886  0.19278827  1  0.469203  0  0.11406  0.274039  0  4.035991  0
C  C61  1  0.04420036  0.63654072  0.15804467  1  -0.000865  0  -0.094978  -0.241659  0  3.979039  0
C  C62  1  0.99999745  0.73612573  0.23618052  1  -0.022463  0  -0.030979  -0.054173  0  4.126368  0
C  C63  1  0.99997911  0.76676093  0.26679947  1  -0.226316  0  -0.028027  -0.046801  0  4.126453  0
C  C64  1  0.99996503  0.80203094  0.30207394  1  0.18139  0  -0.009118  -0.076237  0  4.124624  0
C  C65  1  0.95963263  0.83524624  0.30654014  1  0.47707  0  0.114747  0.275775  0  4.035884  0
C  C66  1  0.95907240  0.87051201  0.34070095  1  0.020837  0  -0.092368  -0.238227  0  3.968094  0
C  C67  1  0.99995862  0.87291747  0.37296204  1  0.083616  0  -0.009799  0.017643  0  3.992675  0
C  C68  1  0.04084823  0.84066450  0.37056076  1  0.019814  0  -0.092483  -0.238259  0  3.968578  0
C  C69  1  0.04029763  0.80651187  0.33528970  1  0.477748  0  0.115012  0.27609  0  4.036225  0
C  C70  1  0.99999242  0.37008762  0.87012185  1  0.183984  0  -0.011248  0.016801  0  3.9989  0
C  C71  1  0.04418053  0.40761075  0.79779129  1  -0.045595  0  -0.094865  -0.241638  0  3.978481  0
C  C72  1  0.04319050  0.37190242  0.76405426  1  0.459835  0  0.114245  0.274918  0  4.034562  0
C  C73  1  0.99998483  0.29907471  0.79915296  1  0.200767  0  -0.007756  -0.071377  0  4.122144  0
C  C74  1  0.95678552  0.26399687  0.87197558  1  0.454148  0  0.114029  0.273917  0  4.036251  0
C  C75  1  0.95580095  0.29775630  0.90766039  1  -0.045758  0  -0.095006  -0.241579  0  3.978968  0
C  C76  1  0.99998480  0.26380684  0.76388480  1  -0.023338  0  -0.030964  -0.053925  0  4.126476  0
C  C77  1  0.99998935  0.23319588  0.73323786  1  -0.227253  0  -0.028177  -0.047162  0  4.126578  0
C  C78  1  0.99998906  0.19793414  0.69796140  1  0.187704  0  -0.009055  -0.07616  0  4.124969  0
C  C79  1  0.04031600  0.23379462  0.62441329  1  0.475955  0  0.114908  0.276109  0  4.036059  0
C  C80  1  0.04087186  0.20020053  0.58857978  1  0.044178  0  -0.092524  -0.238337  0  3.968459  0
C  C81  1  0.99998875  0.12705947  0.62705407  1  -0.005207  0  -0.009624  0.017644  0  3.992758  0
C  C82  1  0.95910188  0.08857493  0.70019915  1  0.044366  0  -0.092562  -0.238319  0  3.968357  0
C  C83  1  0.95965945  0.12439156  0.73380988  1  0.475134  0  0.114887  0.275988  0  4.035712  0
C  C84  1  0.74588802  0.37292656  0.12705127  1  0.043588  0  -0.009657  0.01767  0  3.993006  0
C  C85  1  0.71122793  0.41140879  0.12944792  1  0.05182  0  -0.092485  -0.238311  0  3.968923  0
C  C86  1  0.64180328  0.37558975  0.16470929  1  0.443994  0  0.115031  0.274983  0  4.035652  0
C  C87  1  0.60411046  0.30204426  0.19792368  1  0.1939  0  -0.009103  -0.07252  0  4.119288  0
C  C88  1  0.64180064  0.26618562  0.19345863  1  0.410413  0  0.114733  0.274517  0  4.035356  0
C  C89  1  0.71122666  0.29978469  0.15930604  1  0.09048  0  -0.092508  -0.238156  0  3.968501  0
C  C90  1  0.53356353  0.26677861  0.23319473  1  -0.149278  0  -0.028173  -0.048252  0  4.125372  0
C  C91  1  0.47231104  0.23617028  0.26381439  1  -0.054712  0  -0.030952  -0.054157  0  4.126782  0
C  C92  1  0.40176914  0.20090540  0.29909081  1  0.168656  0  -0.007497  -0.070867  0  4.122128  0
C  C93  1  0.36403196  0.23598955  0.30721116  1  0.468625  0  0.113871  0.273606  0  4.036131  0
C  C94  1  0.29459017  0.20223546  0.34195576  1  0.028261  0  -0.094923  -0.241379  0  3.978689  0
C  C95  1  0.25979274  0.12990304  0.37009752  1  0.093057  0  -0.01128  0.016781  0  3.99893  0
C  C96  1  0.29459592  0.09237878  0.36342993  1  0.051717  0  -0.094799  -0.241583  0  3.978582  0
C  C97  1  0.36403633  0.12807893  0.32871636  1  0.397301  0  0.113993  0.274438  0  4.035347  0
C  C98  1  0.25411865  0.62706318  0.87293562  1  0.043988  0  -0.009806  0.017321  0  3.992782  0
C  C99  1  0.28878301  0.62945885  0.91142052  1  0.051684  0  -0.092552  -0.238277  0  3.96879  0
C  C100  1  0.35820902  0.66472447  0.87559684  1  0.443725  0  0.114919  0.27503  0  4.035456  0
C  C101  1  0.39589628  0.69793885  0.80204815  1  0.193641  0  -0.009036  -0.072794  0  4.119377  0
C  C102  1  0.35820060  0.69347001  0.76619134  1  0.410225  0  0.114844  0.274833  0  4.03545  0
C  C103  1  0.28877581  0.65932047  0.79979018  1  0.090714  0  -0.092404  -0.238042  0  3.968386  0
C  C104  1  0.46644327  0.73320819  0.76678276  1  -0.148892  0  -0.028187  -0.048188  0  4.125531  0
C  C105  1  0.52769605  0.76382571  0.73616817  1  -0.054597  0  -0.030915  -0.054051  0  4.126696  0
C  C106  1  0.59823832  0.79909772  0.70090100  1  0.16761  0  -0.007518  -0.070909  0  4.121797  0
C  C107  1  0.63598088  0.80721256  0.73598858  1  0.470239  0  0.113796  0.273456  0  4.036376  0
C  C108  1  0.70542230  0.84195237  0.70223103  1  0.028146  0  -0.095047  -0.241389  0  3.979089  0
C  C109  1  0.74021280  0.87009654  0.62989925  1  0.093515  0  -0.011162  0.016788  0  3.999318  0
C  C110  1  0.70540436  0.86343161  0.59237291  1  0.051663  0  -0.094916  -0.241606  0  3.978729  0
C  C111  1  0.63596320  0.82872051  0.62807188  1  0.39646  0  0.114076  0.2744  0  4.035336  0
C  C112  1  0.91612072  0.81161049  0.78513501  1  1.573208  0  0.227526  0.571325  0  4.175698  0
C  C113  1  0.09675124  0.70125705  0.71486474  1  1.566242  0  0.227628  0.571734  0  4.175312  0
C  C114  1  0.90323859  0.68837672  0.89549084  1  1.576114  0  0.227396  0.571321  0  4.175483  0
C  C115  1  0.08388062  0.79873531  0.60450954  1  1.571562  0  0.22753  0.571146  0  4.17594  0
C  C116  1  0.91611121  0.10451884  0.29872695  1  1.573751  0  0.227353  0.570853  0  4.175894  0
C  C117  1  0.09675655  0.39548675  0.18840321  1  1.576191  0  0.227362  0.571228  0  4.17569  0
C  C118  1  0.90324834  0.21487480  0.20124625  1  1.566111  0  0.227402  0.571432  0  4.175542  0
C  C119  1  0.08387821  0.28512674  0.31162998  1  1.57335  0  0.227577  0.57164  0  4.175602  0
O  O120  1  0.00000405  0.00000022  0.49999537  1  -1.234173  0  -0.573012  -1.039742  0  2.534184  0
O  O121  1  0.15580416  0.02790722  0.42753021  1  -1.175132  0  -0.312451  -0.540559  0  2.332699  0
O  O122  1  0.05188592  0.15331753  0.37074702  1  -1.153775  0  -0.295197  -0.524719  0  2.356501  0
O  O123  1  0.96346615  0.94071853  0.40889019  1  -1.177715  0  -0.311003  -0.538407  0  2.341601  0
O  O124  1  0.15580032  0.12789121  0.41667276  1  -1.169481  0  -0.312377  -0.540444  0  2.333041  0
O  O125  1  0.03647548  0.90887014  0.44074536  1  -1.17807  0  -0.310935  -0.53856  0  2.341423  0
O  O126  1  0.94811715  0.07736840  0.39855571  1  -1.153827  0  -0.295251  -0.524727  0  2.356332  0
O  O127  1  0.84419442  0.92753438  0.52790227  1  -1.175278  0  -0.312416  -0.540526  0  2.332788  0
O  O128  1  0.94812384  0.87075019  0.65331758  1  -1.153626  0  -0.295237  -0.524823  0  2.356009  0
O  O129  1  0.84420626  0.91666565  0.62789204  1  -1.169511  0  -0.312408  -0.540416  0  2.332911  0
O  O130  1  0.05188232  0.89855862  0.57736502  1  -1.154077  0  -0.295258  -0.524762  0  2.35634  0
O  O131  1  0.03649695  0.12762494  0.52275705  1  -1.180925  0  -0.31113  -0.538659  0  2.341321  0
O  O132  1  0.96350187  0.02276688  0.62761395  1  -1.181218  0  -0.310991  -0.538495  0  2.341284  0
O  O133  1  0.00000250  0.50000305  0.99999760  1  -1.234333  0  -0.572988  -1.039773  0  2.534279  0
O  O134  1  0.95544115  0.58333475  0.07246743  1  -1.167692  0  -0.312337  -0.540437  0  2.332743  0
O  O135  1  0.02407876  0.42263723  0.12924743  1  -1.153427  0  -0.295286  -0.524831  0  2.356455  0
O  O136  1  0.84961982  0.37236865  0.09112452  1  -1.175889  0  -0.311083  -0.538536  0  2.341586  0
O  O137  1  0.04456679  0.57246642  0.08333108  1  -1.167893  0  -0.31234  -0.540355  0  2.333034  0
O  O138  1  0.84961597  0.47721973  0.05926621  1  -1.160842  0  -0.310951  -0.538361  0  2.341415  0
O  O139  1  0.97593956  0.34668496  0.10143257  1  -1.150812  0  -0.295298  -0.524876  0  2.356327  0
O  O140  1  0.95543331  0.37210607  0.97209609  1  -1.173628  0  -0.312386  -0.540451  0  2.332841  0
O  O141  1  0.02406202  0.60143495  0.84668224  1  -1.150984  0  -0.295228  -0.524718  0  2.356413  0
O  O142  1  0.04455444  0.47208697  0.87210595  1  -1.173421  0  -0.31246  -0.54056  0  2.33277  0
O  O143  1  0.97592552  0.62924626  0.92263201  1  -1.153188  0  -0.295147  -0.524665  0  2.356397  0
O  O144  1  0.15038982  0.55927071  0.97723138  1  -1.160509  0  -0.310927  -0.538367  0  2.341319  0
O  O145  1  0.15037952  0.59112408  0.87237544  1  -1.175961  0  -0.311072  -0.538537  0  2.341414  0
O  O146  1  0.84890514  0.77542839  0.81147037  1  -1.111117  0  -0.31958  -0.446908  0  2.201538  0
O  O147  1  0.94169114  0.86594329  0.78235592  1  -1.102054  0  -0.276766  -0.440255  0  2.038911  0
O  O148  1  0.08691482  0.66039589  0.68850973  1  -1.108319  0  -0.319492  -0.446803  0  2.201779  0
O  O149  1  0.14829917  0.72403703  0.71766250  1  -1.102159  0  -0.276863  -0.440507  0  2.038603  0
O  O150  1  0.91307457  0.72455832  0.92652402  1  -1.095516  0  -0.319196  -0.446474  0  2.201928  0
O  O151  1  0.85168752  0.63404412  0.92424103  1  -1.106098  0  -0.276816  -0.440323  0  2.038281  0
O  O152  1  0.15109479  0.83960785  0.57348415  1  -1.104904  0  -0.319573  -0.446821  0  2.20183  0
O  O153  1  0.05830922  0.77593885  0.57574634  1  -1.10077  0  -0.276697  -0.440134  0  2.038584  0
O  O154  1  0.84889994  0.07348833  0.33959741  1  -1.104423  0  -0.31932  -0.446615  0  2.201788  0
O  O155  1  0.94167911  0.07575943  0.27592868  1  -1.102565  0  -0.276697  -0.440032  0  2.038582  0
O  O156  1  0.08691567  0.42651515  0.22458788  1  -1.095449  0  -0.319352  -0.446669  0  2.201677  0
O  O157  1  0.14831350  0.42424688  0.13407542  1  -1.106122  0  -0.276646  -0.440127  0  2.038637  0
O  O158  1  0.91308931  0.18853414  0.16037052  1  -1.108726  0  -0.319305  -0.446672  0  2.201603  0
O  O159  1  0.85170156  0.21766958  0.22402433  1  -1.101506  0  -0.276772  -0.440362  0  2.038733  0
O  O160  1  0.15109487  0.31147556  0.27544609  1  -1.111194  0  -0.31928  -0.446594  0  2.201564  0
O  O161  1  0.05830378  0.28232702  0.36597394  1  -1.102277  0  -0.276814  -0.44042  0  2.038778  0
F  F162  1  0.08532633  0.67768636  0.22054048  1  -0.625276  0  -0.093517  -0.129907  0  1.318079  0
F  F163  1  0.91467462  0.72048034  0.17774946  1  -0.624483  0  -0.093683  -0.130326  0  1.318097  0
F  F164  1  0.07980425  0.77553441  0.33200547  1  -0.628913  0  -0.093759  -0.130921  0  1.32105  0
F  F165  1  0.92014944  0.83197494  0.27553367  1  -0.629337  0  -0.093505  -0.13064  0  1.320974  0
F  F166  1  0.91466896  0.19413801  0.90764580  1  -0.622527  0  -0.093448  -0.129841  0  1.318332  0
F  F167  1  0.08531434  0.40755545  0.69419395  1  -0.622714  0  -0.093784  -0.130487  0  1.31793  0
F  F168  1  0.92016075  0.08816609  0.80429790  1  -0.629239  0  -0.093639  -0.130857  0  1.320929  0
F  F169  1  0.07981242  0.30427958  0.58820366  1  -0.629322  0  -0.093654  -0.130866  0  1.321072  0
F  F170  1  0.60752926  0.19570059  0.22445192  1  -0.628841  0  -0.093524  -0.130694  0  1.321536  0
F  F171  1  0.60753671  0.41180746  0.16798479  1  -0.629411  0  -0.093742  -0.130891  0  1.321468  0
F  F172  1  0.39823688  0.09242560  0.32224525  1  -0.625335  0  -0.0937  -0.130313  0  1.318045  0
F  F173  1  0.39822313  0.30584393  0.27947117  1  -0.622463  0  -0.093367  -0.129703  0  1.31825  0
F  F174  1  0.39246427  0.72446186  0.69570579  1  -0.628876  0  -0.093598  -0.130802  0  1.321373  0
F  F175  1  0.39248062  0.66799831  0.91181337  1  -0.629235  0  -0.09367  -0.130899  0  1.321487  0
F  F176  1  0.60175262  0.82225275  0.59241959  1  -0.624828  0  -0.093733  -0.130249  0  1.317972  0
F  F177  1  0.60179415  0.77947057  0.80584574  1  -0.622979  0  -0.093424  -0.129716  0  1.318195  0
