# generated using pymatgen
data_Zr3H20C44N5O26F
_symmetry_space_group_name_H-M   'P 1'
_cell_length_a   19.14556329
_cell_length_b   19.12271975
_cell_length_c   19.14614338
_cell_angle_alpha   59.42548113
_cell_angle_beta   59.91696179
_cell_angle_gamma   60.04476732
_symmetry_Int_Tables_number   1
_chemical_formula_structural   Zr3H20C44N5O26F
_chemical_formula_sum   'Zr6 H40 C88 N10 O52 F2'
_cell_volume   4933.29637964
_cell_formula_units_Z   2
loop_
 _symmetry_equiv_pos_site_id
 _symmetry_equiv_pos_as_xyz
  1  'x, y, z'
loop_
 _atom_site_type_symbol
 _atom_site_label
 _atom_site_symmetry_multiplicity
 _atom_site_fract_x
 _atom_site_fract_y
 _atom_site_fract_z
 _atom_site_occupancy
 _atom_site_pbe_bader_charge
 _atom_site_pbe_bader_spin_density
 _atom_site_pbe_cm5_charge
 _atom_site_pbe_ddec_charge
 _atom_site_pbe_ddec_spin_density
 _atom_site_pbe_ddec_sum_bond_order
 _atom_site_pbe_magmom
Zr  Zr0  1  0.90703244  0.40700461  0.59331696  1  2.639376  0  1.632131  2.376291  0  2.747976  0
Zr  Zr1  1  0.09259265  0.59290328  0.40746617  1  2.639375  0  1.632428  2.37674  0  2.746976  0
Zr  Zr2  1  0.09154977  0.40619971  0.59412724  1  2.637094  0  1.629641  2.375122  0  2.750908  0
Zr  Zr3  1  0.90807612  0.59368604  0.40664721  1  2.633581  0  1.629952  2.375422  0  2.751031  0
Zr  Zr4  1  0.90778094  0.59196925  0.59241298  1  2.637792  0  1.634464  2.377618  0  2.755332  0
Zr  Zr5  1  0.09187807  0.40793119  0.40831439  1  2.633864  0  1.634285  2.376993  0  2.756977  0
H  H6  1  0.92662744  0.42503458  0.71974103  1  0.631243  0  0.332892  0.424891  0  0.852397  0
H  H7  1  0.92855393  0.71928134  0.42548754  1  0.599748  0  0.332929  0.425199  0  0.852265  0
H  H8  1  0.21800079  0.42730325  0.42824129  1  0.616477  0  0.331978  0.42377  0  0.857331  0
H  H9  1  0.92642688  0.42786577  0.42767671  1  0.61358  0  0.332155  0.424137  0  0.856455  0
H  H10  1  0.45456852  0.61107858  0.05045608  1  0.058674  0  0.116688  0.125585  0  0.996261  0
H  H11  1  0.54932825  0.38455856  0.95478546  1  0.098974  0  0.11655  0.125423  0  0.996784  0
H  H12  1  0.67607048  0.61494194  0.81375338  1  0.126547  0  0.115676  0.131625  0  1.001173  0
H  H13  1  0.54795936  0.61814156  0.94181237  1  0.066774  0  0.11099  0.113629  0  0.997326  0
H  H14  1  0.31337065  0.39552195  0.17646511  1  0.144116  0  0.116152  0.13295  0  1.000106  0
H  H15  1  0.44146490  0.39239838  0.04842421  1  0.059202  0  0.110891  0.113398  0  0.997469  0
H  H16  1  0.11124957  0.95443968  0.38478931  1  0.062839  0  0.116309  0.125155  0  0.996106  0
H  H17  1  0.88366820  0.05034418  0.61119004  1  0.096157  0  0.116593  0.125277  0  0.996766  0
H  H18  1  0.11449476  0.17626848  0.39565449  1  0.168163  0  0.115677  0.132126  0  1.000668  0
H  H19  1  0.11746653  0.04831447  0.39244774  1  0.065742  0  0.110823  0.113118  0  0.997549  0
H  H20  1  0.89500789  0.81363084  0.61521416  1  0.156446  0  0.115965  0.132233  0  1.001099  0
H  H21  1  0.89185133  0.94175639  0.61824566  1  0.101173  0  0.111023  0.113706  0  0.997525  0
H  H22  1  0.45213205  0.05211814  0.38480750  1  0.087626  0  0.116842  0.125584  0  0.996369  0
H  H23  1  0.55254990  0.95319416  0.61051476  1  0.073932  0  0.117104  0.126104  0  0.996454  0
H  H24  1  0.67286237  0.81477125  0.39658674  1  0.14178  0  0.116971  0.130726  0  0.991385  0
H  H25  1  0.54529273  0.94348646  0.39313349  1  0.092134  0  0.110824  0.1121  0  0.997542  0
H  H26  1  0.31719947  0.17565606  0.61383076  1  0.127131  0  0.117599  0.129417  0  0.98786  0
H  H27  1  0.44560757  0.04776098  0.61643319  1  0.086662  0  0.110876  0.11253  0  0.998507  0
H  H28  1  0.88396798  0.61035790  0.95335203  1  0.046655  0  0.116894  0.125974  0  0.996978  0
H  H29  1  0.11121265  0.38478540  0.05215828  1  0.096074  0  0.116731  0.125433  0  0.99681  0
H  H30  1  0.89345805  0.61356076  0.17596189  1  0.11312  0  0.117438  0.129204  0  0.987772  0
H  H31  1  0.89043248  0.61634939  0.04791823  1  0.086384  0  0.11092  0.112671  0  0.998261  0
H  H32  1  0.11590781  0.39628154  0.81506833  1  0.137549  0  0.116754  0.129895  0  0.991862  0
H  H33  1  0.11837284  0.39308890  0.94357692  1  0.051917  0  0.110805  0.112284  0  0.997375  0
H  H34  1  0.11482174  0.81889859  0.17644661  1  0.142677  0  0.110671  0.130483  0  1.008519  0
H  H35  1  0.18010724  0.93412961  0.06309712  1  0.118947  0  0.118875  0.152302  0  0.968122  0
H  H36  1  0.88982795  0.81825317  0.17746641  1  0.129328  0  0.108839  0.121589  0  1.005321  0
H  H37  1  0.88974872  0.17603462  0.81940663  1  0.1108  0  0.110797  0.130457  0  1.008388  0
H  H38  1  0.82257916  0.06276458  0.93460842  1  0.12003  0  0.118956  0.152197  0  0.967746  0
H  H39  1  0.11436890  0.17707082  0.81872857  1  0.12876  0  0.108901  0.12161  0  1.00529  0
H  H40  1  0.45343862  0.38295164  0.61259222  1  0.095685  0  0.116193  0.125166  0  0.996872  0
H  H41  1  0.55104154  0.61222208  0.38333426  1  0.104229  0  0.116431  0.126  0  0.996376  0
H  H42  1  0.67516366  0.39456933  0.61530429  1  0.13661  0  0.117014  0.134041  0  0.997715  0
H  H43  1  0.54729822  0.39116125  0.61855981  1  0.055585  0  0.111274  0.113772  0  0.995135  0
H  H44  1  0.31491469  0.61489464  0.39500083  1  0.170774  0  0.11692  0.133726  0  0.997837  0
H  H45  1  0.44294006  0.61819556  0.39155172  1  0.095558  0  0.111309  0.113666  0  0.995569  0
C  C46  1  0.76284452  0.50126163  0.73236896  1  1.560961  0  0.238456  0.646602  0  4.110247  0
C  C47  1  0.00338346  0.73202125  0.50171048  1  1.568486  0  0.237821  0.644643  0  4.110655  0
C  C48  1  0.23204976  0.50355357  0.26353680  1  1.578543  0  0.237183  0.644275  0  4.110261  0
C  C49  1  0.00087133  0.26318421  0.50383499  1  1.585966  0  0.238801  0.646875  0  4.109233  0
C  C50  1  0.00197214  0.26135817  0.73387405  1  1.53419  0  0.239265  0.646284  0  4.084006  0
C  C51  1  0.76304556  0.50389132  0.50101026  1  1.59026  0  0.237154  0.643779  0  4.111044  0
C  C52  1  0.00276772  0.73341576  0.26178569  1  1.530045  0  0.238854  0.645809  0  4.083318  0
C  C53  1  0.23201912  0.50059208  0.50434529  1  1.585938  0  0.238209  0.645878  0  4.109542  0
C  C54  1  0.00132404  0.50205018  0.73323172  1  1.588259  0  0.23719  0.643168  0  4.115598  0
C  C55  1  0.23154839  0.26240646  0.50299874  1  1.576761  0  0.237077  0.6442  0  4.113967  0
C  C56  1  0.00311905  0.50263330  0.26276310  1  1.588012  0  0.237342  0.644652  0  4.114309  0
C  C57  1  0.76337564  0.73282613  0.50246076  1  1.587463  0  0.23721  0.643083  0  4.118269  0
C  C58  1  0.31020255  0.50408784  0.18602979  1  0.030674  0  -0.008683  -0.0903  0  3.937912  0
C  C59  1  0.68519320  0.50021833  0.81039527  1  0.067869  0  -0.008748  -0.091352  0  3.938231  0
C  C60  1  0.35233958  0.56363357  0.14825296  1  0.163302  0  0.089621  0.076499  0  3.940957  0
C  C61  1  0.42505602  0.56311566  0.07601294  1  0.077193  0  -0.079792  -0.185393  0  3.941054  0
C  C62  1  0.64709573  0.43651901  0.85239662  1  0.129342  0  0.089474  0.077136  0  3.938097  0
C  C63  1  0.57503993  0.43640937  0.92529356  1  0.040508  0  -0.079819  -0.185876  0  3.940471  0
C  C64  1  0.64722759  0.56498914  0.84537592  1  0.043159  0  -0.064104  -0.046754  0  3.92371  0
C  C65  1  0.57486778  0.56583282  0.91812566  1  -0.076701  0  -0.079348  -0.12377  0  3.939861  0
C  C66  1  0.34504208  0.44256721  0.14780670  1  -0.004019  0  -0.064813  -0.048455  0  3.923639  0
C  C67  1  0.41777081  0.44138696  0.07543032  1  -0.002189  0  -0.07888  -0.122635  0  3.939589  0
C  C68  1  0.45956114  0.50171641  0.03754594  1  0.00048  0  0.007671  0.092737  0  3.978195  0
C  C69  1  0.53689796  0.50159314  0.95998029  1  0.003289  0  0.008234  0.094305  0  3.976948  0
C  C70  1  0.00404518  0.81010946  0.50056356  1  -0.006736  0  -0.008707  -0.089434  0  3.937663  0
C  C71  1  0.99958114  0.18578427  0.50428180  1  0.006625  0  -0.008286  -0.090439  0  3.937832  0
C  C72  1  0.06386187  0.85207709  0.43684212  1  0.181253  0  0.089041  0.076066  0  3.937819  0
C  C73  1  0.06312336  0.92502158  0.43664835  1  0.050324  0  -0.079733  -0.185783  0  3.939465  0
C  C74  1  0.93561972  0.14805500  0.56379963  1  0.168238  0  0.088724  0.075502  0  3.941306  0
C  C75  1  0.93562781  0.07585582  0.56326228  1  0.069017  0  -0.079656  -0.18476  0  3.941672  0
C  C76  1  0.06443929  0.14760350  0.44270804  1  0.012212  0  -0.063918  -0.047321  0  3.923419  0
C  C77  1  0.06521771  0.07527858  0.44149266  1  -0.013699  0  -0.079074  -0.12237  0  3.93934  0
C  C78  1  0.94222140  0.84519582  0.56525059  1  0.034772  0  -0.064748  -0.048819  0  3.925348  0
C  C79  1  0.94096670  0.91799816  0.56600097  1  -0.077798  0  -0.07866  -0.122552  0  3.939135  0
C  C80  1  0.00136452  0.95981371  0.50174210  1  -0.001586  0  0.008131  0.093908  0  3.977311  0
C  C81  1  0.00098199  0.03739942  0.50184102  1  -0.067519  0  0.00786  0.092791  0  3.978378  0
C  C82  1  0.31025813  0.18552347  0.50083808  1  -0.008488  0  -0.007381  -0.087337  0  3.933966  0
C  C83  1  0.68556287  0.81068823  0.50363002  1  0.038901  0  -0.007737  -0.087275  0  3.936886  0
C  C84  1  0.35095986  0.14874134  0.43704835  1  0.155368  0  0.089179  0.077116  0  3.937365  0
C  C85  1  0.42392247  0.07690172  0.43656901  1  0.025123  0  -0.078598  -0.184265  0  3.939652  0
C  C86  1  0.64898087  0.85172951  0.56316013  1  0.187907  0  0.089243  0.076759  0  3.937265  0
C  C87  1  0.57701306  0.92458699  0.56260431  1  0.033107  0  -0.078949  -0.184544  0  3.939429  0
C  C88  1  0.64578340  0.84642403  0.44274272  1  -0.036061  0  -0.066859  -0.057161  0  3.941635  0
C  C89  1  0.57362784  0.91921585  0.44154438  1  -0.045533  0  -0.078892  -0.121132  0  3.944633  0
C  C90  1  0.34726587  0.14698021  0.56459944  1  0.049648  0  -0.065775  -0.051744  0  3.939501  0
C  C91  1  0.42019366  0.07500880  0.56498850  1  -0.026565  0  -0.079043  -0.12405  0  3.946346  0
C  C92  1  0.46019670  0.03781077  0.50119243  1  0.011667  0  0.007846  0.093702  0  3.975951  0
C  C93  1  0.53741614  0.96031351  0.50138842  1  -0.024557  0  0.007962  0.092623  0  3.976003  0
C  C94  1  0.00023329  0.50333118  0.81097218  1  0.111723  0  -0.007774  -0.087854  0  3.937572  0
C  C95  1  0.00352660  0.50058272  0.18579062  1  -0.00225  0  -0.007549  -0.08773  0  3.933599  0
C  C96  1  0.93629917  0.56291150  0.85195139  1  0.141567  0  0.089325  0.07676  0  3.938633  0
C  C97  1  0.93602023  0.56246524  0.92473684  1  0.124266  0  -0.078708  -0.184353  0  3.940172  0
C  C98  1  0.06345936  0.43687125  0.14891870  1  0.167199  0  0.089262  0.076972  0  3.935882  0
C  C99  1  0.06288451  0.43650710  0.07698391  1  0.034986  0  -0.078495  -0.183902  0  3.939324  0
C  C100  1  0.94132903  0.56439020  0.14721464  1  0.010919  0  -0.065697  -0.05156  0  3.939273  0
C  C101  1  0.94004147  0.56487904  0.07516322  1  -0.059491  0  -0.079512  -0.12468  0  3.946541  0
C  C102  1  0.06523020  0.44249693  0.84665944  1  -0.068062  0  -0.066202  -0.054913  0  3.941341  0
C  C103  1  0.06586528  0.44144698  0.91934146  1  0.004981  0  -0.079585  -0.122944  0  3.945212  0
C  C104  1  0.00116547  0.50132704  0.96040059  1  -0.067105  0  0.008357  0.093666  0  3.974761  0
C  C105  1  0.00107266  0.50114720  0.03789124  1  0.046405  0  0.008028  0.093662  0  3.974729  0
C  C106  1  0.06600935  0.84855749  0.14694776  1  0.024652  0  -0.072799  -0.126008  0  3.876432  0
C  C107  1  0.06658411  0.92288493  0.07347217  1  -0.064497  0  -0.001271  0.105303  0  4.032469  0
C  C108  1  0.13060606  0.96204302  0.03494637  1  0.069811  0  -0.098382  -0.267051  0  3.980556  0
C  C109  1  0.93847956  0.84805910  0.14766735  1  -0.025024  0  -0.081496  -0.127048  0  3.936035  0
C  C110  1  0.93741047  0.92216790  0.07425677  1  0.012344  0  -0.014198  -0.027599  0  4.060643  0
C  C111  1  0.87397045  0.96286907  0.03415592  1  0.35686  0  0.097781  0.243443  0  4.077432  0
C  C112  1  0.93841614  0.14653896  0.84905237  1  -0.004744  0  -0.072695  -0.126181  0  3.877141  0
C  C113  1  0.93700564  0.07304870  0.92336357  1  0.03754  0  -0.001805  0.105309  0  4.033846  0
C  C114  1  0.87236592  0.03453069  0.96247526  1  0.041721  0  -0.09767  -0.265982  0  3.981093  0
C  C115  1  0.06570929  0.14726935  0.84853946  1  -0.037664  0  -0.081026  -0.127624  0  3.936187  0
C  C116  1  0.06608593  0.07386208  0.92263968  1  -0.04836  0  -0.014158  -0.025307  0  4.058378  0
C  C117  1  0.12892233  0.03377953  0.96334202  1  0.416024  0  0.098001  0.242808  0  4.077179  0
C  C118  1  0.00263135  0.81180208  0.18329685  1  -0.029151  0  -0.019947  -0.042011  0  4.006964  0
C  C119  1  0.00179619  0.96060475  0.03594247  1  0.063567  0  0.00525  0.008563  0  3.927068  0
C  C120  1  0.00219709  0.18289504  0.81226125  1  0.003825  0  -0.020373  -0.042147  0  4.00742  0
C  C121  1  0.00160547  0.03550631  0.96106477  1  -0.008247  0  0.004604  0.00688  0  3.926343  0
C  C122  1  0.31021125  0.49936199  0.50490820  1  0.119784  0  -0.00792  -0.089096  0  3.932406  0
C  C123  1  0.68552376  0.50446663  0.49977329  1  0.011809  0  -0.007703  -0.088084  0  3.932248  0
C  C124  1  0.35165104  0.43522302  0.56504110  1  0.104588  0  0.088141  0.074374  0  3.936209  0
C  C125  1  0.42449876  0.43520766  0.56420031  1  0.000629  0  -0.079541  -0.185455  0  3.94051  0
C  C126  1  0.64811663  0.56462052  0.43561810  1  0.16919  0  0.088144  0.074857  0  3.936881  0
C  C127  1  0.57611978  0.56380266  0.43558189  1  0.060814  0  -0.079875  -0.187142  0  3.941055  0
C  C128  1  0.64690513  0.44213115  0.56500484  1  -0.000934  0  -0.063441  -0.047739  0  3.920301  0
C  C129  1  0.57465400  0.44075399  0.56590028  1  0.023548  0  -0.078085  -0.121017  0  3.93545  0
C  C130  1  0.34592817  0.56460378  0.44255037  1  -0.078283  0  -0.063747  -0.047608  0  3.92012  0
C  C131  1  0.41866087  0.56553013  0.44114226  1  -0.053613  0  -0.077673  -0.120516  0  3.9351  0
C  C132  1  0.45984291  0.50098839  0.50189947  1  0.048932  0  0.007781  0.092835  0  3.975894  0
C  C133  1  0.53726655  0.50152114  0.50135611  1  -0.047067  0  0.007947  0.093064  0  3.97594  0
N  N134  1  0.32341160  0.63097763  0.18309522  1  0.415906  0  0.061431  0.521832  0  4.238014  0
N  N135  1  0.68114089  0.36386042  0.82284994  1  0.430868  0  0.062038  0.522997  0  4.234349  0
N  N136  1  0.13206270  0.82244676  0.36423720  1  0.434715  0  0.061803  0.52295  0  4.234663  0
N  N137  1  0.86235610  0.18290871  0.63115402  1  0.42343  0  0.061813  0.522593  0  4.236696  0
N  N138  1  0.32010289  0.18395305  0.36455678  1  0.414313  0  0.061824  0.521111  0  4.240844  0
N  N139  1  0.68453624  0.82118496  0.63085910  1  0.42097  0  0.062322  0.522885  0  4.24068  0
N  N140  1  0.86354973  0.63055655  0.82145043  1  0.422667  0  0.062557  0.522845  0  4.239982  0
N  N141  1  0.13152320  0.36431683  0.18419120  1  0.433548  0  0.062607  0.522561  0  4.237769  0
N  N142  1  0.32146510  0.36178036  0.63369273  1  0.445285  0  0.063389  0.528217  0  4.229426  0
N  N143  1  0.68310765  0.63327606  0.36221960  1  0.417815  0  0.062936  0.527565  0  4.230317  0
O  O144  1  0.79325014  0.44206693  0.70198125  1  -1.171309  0  -0.352106  -0.61396  0  2.318831  0
O  O145  1  0.06261037  0.70153502  0.44258681  1  -1.170623  0  -0.352306  -0.614019  0  2.318823  0
O  O146  1  0.20187618  0.56250564  0.29414021  1  -1.175493  0  -0.350974  -0.611987  0  2.321261  0
O  O147  1  0.94153597  0.29371505  0.56285808  1  -1.180144  0  -0.351734  -0.61311  0  2.320559  0
O  O148  1  0.06098062  0.29302983  0.70317137  1  -1.182421  0  -0.362953  -0.622585  0  2.287889  0
O  O149  1  0.79409183  0.56357787  0.44110754  1  -1.182721  0  -0.353652  -0.617078  0  2.316988  0
O  O150  1  0.94280727  0.70269083  0.29344326  1  -1.184399  0  -0.36315  -0.622562  0  2.287292  0
O  O151  1  0.20118673  0.44068223  0.56402152  1  -1.178731  0  -0.354326  -0.618321  0  2.31555  0
O  O152  1  0.94225140  0.56126882  0.70202655  1  -1.17475  0  -0.351827  -0.611147  0  2.324203  0
O  O153  1  0.20048753  0.29368622  0.44374224  1  -1.167866  0  -0.352396  -0.612816  0  2.324248  0
O  O154  1  0.06215902  0.44339926  0.29402239  1  -1.172456  0  -0.352567  -0.613234  0  2.325572  0
O  O155  1  0.79442125  0.70161812  0.56168315  1  -1.169272  0  -0.352104  -0.611493  0  2.325494  0
O  O156  1  0.20211260  0.29138929  0.56280179  1  -1.164921  0  -0.34344  -0.602586  0  2.273936  0
O  O157  1  0.94368638  0.56235507  0.29183398  1  -1.185176  0  -0.343353  -0.60231  0  2.273337  0
O  O158  1  0.79334260  0.70435317  0.44213295  1  -1.175066  0  -0.344261  -0.602934  0  2.271883  0
O  O159  1  0.06008293  0.44164835  0.70483298  1  -1.179734  0  -0.344074  -0.602756  0  2.270907  0
O  O160  1  0.94259616  0.29281761  0.70300125  1  -1.174497  0  -0.352731  -0.609025  0  2.286889  0
O  O161  1  0.20272181  0.56041771  0.44405393  1  -1.174995  0  -0.342629  -0.598  0  2.281665  0
O  O162  1  0.06152677  0.70257294  0.29327313  1  -1.174714  0  -0.352375  -0.608922  0  2.287286  0
O  O163  1  0.79283212  0.44356384  0.56081312  1  -1.175372  0  -0.342296  -0.597284  0  2.280687  0
O  O164  1  0.06038912  0.29362356  0.44405405  1  -1.176585  0  -0.347047  -0.601627  0  2.285743  0
O  O165  1  0.79357771  0.56043336  0.70256844  1  -1.169628  0  -0.346858  -0.601287  0  2.286144  0
O  O166  1  0.94325210  0.70225005  0.56087247  1  -1.162061  0  -0.345712  -0.599784  0  2.284965  0
O  O167  1  0.20188305  0.44375507  0.29399296  1  -1.171691  0  -0.346317  -0.600627  0  2.285237  0
O  O168  1  0.94749300  0.44851135  0.44792863  1  -1.242878  0  -0.692842  -1.07064  0  2.358438  0
O  O169  1  0.15603553  0.44752652  0.44893787  1  -1.246923  0  -0.692626  -1.070329  0  2.359561  0
O  O170  1  0.94817676  0.65692582  0.44757384  1  -1.227661  0  -0.693689  -1.070355  0  2.359465  0
O  O171  1  0.94724876  0.44714224  0.65738405  1  -1.259125  0  -0.693618  -1.070086  0  2.359859  0
O  O172  1  0.03827058  0.53776761  0.53896348  1  -1.200606  0  -0.791057  -1.151603  0  2.126463  0
O  O173  1  0.88495277  0.53850084  0.53821272  1  -1.197322  0  -0.790853  -1.152181  0  2.128056  0
O  O174  1  0.03830211  0.53892402  0.38513092  1  -1.194966  0  -0.792057  -1.151559  0  2.134969  0
O  O175  1  0.03762767  0.38469918  0.53933529  1  -1.197073  0  -0.792031  -1.151586  0  2.134881  0
O  O176  1  0.35163955  0.61092094  0.23871970  1  -0.433772  0  -0.124882  -0.323433  0  1.89712  0
O  O177  1  0.27799217  0.70299271  0.14988773  1  -0.436884  0  -0.11962  -0.314744  0  1.894354  0
O  O178  1  0.73470341  0.29814193  0.85260199  1  -0.439672  0  -0.119774  -0.317541  0  1.901076  0
O  O179  1  0.64915005  0.37301119  0.77525686  1  -0.438865  0  -0.12387  -0.321239  0  1.892336  0
O  O180  1  0.11448348  0.85200730  0.29854865  1  -0.433902  0  -0.119534  -0.317293  0  1.901234  0
O  O181  1  0.20250483  0.77496984  0.37340547  1  -0.442612  0  -0.123695  -0.321162  0  1.892655  0
O  O182  1  0.79860193  0.23861376  0.61106395  1  -0.433995  0  -0.124904  -0.32377  0  1.898067  0
O  O183  1  0.86891104  0.14962577  0.70320661  1  -0.437342  0  -0.119864  -0.315022  0  1.892231  0
O  O184  1  0.34831606  0.23928713  0.29901116  1  -0.429382  0  -0.121038  -0.31871  0  1.902071  0
O  O185  1  0.27329800  0.15110871  0.37354663  1  -0.433315  0  -0.120719  -0.316463  0  1.896384  0
O  O186  1  0.73921550  0.85017095  0.61172990  1  -0.440378  0  -0.122013  -0.320024  0  1.901543  0
O  O187  1  0.65258330  0.77364577  0.70239844  1  -0.43192  0  -0.120149  -0.316509  0  1.896021  0
O  O188  1  0.79900012  0.61141098  0.85054957  1  -0.423743  0  -0.122396  -0.32028  0  1.900307  0
O  O189  1  0.87150094  0.70208317  0.77382275  1  -0.443132  0  -0.120269  -0.316493  0  1.895982  0
O  O190  1  0.11340576  0.29885587  0.23960411  1  -0.43281  0  -0.121311  -0.319297  0  1.901654  0
O  O191  1  0.20225197  0.37318549  0.15131286  1  -0.438964  0  -0.120965  -0.317026  0  1.895002  0
O  O192  1  0.35012043  0.29667875  0.61595363  1  -0.443235  0  -0.12597  -0.327258  0  1.894614  0
O  O193  1  0.27438157  0.36947473  0.70473942  1  -0.455697  0  -0.125687  -0.325255  0  1.888964  0
O  O194  1  0.73730349  0.61557272  0.29709693  1  -0.441599  0  -0.126152  -0.327346  0  1.895211  0
O  O195  1  0.65146372  0.70429339  0.36996833  1  -0.437612  0  -0.125451  -0.324966  0  1.888043  0
F  F196  1  0.18994537  0.07101815  0.92664138  1  -0.632081  0  -0.109612  -0.151428  0  1.311817  0
F  F197  1  0.81240482  0.92617918  0.07135147  1  -0.630912  0  -0.109656  -0.151654  0  1.311724  0
