# generated using pymatgen
data_AgP3H34C30(SO)2
_symmetry_space_group_name_H-M   'P 1'
_cell_length_a   11.09327717
_cell_length_b   11.42060077
_cell_length_c   13.05459733
_cell_angle_alpha   101.15461974
_cell_angle_beta   91.38825859
_cell_angle_gamma   106.15709323
_symmetry_Int_Tables_number   1
_chemical_formula_structural   AgP3H34C30(SO)2
_chemical_formula_sum   'Ag2 P6 H68 C60 S4 O4'
_cell_volume   1553.21898245
_cell_formula_units_Z   2
loop_
 _symmetry_equiv_pos_site_id
 _symmetry_equiv_pos_as_xyz
  1  'x, y, z'
loop_
 _atom_site_type_symbol
 _atom_site_label
 _atom_site_symmetry_multiplicity
 _atom_site_fract_x
 _atom_site_fract_y
 _atom_site_fract_z
 _atom_site_occupancy
 _atom_site_hle17_bader_spin_density
 _atom_site_hle17_ddec_charge
 _atom_site_hle17_ddec_spin_density
 _atom_site_hle17_ddec_sum_bond_order
 _atom_site_hle17_magmom
 _atom_site_hse06_10hf_bader_spin_density
 _atom_site_hse06_10hf_ddec_charge
 _atom_site_hse06_10hf_ddec_spin_density
 _atom_site_hse06_10hf_ddec_sum_bond_order
 _atom_site_hse06_10hf_magmom
 _atom_site_hse06_bader_spin_density
 _atom_site_hse06_ddec_charge
 _atom_site_hse06_ddec_spin_density
 _atom_site_hse06_ddec_sum_bond_order
 _atom_site_hse06_magmom
 _atom_site_pbe_bader_spin_density
 _atom_site_pbe_cm5_charge
 _atom_site_pbe_ddec_charge
 _atom_site_pbe_ddec_spin_density
 _atom_site_pbe_ddec_sum_bond_order
 _atom_site_pbe_magmom
Ag  Ag0  1  0.39650917  0.87677240  0.23477294  1  0  0.061582  0  2.210985  0  0  -0.038776  0  2.735836  0  0  -0.03461  0  2.705015  0  0  0.346571  -0.040376  0  2.755634  0
Ag  Ag1  1  0.60349430  0.12321997  0.76521890  1  0  0.061591  0  2.211138  0  0  -0.038754  0  2.736003  0  0  -0.034589  0  2.705182  0  0  0.346608  -0.040354  0  2.755804  0
P  P2  1  0.11503984  0.74812512  0.15434563  1  0  0.990894  0  4.856843  0  0  0.872024  0  5.368337  0  0  0.917701  0  5.343726  0  0  0.237117  0.839947  0  5.385134  0
P  P3  1  0.88495223  0.25187759  0.84565223  1  0  0.990863  0  4.856861  0  0  0.872011  0  5.368333  0  0  0.917674  0  5.343746  0  0  0.237159  0.839936  0  5.38513  0
P  P4  1  0.46524391  0.81575424  0.38932896  1  0  0.363707  0  3.64944  0  0  0.320996  0  4.111443  0  0  0.333409  0  4.107275  0  0  -0.018036  0.312703  0  4.113086  0
P  P5  1  0.53475293  0.18424935  0.61066607  1  0  0.363631  0  3.649242  0  0  0.32089  0  4.11133  0  0  0.333298  0  4.107152  0  0  -0.018062  0.312611  0  4.112989  0
P  P6  1  0.53654749  0.04825400  0.17334273  1  0  0.366479  0  3.648086  0  0  0.322182  0  4.117803  0  0  0.335026  0  4.111938  0  0  -0.018078  0.313105  0  4.121882  0
P  P7  1  0.46346317  0.95175058  0.82665732  1  0  0.366614  0  3.648189  0  0  0.322314  0  4.117886  0  0  0.335151  0  4.112008  0  0  -0.018019  0.313244  0  4.121971  0
H  H8  1  0.99782087  0.50210120  0.07613226  1  0  0.048142  0  0.954712  0  0  0.0597  0  1.025511  0  0  0.06057  0  1.024181  0  0  0.096068  0.0589  0  1.026711  0
H  H9  1  0.00218317  0.49790237  0.92386214  1  0  0.048156  0  0.954784  0  0  0.059754  0  1.025484  0  0  0.060625  0  1.024147  0  0  0.096036  0.058954  0  1.026679  0
H  H10  1  0.08431304  0.47601049  0.18157952  1  0  0.03985  0  0.934888  0  0  0.055718  0  0.999487  0  0  0.05585  0  0.999277  0  0  0.09543  0.055547  0  0.999692  0
H  H11  1  0.91568534  0.52399221  0.81841769  1  0  0.039909  0  0.934873  0  0  0.055745  0  0.999448  0  0  0.055848  0  0.999269  0  0  0.095414  0.05557  0  0.99966  0
H  H12  1  0.86227556  0.34310421  0.16770194  1  0  0.106733  0  0.962179  0  0  0.127981  0  1.025501  0  0  0.128213  0  1.027602  0  0  0.088944  0.127837  0  1.023996  0
H  H13  1  0.13772203  0.65689275  0.83228515  1  0  0.106635  0  0.962148  0  0  0.127954  0  1.025414  0  0  0.128185  0  1.027516  0  0  0.088919  0.127809  0  1.02391  0
H  H14  1  0.80532555  0.47420885  0.17152600  1  0  0.102093  0  0.957475  0  0  0.123372  0  1.019101  0  0  0.124177  0  1.019823  0  0  0.086818  0.122733  0  1.018671  0
H  H15  1  0.19467357  0.52578717  0.82846098  1  0  0.102108  0  0.957383  0  0  0.123389  0  1.019034  0  0  0.124197  0  1.019754  0  0  0.086779  0.122749  0  1.018601  0
H  H16  1  0.88799335  0.45930997  0.28463999  1  0  0.099744  0  0.960434  0  0  0.120707  0  1.024413  0  0  0.121589  0  1.025072  0  0  0.086567  0.12013  0  1.0239  0
H  H17  1  0.11199830  0.54068515  0.71534823  1  0  0.100013  0  0.960449  0  0  0.120991  0  1.024352  0  0  0.121871  0  1.025017  0  0  0.086709  0.120412  0  1.023842  0
H  H18  1  0.09825720  0.82112463  0.95407473  1  0  0.039986  0  0.939104  0  0  0.053671  0  1.006708  0  0  0.05367  0  1.007302  0  0  0.092706  0.053577  0  1.006369  0
H  H19  1  0.90174155  0.17887623  0.04592449  1  0  0.039988  0  0.939117  0  0  0.053648  0  1.006734  0  0  0.053648  0  1.007326  0  0  0.092707  0.053558  0  1.006392  0
H  H20  1  0.04549361  0.92470457  0.05069935  1  0  0.035807  0  0.948532  0  0  0.051678  0  1.014498  0  0  0.051545  0  1.01477  0  0  0.093106  0.051641  0  1.01442  0
H  H21  1  0.95449690  0.07529900  0.94929402  1  0  0.035802  0  0.948472  0  0  0.051678  0  1.014432  0  0  0.05154  0  1.014707  0  0  0.093101  0.051641  0  1.014358  0
H  H22  1  0.90586623  0.86556324  0.88197192  1  0  0.101331  0  0.969596  0  0  0.119843  0  1.03827  0  0  0.120451  0  1.039618  0  0  0.08778  0.119432  0  1.037281  0
H  H23  1  0.09413049  0.13443381  0.11802053  1  0  0.101408  0  0.969584  0  0  0.119928  0  1.038237  0  0  0.120532  0  1.039592  0  0  0.087816  0.119514  0  1.037247  0
H  H24  1  0.81940299  0.80753608  0.98373716  1  0  0.104168  0  0.941028  0  0  0.126815  0  0.997501  0  0  0.128123  0  0.997581  0  0  0.088814  0.125834  0  0.997544  0
H  H25  1  0.18058776  0.19245906  0.01625181  1  0  0.104142  0  0.941068  0  0  0.126818  0  0.997503  0  0  0.128133  0  0.997577  0  0  0.088827  0.12583  0  0.99755  0
H  H26  1  0.87306863  0.70565622  0.88700773  1  0  0.103181  0  0.958872  0  0  0.12354  0  1.021214  0  0  0.124865  0  1.021443  0  0  0.08831  0.122591  0  1.02104  0
H  H27  1  0.12693197  0.29434174  0.11298417  1  0  0.103199  0  0.958804  0  0  0.123566  0  1.02115  0  0  0.12489  0  1.021381  0  0  0.088287  0.122614  0  1.02097  0
H  H28  1  0.51925346  0.66172972  0.53576980  1  0  0.083919  0  0.978453  0  0  0.09334  0  1.045748  0  0  0.095006  0  1.046633  0  0  0.096852  0.092185  0  1.045088  0
H  H29  1  0.48074414  0.33827025  0.46423156  1  0  0.083949  0  0.978463  0  0  0.093368  0  1.045763  0  0  0.095028  0  1.04666  0  0  0.096854  0.092214  0  1.045096  0
H  H30  1  0.38138392  0.48244661  0.59759612  1  0  0.087559  0  0.963511  0  0  0.096656  0  1.027456  0  0  0.098329  0  1.028963  0  0  0.097907  0.095436  0  1.026453  0
H  H31  1  0.61860407  0.51755140  0.40239862  1  0  0.087517  0  0.963475  0  0  0.096579  0  1.027461  0  0  0.098252  0  1.028966  0  0  0.097901  0.09536  0  1.026452  0
H  H32  1  0.15884436  0.39062155  0.52438802  1  0  0.081631  0  0.978407  0  0  0.092641  0  1.040274  0  0  0.094763  0  1.040323  0  0  0.096202  0.0911  0  1.040284  0
H  H33  1  0.84114326  0.60937828  0.47560393  1  0  0.081603  0  0.978589  0  0  0.092646  0  1.040406  0  0  0.094767  0  1.040457  0  0  0.096154  0.091108  0  1.040414  0
H  H34  1  0.07365125  0.47958436  0.38786875  1  0  0.083965  0  0.965976  0  0  0.096286  0  1.026101  0  0  0.098613  0  1.025858  0  0  0.099085  0.09478  0  1.025907  0
H  H35  1  0.92634615  0.52043041  0.61212731  1  0  0.083981  0  0.966  0  0  0.096279  0  1.026139  0  0  0.098627  0  1.02587  0  0  0.099075  0.094777  0  1.025945  0
H  H36  1  0.21019716  0.66217712  0.32882248  1  0  0.087354  0  1.009983  0  0  0.087963  0  1.090341  0  0  0.091514  0  1.087984  0  0  0.092381  0.085263  0  1.092238  0
H  H37  1  0.78980838  0.33783770  0.67117757  1  0  0.087436  0  1.009859  0  0  0.088023  0  1.090266  0  0  0.091571  0  1.08791  0  0  0.092354  0.085322  0  1.092168  0
H  H38  1  0.69482546  0.93220446  0.54368991  1  0  0.082702  0  0.987454  0  0  0.096591  0  1.050051  0  0  0.098863  0  1.048909  0  0  0.092496  0.094862  0  1.051156  0
H  H39  1  0.30516730  0.06779744  0.45631626  1  0  0.082771  0  0.987383  0  0  0.096604  0  1.050041  0  0  0.098877  0  1.0489  0  0  0.092544  0.094874  0  1.051142  0
H  H40  1  0.91328959  0.92766899  0.53211023  1  0  0.086694  0  0.971813  0  0  0.098301  0  1.032859  0  0  0.100572  0  1.0327  0  0  0.097603  0.096778  0  1.032959  0
H  H41  1  0.08670376  0.07232560  0.46790398  1  0  0.086828  0  0.971774  0  0  0.098388  0  1.032866  0  0  0.100654  0  1.032708  0  0  0.097636  0.096862  0  1.032967  0
H  H42  1  0.97502959  0.79816253  0.37599978  1  0  0.092783  0  0.973334  0  0  0.098383  0  1.041543  0  0  0.101713  0  1.039621  0  0  0.092847  0.096233  0  1.04235  0
H  H43  1  0.02496781  0.20183668  0.62401295  1  0  0.092677  0  0.973417  0  0  0.098272  0  1.041628  0  0  0.101605  0  1.039703  0  0  0.092804  0.096121  0  1.042435  0
H  H44  1  0.81499743  0.67951365  0.23019015  1  0  0.097456  0  0.959113  0  0  0.107337  0  1.018308  0  0  0.110797  0  1.016367  0  0  0.102015  0.104706  0  1.019887  0
H  H45  1  0.18500319  0.32048738  0.76981986  1  0  0.097504  0  0.959029  0  0  0.107369  0  1.018236  0  0  0.110827  0  1.016296  0  0  0.102025  0.104739  0  1.019819  0
H  H46  1  0.59364086  0.68951334  0.23772241  1  0  0.078908  0  0.959598  0  0  0.090293  0  1.024014  0  0  0.09339  0  1.021765  0  0  0.095974  0.087951  0  1.025768  0
H  H47  1  0.40636054  0.31049037  0.76228115  1  0  0.078847  0  0.95975  0  0  0.090229  0  1.024171  0  0  0.093324  0  1.021925  0  0  0.095977  0.087887  0  1.025927  0
H  H48  1  0.67991447  0.26158688  0.33795608  1  0  0.083718  0  0.989553  0  0  0.094278  0  1.052695  0  0  0.095623  0  1.054919  0  0  0.094889  0.093172  0  1.051485  0
H  H49  1  0.32009204  0.73841583  0.66204283  1  0  0.083649  0  0.989621  0  0  0.094225  0  1.052773  0  0  0.095575  0  1.054979  0  0  0.094829  0.093119  0  1.051565  0
H  H50  1  0.89327809  0.31648879  0.42588013  1  0  0.076596  0  0.97886  0  0  0.087442  0  1.041275  0  0  0.089373  0  1.041566  0  0  0.093748  0.086225  0  1.040898  0
H  H51  1  0.10673033  0.68352046  0.57412139  1  0  0.076643  0  0.978885  0  0  0.087434  0  1.04136  0  0  0.089364  0  1.041651  0  0  0.093726  0.086217  0  1.040981  0
H  H52  1  0.03647471  0.18617503  0.36921309  1  0  0.079404  0  0.971873  0  0  0.091052  0  1.032979  0  0  0.093531  0  1.032085  0  0  0.095935  0.089381  0  1.033514  0
H  H53  1  0.96353356  0.81383058  0.63079321  1  0  0.079325  0  0.971709  0  0  0.090928  0  1.032907  0  0  0.093402  0  1.032011  0  0  0.09584  0.089261  0  1.033442  0
H  H54  1  0.95844674  0.99239491  0.23229950  1  0  0.084566  0  0.986774  0  0  0.091198  0  1.055788  0  0  0.093902  0  1.055215  0  0  0.088127  0.089696  0  1.055392  0
H  H55  1  0.04155878  0.00760432  0.76771492  1  0  0.084623  0  0.986688  0  0  0.091218  0  1.055731  0  0  0.093911  0  1.055165  0  0  0.088179  0.089716  0  1.055332  0
H  H56  1  0.74242026  0.93347357  0.14669678  1  0  0.080589  0  0.958317  0  0  0.09586  0  1.014362  0  0  0.098381  0  1.013305  0  0  0.098618  0.093927  0  1.015273  0
H  H57  1  0.25758660  0.06652100  0.85331692  1  0  0.080696  0  0.958126  0  0  0.09584  0  1.014308  0  0  0.098443  0  1.013159  0  0  0.098643  0.09391  0  1.015211  0
H  H58  1  0.34618659  0.13020096  0.29113595  1  0  0.078513  0  1.002163  0  0  0.087259  0  1.07429  0  0  0.090166  0  1.072175  0  0  0.083744  0.085159  0  1.075771  0
H  H59  1  0.65382225  0.86978504  0.70886493  1  0  0.078471  0  1.002237  0  0  0.087181  0  1.074407  0  0  0.090086  0  1.072299  0  0  0.083749  0.08508  0  1.075893  0
H  H60  1  0.27830379  0.32319932  0.31565911  1  0  0.083228  0  0.964189  0  0  0.094142  0  1.024509  0  0  0.096253  0  1.025078  0  0  0.097523  0.092734  0  1.024018  0
H  H61  1  0.72170038  0.67678299  0.68434416  1  0  0.083224  0  0.964129  0  0  0.094129  0  1.02447  0  0  0.096242  0  1.025038  0  0  0.097556  0.092723  0  1.023986  0
H  H62  1  0.37809880  0.49105540  0.22214693  1  0  0.084971  0  0.95923  0  0  0.092976  0  1.026137  0  0  0.095425  0  1.025507  0  0  0.096819  0.091182  0  1.02668  0
H  H63  1  0.62189871  0.50892882  0.77785881  1  0  0.084738  0  0.959493  0  0  0.092818  0  1.026328  0  0  0.095265  0  1.025697  0  0  0.096772  0.091034  0  1.026852  0
H  H64  1  0.55140580  0.46769514  0.10805821  1  0  0.086  0  0.943946  0  0  0.100758  0  0.99524  0  0  0.103547  0  0.994345  0  0  0.100377  0.098692  0  0.996081  0
H  H65  1  0.44859385  0.53230574  0.89194181  1  0  0.085946  0  0.944031  0  0  0.100741  0  0.995293  0  0  0.103528  0  0.994399  0  0  0.100342  0.098672  0  0.996133  0
H  H66  1  0.62345450  0.27943912  0.08816335  1  0  0.092281  0  0.986805  0  0  0.104711  0  1.049201  0  0  0.107014  0  1.04853  0  0  0.091737  0.102949  0  1.049828  0
H  H67  1  0.37654992  0.72056265  0.91183459  1  0  0.092312  0  0.986785  0  0  0.104711  0  1.049218  0  0  0.107012  0  1.048549  0  0  0.091753  0.102953  0  1.049841  0
H  H68  1  0.36598213  0.92485242  0.51955885  1  0  0.112613  0  0.94316  0  0  0.131919  0  0.997319  0  0  0.132789  0  0.999311  0  0  0.102849  0.13122  0  0.996133  0
H  H69  1  0.63401507  0.07514933  0.48043742  1  0  0.112584  0  0.943158  0  0  0.131863  0  0.997347  0  0  0.132737  0  0.999334  0  0  0.102835  0.131164  0  0.996164  0
H  H70  1  0.50622754  0.91262611  0.57602885  1  0  0.092926  0  0.962465  0  0  0.107053  0  1.035053  0  0  0.108883  0  1.03394  0  0  0.091043  0.105685  0  1.035858  0
H  H71  1  0.49376453  0.08737658  0.42396824  1  0  0.093017  0  0.962412  0  0  0.107112  0  1.035018  0  0  0.108941  0  1.033906  0  0  0.0911  0.105747  0  1.03582  0
H  H72  1  0.63439284  0.09230260  0.01266936  1  0  0.100579  0  0.968964  0  0  0.111203  0  1.042462  0  0  0.113086  0  1.042389  0  0  0.089454  0.109715  0  1.042692  0
H  H73  1  0.36562503  0.90770198  0.98733159  1  0  0.100506  0  0.968819  0  0  0.111215  0  1.042276  0  0  0.113074  0  1.042213  0  0  0.089443  0.109727  0  1.042501  0
H  H74  1  0.59817609  0.93287273  0.01993625  1  0  0.101826  0  0.940898  0  0  0.12291  0  0.993502  0  0  0.123924  0  0.994421  0  0  0.100602  0.122114  0  0.992957  0
H  H75  1  0.40184581  0.06712715  0.98006096  1  0  0.101794  0  0.940884  0  0  0.122922  0  0.993482  0  0  0.123928  0  0.994409  0  0  0.100574  0.12213  0  0.99294  0
C  C76  1  0.00588295  0.51107803  0.16145410  1  0  0.183953  0  3.589532  0  0  0.12697  0  3.858737  0  0  0.136311  0  3.863865  0  0  -0.06508  0.120559  0  3.85529  0
C  C77  1  0.99411306  0.48892276  0.83853970  1  0  0.183799  0  3.589746  0  0  0.126965  0  3.858689  0  0  0.136325  0  3.863816  0  0  -0.064966  0.120562  0  3.85523  0
C  C78  1  0.88344895  0.44362999  0.19883827  1  0  -0.320889  0  3.713913  0  0  -0.401893  0  3.963354  0  0  -0.404826  0  3.97381  0  0  -0.250528  -0.399642  0  3.956066  0
C  C79  1  0.11654630  0.55636512  0.80114925  1  0  -0.321078  0  3.713971  0  0  -0.402214  0  3.963416  0  0  -0.405146  0  3.973862  0  0  -0.250638  -0.399959  0  3.956121  0
C  C80  1  0.01953301  0.82980226  0.00193987  1  0  0.177582  0  3.615781  0  0  0.124634  0  3.878915  0  0  0.133178  0  3.885823  0  0  -0.065697  0.118918  0  3.874066  0
C  C81  1  0.98046329  0.17019950  0.99805715  1  0  0.177567  0  3.615871  0  0  0.124655  0  3.878969  0  0  0.133201  0  3.88588  0  0  -0.065712  0.118931  0  3.874125  0
C  C82  1  0.89745729  0.80042691  0.93500992  1  0  -0.318185  0  3.716329  0  0  -0.396408  0  3.962539  0  0  -0.39956  0  3.972474  0  0  -0.24822  -0.394043  0  3.95568  0
C  C83  1  0.10254033  0.19957014  0.06498332  1  0  -0.318281  0  3.716387  0  0  -0.396543  0  3.962573  0  0  -0.399699  0  3.972501  0  0  -0.248255  -0.394173  0  3.955713  0
C  C84  1  0.37363064  0.67418175  0.42846822  1  0  -0.101117  0  3.754004  0  0  -0.060198  0  3.988254  0  0  -0.066923  0  4.015543  0  0  -0.025533  -0.055873  0  3.969757  0
C  C85  1  0.62636801  0.32582186  0.57152837  1  0  -0.100928  0  3.75402  0  0  -0.059993  0  3.988228  0  0  -0.066699  0  4.015494  0  0  -0.02548  -0.055693  0  3.969765  0
C  C86  1  0.42161997  0.62220567  0.50339164  1  0  -0.071828  0  3.746873  0  0  -0.090894  0  3.986256  0  0  -0.091466  0  4.008381  0  0  -0.084024  -0.090549  0  3.971404  0
C  C87  1  0.57837537  0.37779894  0.49660888  1  0  -0.071956  0  3.747076  0  0  -0.091012  0  3.986433  0  0  -0.091593  0  4.008555  0  0  -0.084073  -0.09065  0  3.971572  0
C  C88  1  0.34407351  0.52102420  0.53801965  1  0  -0.067048  0  3.748114  0  0  -0.075743  0  3.99113  0  0  -0.07822  0  4.012178  0  0  -0.088737  -0.07412  0  3.97713  0
C  C89  1  0.65592090  0.47898033  0.46197548  1  0  -0.067032  0  3.748073  0  0  -0.075695  0  3.991091  0  0  -0.07817  0  4.012141  0  0  -0.088711  -0.074067  0  3.977081  0
C  C90  1  0.21860912  0.46979598  0.49693849  1  0  -0.071061  0  3.767357  0  0  -0.084673  0  4.012171  0  0  -0.085257  0  4.032275  0  0  -0.088951  -0.084438  0  3.998617  0
C  C91  1  0.78138516  0.53020198  0.50305329  1  0  -0.070907  0  3.767828  0  0  -0.084549  0  4.012618  0  0  -0.085134  0  4.032725  0  0  -0.088881  -0.084315  0  3.999068  0
C  C92  1  0.17118234  0.51971479  0.42072301  1  0  -0.078501  0  3.769748  0  0  -0.087698  0  4.012168  0  0  -0.090625  0  4.033425  0  0  -0.091952  -0.085683  0  3.997364  0
C  C93  1  0.82881352  0.48029162  0.57927398  1  0  -0.078478  0  3.769984  0  0  -0.087633  0  4.012384  0  0  -0.090574  0  4.033635  0  0  -0.091843  -0.085621  0  3.997593  0
C  C94  1  0.24815450  0.62187402  0.38673615  1  0  -0.077793  0  3.746143  0  0  -0.095702  0  3.987517  0  0  -0.096912  0  4.00936  0  0  -0.087411  -0.094477  0  3.972728  0
C  C95  1  0.75184371  0.37813424  0.61326042  1  0  -0.078043  0  3.746252  0  0  -0.095975  0  3.987662  0  0  -0.097192  0  4.009504  0  0  -0.087497  -0.094744  0  3.972891  0
C  C96  1  0.62721066  0.80853546  0.39206807  1  0  -0.104903  0  3.768454  0  0  -0.06447  0  4.002808  0  0  -0.069915  0  4.029151  0  0  -0.029353  -0.060902  0  3.984439  0
C  C97  1  0.37278597  0.19146735  0.60793679  1  0  -0.10491  0  3.768537  0  0  -0.064537  0  4.00294  0  0  -0.069971  0  4.029253  0  0  -0.029378  -0.060993  0  3.984628  0
C  C98  1  0.71858232  0.87525794  0.47454024  1  0  -0.075049  0  3.746724  0  0  -0.091495  0  3.978848  0  0  -0.092776  0  4.001875  0  0  -0.089833  -0.091042  0  3.96426  0
C  C99  1  0.28141314  0.12474397  0.52546598  1  0  -0.075182  0  3.746716  0  0  -0.09156  0  3.97884  0  0  -0.09284  0  4.001866  0  0  -0.089892  -0.091102  0  3.964237  0
C  C100  1  0.84314326  0.87218411  0.46851332  1  0  -0.078448  0  3.772671  0  0  -0.089866  0  4.018385  0  0  -0.092965  0  4.040513  0  0  -0.092517  -0.088351  0  4.004175  0
C  C101  1  0.15685350  0.12781601  0.53149724  1  0  -0.078548  0  3.77299  0  0  -0.089939  0  4.018705  0  0  -0.093039  0  4.040846  0  0  -0.09251  -0.088418  0  4.004476  0
C  C102  1  0.87764802  0.80010348  0.38160533  1  0  -0.059112  0  3.750453  0  0  -0.073404  0  4.000785  0  0  -0.07387  0  4.020162  0  0  -0.088684  -0.072895  0  3.986679  0
C  C103  1  0.12234485  0.19989569  0.61840424  1  0  -0.058876  0  3.750493  0  0  -0.07313  0  4.000775  0  0  -0.073595  0  4.020144  0  0  -0.088591  -0.072621  0  3.986668  0
C  C104  1  0.78712336  0.73323777  0.29901774  1  0  -0.064043  0  3.741454  0  0  -0.076989  0  3.989567  0  0  -0.079357  0  4.010292  0  0  -0.08922  -0.074819  0  3.974485  0
C  C105  1  0.21287166  0.26675951  0.70099004  1  0  -0.064332  0  3.741467  0  0  -0.077284  0  3.989596  0  0  -0.079652  0  4.010322  0  0  -0.08932  -0.07512  0  3.974521  0
C  C106  1  0.66336676  0.73857896  0.30366446  1  0  -0.086363  0  3.775136  0  0  -0.104814  0  4.019608  0  0  -0.106321  0  4.041684  0  0  -0.087353  -0.10307  0  4.003658  0
C  C107  1  0.33663167  0.26142385  0.69634043  1  0  -0.086166  0  3.775116  0  0  -0.104573  0  4.019553  0  0  -0.106082  0  4.041636  0  0  -0.087344  -0.102833  0  4.003609  0
C  C108  1  0.69668038  0.09534927  0.23472495  1  0  -0.106035  0  3.766706  0  0  -0.069081  0  4.010143  0  0  -0.074028  0  4.035219  0  0  -0.029497  -0.065943  0  3.993403  0
C  C109  1  0.30332737  0.90465453  0.76528411  1  0  -0.106098  0  3.76663  0  0  -0.069043  0  4.009901  0  0  -0.073993  0  4.034999  0  0  -0.029476  -0.065914  0  3.993175  0
C  C110  1  0.74011647  0.20187860  0.31471075  1  0  -0.080568  0  3.763613  0  0  -0.097722  0  4.002454  0  0  -0.099319  0  4.025207  0  0  -0.090982  -0.09671  0  3.987473  0
C  C111  1  0.25989899  0.79812694  0.68529184  1  0  -0.080522  0  3.763417  0  0  -0.097736  0  4.002227  0  0  -0.099331  0  4.024976  0  0  -0.090958  -0.096718  0  3.987244  0
C  C112  1  0.86143485  0.23334821  0.36365543  1  0  -0.071904  0  3.78118  0  0  -0.082168  0  4.024286  0  0  -0.084255  0  4.045819  0  0  -0.094547  -0.080815  0  4.010018  0
C  C113  1  0.13857294  0.76665268  0.63634627  1  0  -0.071822  0  3.78104  0  0  -0.082042  0  4.024143  0  0  -0.084127  0  4.045673  0  0  -0.094409  -0.080685  0  4.00987  0
C  C114  1  0.94089187  0.15990640  0.33241938  1  0  -0.072678  0  3.76587  0  0  -0.084518  0  4.006832  0  0  -0.086067  0  4.028082  0  0  -0.093268  -0.083839  0  3.992685  0
C  C115  1  0.05911621  0.84009547  0.66758554  1  0  -0.072582  0  3.765674  0  0  -0.084394  0  4.006617  0  0  -0.085935  0  4.027851  0  0  -0.093192  -0.083719  0  3.992473  0
C  C116  1  0.89737931  0.05182996  0.25426107  1  0  -0.064121  0  3.769578  0  0  -0.073159  0  4.01209  0  0  -0.075799  0  4.035211  0  0  -0.09152  -0.071277  0  3.995882  0
C  C117  1  0.10262942  0.94817105  0.74574833  1  0  -0.064187  0  3.769799  0  0  -0.073189  0  4.01228  0  0  -0.075831  0  4.035442  0  0  -0.091601  -0.071306  0  3.996068  0
C  C118  1  0.77571831  0.01919879  0.20625331  1  0  -0.080769  0  3.755447  0  0  -0.098104  0  3.99447  0  0  -0.10021  0  4.017802  0  0  -0.088284  -0.096233  0  3.97838  0
C  C119  1  0.22427979  0.98079666  0.79375653  1  0  -0.080901  0  3.755492  0  0  -0.098172  0  3.99447  0  0  -0.100346  0  4.017778  0  0  -0.088351  -0.096293  0  3.978373  0
C  C120  1  0.49047362  0.19211459  0.18972853  1  0  -0.10285  0  3.751109  0  0  -0.060956  0  3.983844  0  0  -0.06712  0  4.010092  0  0  -0.027211  -0.056745  0  3.965665  0
C  C121  1  0.50953657  0.80788532  0.81027000  1  0  -0.102948  0  3.751161  0  0  -0.061057  0  3.983883  0  0  -0.067212  0  4.010104  0  0  -0.027273  -0.056855  0  3.965733  0
C  C122  1  0.39302733  0.20575796  0.25316662  1  0  -0.080869  0  3.762613  0  0  -0.100249  0  4.001333  0  0  -0.101179  0  4.023151  0  0  -0.08837  -0.09929  0  3.98623  0
C  C123  1  0.60697873  0.79423086  0.74683619  1  0  -0.080655  0  3.762778  0  0  -0.099999  0  4.001492  0  0  -0.100931  0  4.023321  0  0  -0.088264  -0.099036  0  3.986387  0
C  C124  1  0.35372466  0.31337629  0.26569026  1  0  -0.06137  0  3.756233  0  0  -0.069247  0  3.995202  0  0  -0.07239  0  4.017553  0  0  -0.088012  -0.06713  0  3.979931  0
C  C125  1  0.64627889  0.68660697  0.73431391  1  0  -0.061495  0  3.756392  0  0  -0.069374  0  3.995367  0  0  -0.072519  0  4.017723  0  0  -0.088127  -0.06726  0  3.980106  0
C  C126  1  0.41018923  0.40786936  0.21350553  1  0  -0.05749  0  3.754696  0  0  -0.070295  0  3.999085  0  0  -0.070761  0  4.02045  0  0  -0.084254  -0.069959  0  3.984739  0
C  C127  1  0.58980943  0.59211574  0.78649654  1  0  -0.057272  0  3.754912  0  0  -0.070138  0  3.99931  0  0  -0.070602  0  4.020682  0  0  -0.084265  -0.069801  0  3.984971  0
C  C128  1  0.50695889  0.39460829  0.14953701  1  0  -0.083741  0  3.779481  0  0  -0.093814  0  4.02293  0  0  -0.097643  0  4.045469  0  0  -0.092131  -0.091473  0  4.007926  0
C  C129  1  0.49304079  0.60539262  0.85046530  1  0  -0.083706  0  3.779475  0  0  -0.093818  0  4.022934  0  0  -0.097648  0  4.045476  0  0  -0.092045  -0.091472  0  4.007918  0
C  C130  1  0.54752281  0.28792069  0.13806512  1  0  -0.06611  0  3.731972  0  0  -0.084183  0  3.967147  0  0  -0.084921  0  3.989978  0  0  -0.084716  -0.083522  0  3.951727  0
C  C131  1  0.45248010  0.71208204  0.86193525  1  0  -0.066121  0  3.731894  0  0  -0.08417  0  3.967097  0  0  -0.08491  0  3.989935  0  0  -0.084743  -0.083509  0  3.951654  0
C  C132  1  0.46547842  0.93442003  0.50682408  1  0  -0.258556  0  3.677571  0  0  -0.279732  0  3.923557  0  0  -0.284277  0  3.936432  0  0  -0.169452  -0.276493  0  3.914477  0
C  C133  1  0.53451543  0.06558262  0.49316998  1  0  -0.258592  0  3.677437  0  0  -0.279711  0  3.923432  0  0  -0.284238  0  3.936248  0  0  -0.169448  -0.276472  0  3.914351  0
C  C134  1  0.56190653  0.01441618  0.03315651  1  0  -0.253817  0  3.675348  0  0  -0.274789  0  3.922875  0  0  -0.279673  0  3.936648  0  0  -0.168222  -0.271307  0  3.913411  0
C  C135  1  0.43811348  0.98558648  0.96684035  1  0  -0.253876  0  3.675311  0  0  -0.274926  0  3.922722  0  0  -0.279769  0  3.936484  0  0  -0.16829  -0.271446  0  3.91326  0
S  S136  1  0.25565978  0.69896090  0.08197185  1  0  -0.566255  0  1.973535  0  0  -0.513167  0  2.320815  0  0  -0.530141  0  2.305332  0  0  -0.233981  -0.500656  0  2.331154  0
S  S137  1  0.74433200  0.30104084  0.91802355  1  0  -0.566289  0  1.973599  0  0  -0.513195  0  2.32087  0  0  -0.530168  0  2.305391  0  0  -0.233974  -0.500668  0  2.331207  0
S  S138  1  0.16461229  0.90842553  0.25840134  1  0  -0.546905  0  1.988301  0  0  -0.494517  0  2.340133  0  0  -0.512564  0  2.32497  0  0  -0.211526  -0.482594  0  2.349365  0
S  S139  1  0.83538773  0.09157349  0.74159915  1  0  -0.546914  0  1.988353  0  0  -0.494517  0  2.340196  0  0  -0.512562  0  2.325031  0  0  -0.211528  -0.482582  0  2.349427  0
O  O140  1  0.03802342  0.64241984  0.21340451  1  0  -0.45015  0  2.277854  0  0  -0.360337  0  2.524584  0  0  -0.38325  0  2.521304  0  0  -0.212688  -0.344288  0  2.526679  0
O  O141  1  0.96196872  0.35758003  0.78658983  1  0  -0.450064  0  2.277882  0  0  -0.360371  0  2.524703  0  0  -0.383279  0  2.521397  0  0  -0.212744  -0.344319  0  2.526798  0
O  O142  1  0.00183229  0.74184662  0.07081055  1  0  -0.447424  0  2.257206  0  0  -0.361267  0  2.502606  0  0  -0.38289  0  2.497779  0  0  -0.219191  -0.346022  0  2.505411  0
O  O143  1  0.99816179  0.25815984  0.92918948  1  0  -0.447364  0  2.257249  0  0  -0.361214  0  2.502648  0  0  -0.382829  0  2.497809  0  0  -0.21917  -0.345965  0  2.505454  0
