# generated using pymatgen
data_DyH13C12S3(N3O4)2
_symmetry_space_group_name_H-M   'P 1'
_cell_length_a   9.77512779
_cell_length_b   9.74234410
_cell_length_c   11.04134230
_cell_angle_alpha   81.63233317
_cell_angle_beta   85.14901650
_cell_angle_gamma   83.85037048
_symmetry_Int_Tables_number   1
_chemical_formula_structural   DyH13C12S3(N3O4)2
_chemical_formula_sum   'Dy2 H26 C24 S6 N12 O16'
_cell_volume   1031.77043626
_cell_formula_units_Z   2
loop_
 _symmetry_equiv_pos_site_id
 _symmetry_equiv_pos_as_xyz
  1  'x, y, z'
loop_
 _atom_site_type_symbol
 _atom_site_label
 _atom_site_symmetry_multiplicity
 _atom_site_fract_x
 _atom_site_fract_y
 _atom_site_fract_z
 _atom_site_occupancy
 _atom_site_hle17_bader_spin_density
 _atom_site_hle17_ddec_charge
 _atom_site_hle17_ddec_spin_density
 _atom_site_hle17_ddec_sum_bond_order
 _atom_site_hle17_magmom
 _atom_site_hse06_10hf_bader_spin_density
 _atom_site_hse06_10hf_ddec_charge
 _atom_site_hse06_10hf_ddec_spin_density
 _atom_site_hse06_10hf_ddec_sum_bond_order
 _atom_site_hse06_10hf_magmom
 _atom_site_hse06_bader_spin_density
 _atom_site_hse06_ddec_charge
 _atom_site_hse06_ddec_spin_density
 _atom_site_hse06_ddec_sum_bond_order
 _atom_site_hse06_magmom
 _atom_site_pbe_bader_spin_density
 _atom_site_pbe_cm5_charge
 _atom_site_pbe_ddec_charge
 _atom_site_pbe_ddec_spin_density
 _atom_site_pbe_ddec_sum_bond_order
 _atom_site_pbe_magmom
Dy  Dy0  1  0.25115343  0.48412857  0.50234859  1  0  2.304848  0  1.628184  0  0  2.235267  0  1.961893  0  0  2.281607  0  1.918396  0  0  1.523651  2.12653  0  2.132602  0
Dy  Dy1  1  0.74884707  0.51586715  0.49765013  1  0  2.304834  0  1.628266  0  0  2.235245  0  1.961975  0  0  2.28158  0  1.918483  0  0  1.523632  2.12645  0  2.13275  0
H  H2  1  0.29159482  0.35441864  0.17566395  1  0  0.143951  0  0.951989  0  0  0.161487  0  1.010106  0  0  0.164552  0  1.008117  0  0  0.097004  0.159045  0  1.012053  0
H  H3  1  0.70839916  0.64558259  0.82434266  1  0  0.143857  0  0.952113  0  0  0.161409  0  1.010212  0  0  0.164471  0  1.008226  0  0  0.096976  0.158967  0  1.01216  0
H  H4  1  0.29082999  0.41767428  0.01549890  1  0  0.115566  0  0.960887  0  0  0.130089  0  1.032309  0  0  0.131125  0  1.032546  0  0  0.08778  0.129493  0  1.031781  0
H  H5  1  0.70918104  0.58233282  0.98450732  1  0  0.115493  0  0.960872  0  0  0.129995  0  1.032349  0  0  0.13103  0  1.032587  0  0  0.087755  0.129399  0  1.03182  0
H  H6  1  0.30163496  0.23579465  0.06361435  1  0  0.118741  0  0.956646  0  0  0.134538  0  1.026399  0  0  0.135613  0  1.026531  0  0  0.088807  0.133826  0  1.026153  0
H  H7  1  0.69835870  0.76421065  0.93638626  1  0  0.118728  0  0.956521  0  0  0.134525  0  1.026292  0  0  0.135602  0  1.02642  0  0  0.088817  0.133812  0  1.026045  0
H  H8  1  0.90541397  0.99500786  0.44539824  1  0  0.12137  0  0.950023  0  0  0.145673  0  1.003921  0  0  0.146874  0  1.003729  0  0  0.101403  0.144592  0  1.004379  0
H  H9  1  0.09458927  0.00499310  0.55460495  1  0  0.121386  0  0.949994  0  0  0.145691  0  1.003903  0  0  0.146892  0  1.003708  0  0  0.101376  0.14461  0  1.004358  0
H  H10  1  0.79898630  0.09293811  0.54793810  1  0  0.129487  0  0.94996  0  0  0.147262  0  1.014174  0  0  0.148473  0  1.014527  0  0  0.098228  0.146277  0  1.014144  0
H  H11  1  0.20102033  0.90705866  0.45206814  1  0  0.129511  0  0.949896  0  0  0.1473  0  1.014083  0  0  0.148511  0  1.014437  0  0  0.098246  0.14632  0  1.014055  0
H  H12  1  0.86688768  0.18022086  0.40978707  1  0  0.139008  0  0.965571  0  0  0.15551  0  1.0306  0  0  0.157242  0  1.03013  0  0  0.101831  0.154082  0  1.031051  0
H  H13  1  0.13311342  0.81978123  0.59021794  1  0  0.139061  0  0.965552  0  0  0.155557  0  1.030598  0  0  0.157289  0  1.030127  0  0  0.101829  0.154131  0  1.031047  0
H  H14  1  0.05377352  0.91942809  0.28000553  1  0  0.118866  0  0.973234  0  0  0.138447  0  1.033375  0  0  0.140527  0  1.032444  0  0  0.092539  0.136737  0  1.034517  0
H  H15  1  0.94621795  0.08056478  0.71999704  1  0  0.118772  0  0.973378  0  0  0.138363  0  1.033513  0  0  0.140438  0  1.032583  0  0  0.092539  0.136652  0  1.034655  0
H  H16  1  0.98065878  0.94403249  0.13514144  1  0  0.144323  0  0.923006  0  0  0.159764  0  0.99003  0  0  0.16177  0  0.988825  0  0  0.103303  0.15825  0  0.9911  0
H  H17  1  0.01933254  0.05596243  0.86485904  1  0  0.144276  0  0.922945  0  0  0.159684  0  0.990033  0  0  0.161686  0  0.988832  0  0  0.103292  0.158181  0  0.991094  0
H  H18  1  0.06980539  0.07743476  0.17682072  1  0  0.118476  0  0.966345  0  0  0.136799  0  1.029622  0  0  0.137043  0  1.032066  0  0  0.092364  0.136801  0  1.027638  0
H  H19  1  0.93018602  0.92255919  0.82318352  1  0  0.118413  0  0.966337  0  0  0.136795  0  1.029581  0  0  0.137039  0  1.032021  0  0  0.092387  0.136795  0  1.0276  0
H  H20  1  0.17606245  0.20561839  0.63101518  1  0  0.398689  0  0.919592  0  0  0.357569  0  1.000617  0  0  0.368218  0  0.985345  0  0  0.291641  0.349661  0  1.011824  0
H  H21  1  0.82393997  0.79437944  0.36898671  1  0  0.39875  0  0.919513  0  0  0.357634  0  1.00053  0  0  0.368282  0  0.985259  0  0  0.291666  0.349725  0  1.011738  0
H  H22  1  0.02733121  0.29771814  0.62216597  1  0  0.457529  0  0.825382  0  0  0.429203  0  0.88341  0  0  0.43954  0  0.868127  0  0  0.311347  0.420891  0  0.89551  0
H  H23  1  0.97267312  0.70228172  0.37783549  1  0  0.457521  0  0.825388  0  0  0.429203  0  0.883405  0  0  0.439541  0  0.868118  0  0  0.311333  0.42089  0  0.895506  0
H  H24  1  0.45889121  0.40789996  0.69435633  1  0  0.442848  0  0.854879  0  0  0.411338  0  0.919766  0  0  0.422473  0  0.903259  0  0  0.297142  0.402623  0  0.932395  0
H  H25  1  0.54111451  0.59209460  0.30564215  1  0  0.442837  0  0.854898  0  0  0.41129  0  0.919826  0  0  0.422424  0  0.903324  0  0  0.297146  0.40258  0  0.932449  0
H  H26  1  0.35761445  0.29324234  0.71852186  1  0  0.425666  0  0.860145  0  0  0.396071  0  0.927837  0  0  0.405147  0  0.914349  0  0  0.307618  0.388276  0  0.939337  0
H  H27  1  0.64239877  0.70674786  0.28147574  1  0  0.425747  0  0.860035  0  0  0.39614  0  0.927751  0  0  0.405216  0  0.914262  0  0  0.307647  0.388341  0  0.939257  0
C  C28  1  0.03051095  0.39858961  0.31634678  1  0  0.766411  0  3.876538  0  0  0.721772  0  4.165474  0  0  0.758406  0  4.151574  0  0  0.240333  0.695932  0  4.170133  0
C  C29  1  0.96947942  0.60141762  0.68364204  1  0  0.766525  0  3.876277  0  0  0.721724  0  4.165408  0  0  0.758374  0  4.151513  0  0  0.240156  0.695872  0  4.170089  0
C  C30  1  0.00865858  0.36334790  0.19376518  1  0  -0.250408  0  3.660272  0  0  -0.240366  0  3.920543  0  0  -0.249578  0  3.938147  0  0  -0.011206  -0.23473  0  3.910628  0
C  C31  1  0.99133765  0.63666330  0.80621989  1  0  -0.25043  0  3.660395  0  0  -0.240303  0  3.920603  0  0  -0.249581  0  3.938299  0  0  -0.011236  -0.234664  0  3.91069  0
C  C32  1  0.10283118  0.34052365  0.09492894  1  0  0.253491  0  3.715028  0  0  0.255267  0  3.976217  0  0  0.260188  0  3.99738  0  0  0.109236  0.251452  0  3.962705  0
C  C33  1  0.89716964  0.65948128  0.90506119  1  0  0.253154  0  3.715166  0  0  0.254968  0  3.976279  0  0  0.25991  0  3.997452  0  0  0.10915  0.251156  0  3.96276  0
C  C34  1  0.25602313  0.33701654  0.08835510  1  0  -0.368438  0  3.706239  0  0  -0.447837  0  3.943244  0  0  -0.451004  0  3.951322  0  0  -0.243909  -0.445739  0  3.938389  0
C  C35  1  0.74397450  0.66299076  0.91164582  1  0  -0.368073  0  3.706011  0  0  -0.447491  0  3.943054  0  0  -0.450652  0  3.951122  0  0  -0.243825  -0.445401  0  3.938197  0
C  C36  1  0.53159518  0.27220772  0.42731227  1  0  0.761515  0  3.887748  0  0  0.716037  0  4.181823  0  0  0.752297  0  4.168405  0  0  0.236655  0.689961  0  4.186884  0
C  C37  1  0.46840802  0.72779307  0.57268190  1  0  0.7614  0  3.887941  0  0  0.716018  0  4.18184  0  0  0.752275  0  4.168426  0  0  0.236654  0.68994  0  4.186906  0
C  C38  1  0.57676051  0.13687009  0.38115180  1  0  -0.246171  0  3.642941  0  0  -0.240342  0  3.91528  0  0  -0.248895  0  3.933452  0  0  -0.009194  -0.23533  0  3.905429  0
C  C39  1  0.42324207  0.86312567  0.61885129  1  0  -0.246073  0  3.642884  0  0  -0.240284  0  3.915252  0  0  -0.248835  0  3.933423  0  0  -0.009199  -0.235266  0  3.905401  0
C  C40  1  0.70312215  0.05633808  0.39000910  1  0  0.252979  0  3.733371  0  0  0.246179  0  4.00071  0  0  0.250662  0  4.02263  0  0  0.110758  0.242917  0  3.986583  0
C  C41  1  0.29687919  0.94366088  0.60999634  1  0  0.252949  0  3.733537  0  0  0.246098  0  4.000943  0  0  0.250582  0  4.022863  0  0  0.110704  0.242831  0  3.986828  0
C  C42  1  0.82586038  0.08238720  0.45097440  1  0  -0.360638  0  3.689531  0  0  -0.442535  0  3.927754  0  0  -0.445097  0  3.936081  0  0  -0.236177  -0.440623  0  3.92269  0
C  C43  1  0.17413985  0.91761287  0.54903278  1  0  -0.360742  0  3.689575  0  0  -0.442647  0  3.927817  0  0  -0.445208  0  3.936141  0  0  -0.236148  -0.44073  0  3.922754  0
C  C44  1  0.26932182  0.68526444  0.28627765  1  0  0.694979  0  3.916433  0  0  0.644669  0  4.216085  0  0  0.679864  0  4.206079  0  0  0.206032  0.621667  0  4.215421  0
C  C45  1  0.73067717  0.31473880  0.71373099  1  0  0.69508  0  3.916359  0  0  0.64488  0  4.215866  0  0  0.680076  0  4.205858  0  0  0.206088  0.62187  0  4.215196  0
C  C46  1  0.28350017  0.78363560  0.17192513  1  0  -0.23772  0  3.682711  0  0  -0.233317  0  3.959958  0  0  -0.242303  0  3.977322  0  0  -0.01698  -0.228109  0  3.949682  0
C  C47  1  0.71649374  0.21636667  0.82808133  1  0  -0.23769  0  3.682798  0  0  -0.233383  0  3.960059  0  0  -0.242372  0  3.977424  0  0  -0.016919  -0.228172  0  3.949781  0
C  C48  1  0.19981844  0.90175331  0.12651810  1  0  0.254448  0  3.712663  0  0  0.252144  0  3.981684  0  0  0.25755  0  4.001966  0  0  0.110007  0.248436  0  3.967999  0
C  C49  1  0.80017369  0.09824477  0.87348549  1  0  0.254364  0  3.712873  0  0  0.252158  0  3.981772  0  0  0.257567  0  4.00206  0  0  0.109999  0.248448  0  3.96809  0
C  C50  1  0.06878648  0.96407373  0.18375337  1  0  -0.350644  0  3.671998  0  0  -0.427039  0  3.902884  0  0  -0.430084  0  3.911453  0  0  -0.237043  -0.424856  0  3.897211  0
C  C51  1  0.93120280  0.03592129  0.81624998  1  0  -0.350344  0  3.672008  0  0  -0.426791  0  3.902867  0  0  -0.429826  0  3.911434  0  0  -0.237024  -0.424613  0  3.897164  0
S  S52  1  0.84739809  0.35228884  0.15159433  1  0  0.287543  0  2.657787  0  0  0.275149  0  3.003278  0  0  0.28032  0  3.008646  0  0  0.243071  0.270978  0  2.999617  0
S  S53  1  0.15260367  0.64771704  0.84839197  1  0  0.287584  0  2.65783  0  0  0.275163  0  3.003311  0  0  0.280353  0  3.008703  0  0  0.243125  0.270992  0  2.999653  0
S  S54  1  0.47111245  0.05102083  0.31043075  1  0  0.342677  0  2.662568  0  0  0.327794  0  3.00915  0  0  0.332569  0  3.015672  0  0  0.275998  0.32393  0  3.006233  0
S  S55  1  0.52888997  0.94897700  0.68957114  1  0  0.342649  0  2.662835  0  0  0.327772  0  3.009436  0  0  0.332548  0  3.015957  0  0  0.276015  0.323909  0  3.00651  0
S  S56  1  0.41502800  0.75569324  0.06486384  1  0  0.28107  0  2.648654  0  0  0.274549  0  2.994561  0  0  0.279502  0  2.997446  0  0  0.232593  0.270482  0  2.992993  0
S  S57  1  0.58497370  0.24431514  0.93514385  1  0  0.28109  0  2.648809  0  0  0.274568  0  2.994764  0  0  0.279525  0  2.997648  0  0  0.23256  0.270499  0  2.993197  0
N  N58  1  0.90652533  0.32011947  0.00956953  1  0  -0.188298  0  2.880374  0  0  -0.171347  0  3.191489  0  0  -0.173313  0  3.204254  0  0  -0.165432  -0.170244  0  3.183436  0
N  N59  1  0.09348312  0.67987895  0.99041640  1  0  -0.18819  0  2.880319  0  0  -0.171231  0  3.191439  0  0  -0.173195  0  3.204204  0  0  -0.165361  -0.170127  0  3.183387  0
N  N60  1  0.03992028  0.31735101  0.99423804  1  0  -0.172721  0  2.965519  0  0  -0.15962  0  3.252551  0  0  -0.163531  0  3.264555  0  0  -0.181889  -0.156753  0  3.244899  0
N  N61  1  0.96008599  0.68264968  0.00575498  1  0  -0.172715  0  2.965333  0  0  -0.159641  0  3.252379  0  0  -0.163553  0  3.264381  0  0  -0.181911  -0.156773  0  3.244724  0
N  N62  1  0.59028390  0.91804731  0.29396888  1  0  -0.199175  0  2.895988  0  0  -0.186025  0  3.201704  0  0  -0.187459  0  3.210705  0  0  -0.165947  -0.185121  0  3.197198  0
N  N63  1  0.40972207  0.08194422  0.70603545  1  0  -0.199066  0  2.896288  0  0  -0.185936  0  3.202013  0  0  -0.18737  0  3.211016  0  0  -0.165923  -0.18503  0  3.197502  0
N  N64  1  0.70450182  0.93614027  0.34000434  1  0  -0.177712  0  3.090057  0  0  -0.132146  0  3.349877  0  0  -0.138541  0  3.362021  0  0  -0.16286  -0.127513  0  3.342201  0
N  N65  1  0.29549966  0.06385659  0.66000048  1  0  -0.177803  0  3.090339  0  0  -0.132175  0  3.350115  0  0  -0.138575  0  3.362267  0  0  -0.162835  -0.127542  0  3.342443  0
N  N66  1  0.35906144  0.89624562  0.96732804  1  0  -0.197693  0  2.88981  0  0  -0.192396  0  3.218414  0  0  -0.193033  0  3.228602  0  0  -0.173214  -0.191487  0  3.211156  0
N  N67  1  0.64093195  0.10376395  0.03267743  1  0  -0.19767  0  2.889735  0  0  -0.192362  0  3.218357  0  0  -0.192997  0  3.228544  0  0  -0.173226  -0.191455  0  3.211099  0
N  N68  1  0.24777745  0.96106411  0.01258345  1  0  -0.170428  0  2.982982  0  0  -0.155725  0  3.279502  0  0  -0.160385  0  3.291146  0  0  -0.178388  -0.151989  0  3.270837  0
N  N69  1  0.75221329  0.03893923  0.98742040  1  0  -0.170507  0  2.983004  0  0  -0.155838  0  3.279523  0  0  -0.1605  0  3.291169  0  0  -0.178418  -0.1521  0  3.270852  0
O  O70  1  0.15127090  0.41286260  0.34083619  1  0  -0.691412  0  2.066813  0  0  -0.649197  0  2.308647  0  0  -0.674591  0  2.298232  0  0  -0.376632  -0.621788  0  2.318564  0
O  O71  1  0.84871567  0.58715526  0.65915866  1  0  -0.691448  0  2.06671  0  0  -0.649142  0  2.308572  0  0  -0.674542  0  2.298171  0  0  -0.3765  -0.62172  0  2.318493  0
O  O72  1  0.12707764  0.29840229  0.60082011  1  0  -0.926675  0  1.89173  0  0  -0.884374  0  2.089765  0  0  -0.902836  0  2.057019  0  0  -0.652237  -0.860809  0  2.119452  0
O  O73  1  0.87292476  0.70159545  0.39917727  1  0  -0.926747  0  1.891695  0  0  -0.884451  0  2.089721  0  0  -0.902907  0  2.056975  0  0  -0.652221  -0.860878  0  2.11941  0
O  O74  1  0.92343569  0.41235323  0.38976338  1  0  -0.778805  0  2.096542  0  0  -0.742234  0  2.370084  0  0  -0.765789  0  2.351918  0  0  -0.428039  -0.711405  0  2.383048  0
O  O75  1  0.07654623  0.58764269  0.61022412  1  0  -0.778895  0  2.096502  0  0  -0.742278  0  2.37011  0  0  -0.765824  0  2.351921  0  0  -0.428001  -0.711454  0  2.383078  0
O  O76  1  0.35999487  0.39328527  0.69045637  1  0  -0.914536  0  1.869244  0  0  -0.881032  0  2.05601  0  0  -0.898482  0  2.02478  0  0  -0.63718  -0.858242  0  2.085688  0
O  O77  1  0.64001415  0.60670607  0.30954140  1  0  -0.91461  0  1.86918  0  0  -0.881055  0  2.056013  0  0  -0.898508  0  2.02479  0  0  -0.637211  -0.858252  0  2.085679  0
O  O78  1  0.40243722  0.30243691  0.44185936  1  0  -0.721293  0  2.027759  0  0  -0.686281  0  2.281287  0  0  -0.710147  0  2.267851  0  0  -0.395191  -0.658589  0  2.293762  0
O  O79  1  0.59756382  0.69756488  0.55813030  1  0  -0.721233  0  2.027757  0  0  -0.686274  0  2.28128  0  0  -0.710136  0  2.26785  0  0  -0.395221  -0.658571  0  2.293752  0
O  O80  1  0.62436352  0.34498806  0.44813292  1  0  -0.727311  0  2.048265  0  0  -0.687765  0  2.307946  0  0  -0.712701  0  2.294958  0  0  -0.385341  -0.657022  0  2.318707  0
O  O81  1  0.37564663  0.65500228  0.55186852  1  0  -0.727282  0  2.048391  0  0  -0.687748  0  2.308  0  0  -0.712691  0  2.29503  0  0  -0.385288  -0.657013  0  2.318762  0
O  O82  1  0.36758774  0.58893584  0.30974006  1  0  -0.710834  0  2.029189  0  0  -0.660765  0  2.261535  0  0  -0.685754  0  2.249597  0  0  -0.362168  -0.635331  0  2.269404  0
O  O83  1  0.63241842  0.41106706  0.69025899  1  0  -0.710898  0  2.029413  0  0  -0.660878  0  2.261726  0  0  -0.685866  0  2.249784  0  0  -0.362242  -0.63544  0  2.269595  0
O  O84  1  0.16238373  0.69450754  0.36007474  1  0  -0.683526  0  2.014999  0  0  -0.632204  0  2.243565  0  0  -0.658006  0  2.235226  0  0  -0.340354  -0.60712  0  2.249132  0
O  O85  1  0.83762584  0.30549124  0.63993098  1  0  -0.68361  0  2.014856  0  0  -0.632303  0  2.243331  0  0  -0.658107  0  2.234996  0  0  -0.340343  -0.60721  0  2.248887  0
