# generated using pymatgen
data_ZnH3C2IN4
_symmetry_space_group_name_H-M   'P 1'
_cell_length_a   9.58251309
_cell_length_b   9.96955543
_cell_length_c   13.02225378
_cell_angle_alpha   90.00004787
_cell_angle_beta   89.99999813
_cell_angle_gamma   90.00001414
_symmetry_Int_Tables_number   1
_chemical_formula_structural   ZnH3C2IN4
_chemical_formula_sum   'Zn8 H24 C16 I8 N32'
_cell_volume   1244.06011856
_cell_formula_units_Z   8
loop_
 _symmetry_equiv_pos_site_id
 _symmetry_equiv_pos_as_xyz
  1  'x, y, z'
loop_
 _atom_site_type_symbol
 _atom_site_label
 _atom_site_symmetry_multiplicity
 _atom_site_fract_x
 _atom_site_fract_y
 _atom_site_fract_z
 _atom_site_occupancy
 _atom_site_pbe_bader_spin_density
 _atom_site_pbe_cm5_charge
 _atom_site_pbe_ddec_charge
 _atom_site_pbe_ddec_spin_density
 _atom_site_pbe_ddec_sum_bond_order
 _atom_site_pbe_magmom
Zn  Zn0  1  0.57428886  0.61590465  0.90068146  1  0  0.599538  0.579761  0  2.650046  0
Zn  Zn1  1  0.92571127  0.38409569  0.40068114  1  0  0.59953  0.579765  0  2.650021  0
Zn  Zn2  1  0.42571087  0.11590424  0.59931872  1  0  0.599527  0.579746  0  2.650036  0
Zn  Zn3  1  0.07428856  0.88409565  0.09931873  1  0  0.599542  0.579775  0  2.649996  0
Zn  Zn4  1  0.42571092  0.38409547  0.09931856  1  0  0.59954  0.579744  0  2.650044  0
Zn  Zn5  1  0.07428851  0.61590443  0.59931811  1  0  0.599542  0.579747  0  2.650041  0
Zn  Zn6  1  0.57428891  0.88409488  0.40068054  1  0  0.599546  0.579757  0  2.650013  0
Zn  Zn7  1  0.92571018  0.11590447  0.90068129  1  0  0.599543  0.579766  0  2.650005  0
H  H8  1  0.67961617  0.91155673  0.83469604  1  0  0.118244  0.086388  0  1.041361  0
H  H9  1  0.82038396  0.08844254  0.33469631  1  0  0.118238  0.086394  0  1.041349  0
H  H10  1  0.32038467  0.41155737  0.66530355  1  0  0.118236  0.086411  0  1.041333  0
H  H11  1  0.17961579  0.58844260  0.16530414  1  0  0.118227  0.086381  0  1.041366  0
H  H12  1  0.32038465  0.08844239  0.16530321  1  0  0.118234  0.086409  0  1.041339  0
H  H13  1  0.17961686  0.91155658  0.66530448  1  0  0.118241  0.086395  0  1.041365  0
H  H14  1  0.67961615  0.58844275  0.33469570  1  0  0.11823  0.086382  0  1.041366  0
H  H15  1  0.82038503  0.41155652  0.83469665  1  0  0.118236  0.08639  0  1.041356  0
H  H16  1  0.88964144  0.65765840  0.15071759  1  0  0.283288  0.291547  0  1.00686  0
H  H17  1  0.61035766  0.34234167  0.65071773  1  0  0.283291  0.291534  0  1.006872  0
H  H18  1  0.11035728  0.15765819  0.34928214  1  0  0.283287  0.291554  0  1.006854  0
H  H19  1  0.38964213  0.84234098  0.84928183  1  0  0.283286  0.29154  0  1.006864  0
H  H20  1  0.11035729  0.34234172  0.84928244  1  0  0.283278  0.291519  0  1.006894  0
H  H21  1  0.38964212  0.65765845  0.34928153  1  0  0.283298  0.291556  0  1.006863  0
H  H22  1  0.88964145  0.84234193  0.65071788  1  0  0.2833  0.291549  0  1.006861  0
H  H23  1  0.61035660  0.15765814  0.15071820  1  0  0.283278  0.291505  0  1.006904  0
H  H24  1  0.76684484  0.56576358  0.08441874  1  0  0.304912  0.317594  0  0.953031  0
H  H25  1  0.73315531  0.43423642  0.58441894  1  0  0.304855  0.317471  0  0.953057  0
H  H26  1  0.23315595  0.06576347  0.41558092  1  0  0.304904  0.317602  0  0.95301  0
H  H27  1  0.26684554  0.93423577  0.91558144  1  0  0.304859  0.317479  0  0.953048  0
H  H28  1  0.23315390  0.43423654  0.91558051  1  0  0.304861  0.317487  0  0.953038  0
H  H29  1  0.26684446  0.56576370  0.41558108  1  0  0.304934  0.317633  0  0.952978  0
H  H30  1  0.76684382  0.93423565  0.58441910  1  0  0.304936  0.31762  0  0.952983  0
H  H31  1  0.73315424  0.06576335  0.08441935  1  0  0.304853  0.317464  0  0.95306  0
C  C32  1  0.74057199  0.87256908  0.89848299  1  0  0.140178  0.161682  0  4.000152  0
C  C33  1  0.75942813  0.12743026  0.39848328  1  0  0.140217  0.161683  0  4.000134  0
C  C34  1  0.25942884  0.37256963  0.60151658  1  0  0.140217  0.161661  0  4.000099  0
C  C35  1  0.24057162  0.62743027  0.10151719  1  0  0.140192  0.161668  0  4.000102  0
C  C36  1  0.25942883  0.12743004  0.10151626  1  0  0.140207  0.161646  0  4.00021  0
C  C37  1  0.24057164  0.87256886  0.60151750  1  0  0.140146  0.161645  0  4.000183  0
C  C38  1  0.74057198  0.62743049  0.39848268  1  0  0.140208  0.161687  0  4.000158  0
C  C39  1  0.75942919  0.37256885  0.89848360  1  0  0.140234  0.161722  0  4.000146  0
C  C40  1  0.81638197  0.74669037  0.02025633  1  0  0.321729  0.535667  0  4.10139  0
C  C41  1  0.68361714  0.25330955  0.52025641  1  0  0.321717  0.535616  0  4.101466  0
C  C42  1  0.18361782  0.24669032  0.47974269  1  0  0.321762  0.535742  0  4.101408  0
C  C43  1  0.31638262  0.75330899  0.97974309  1  0  0.321774  0.535674  0  4.101452  0
C  C44  1  0.18361676  0.25330975  0.97974293  1  0  0.321758  0.535721  0  4.101342  0
C  C45  1  0.31638264  0.74669057  0.47974284  1  0  0.321756  0.53565  0  4.101459  0
C  C46  1  0.81638196  0.75330980  0.52025657  1  0  0.321738  0.535655  0  4.101412  0
C  C47  1  0.68361819  0.24669013  0.02025694  1  0  0.321732  0.535674  0  4.101384  0
I  I48  1  0.52895629  0.65341073  0.70987886  1  0  -0.236824  -0.416526  0  1.426409  0
I  I49  1  0.97104385  0.34658840  0.20987852  1  0  -0.236832  -0.416541  0  1.426402  0
I  I50  1  0.47104344  0.15341154  0.79012134  1  0  -0.236827  -0.416534  0  1.426406  0
I  I51  1  0.02895597  0.84658856  0.29012132  1  0  -0.236833  -0.416542  0  1.426398  0
I  I52  1  0.47104348  0.34658839  0.29012193  1  0  -0.236831  -0.416527  0  1.426387  0
I  I53  1  0.02895593  0.65341072  0.79012150  1  0  -0.236837  -0.416546  0  1.426391  0
I  I54  1  0.52895633  0.84658858  0.20987868  1  0  -0.236836  -0.416541  0  1.426406  0
I  I55  1  0.97104381  0.15341156  0.70987870  1  0  -0.236828  -0.416535  0  1.426395  0
N  N56  1  0.84707746  0.93720389  0.94006721  1  0  -0.27969  -0.19165  0  3.580211  0
N  N57  1  0.65292266  0.06279650  0.44006746  1  0  -0.279706  -0.191644  0  3.580253  0
N  N58  1  0.15292235  0.43720437  0.55993240  1  0  -0.279704  -0.191661  0  3.580189  0
N  N59  1  0.34707813  0.56279548  0.05993220  1  0  -0.279692  -0.191653  0  3.580214  0
N  N60  1  0.15292231  0.06279623  0.05993281  1  0  -0.279693  -0.191665  0  3.580278  0
N  N61  1  0.34707816  0.93720362  0.55993333  1  0  -0.279663  -0.191647  0  3.580227  0
N  N62  1  0.84707847  0.56279575  0.44006685  1  0  -0.279694  -0.191671  0  3.580247  0
N  N63  1  0.65292269  0.43720364  0.94006782  1  0  -0.279744  -0.191713  0  3.580234  0
N  N64  1  0.71636643  0.75383361  0.94581885  1  0  -0.373001  -0.39702  0  3.483189  0
N  N65  1  0.78363370  0.24616678  0.44581921  1  0  -0.373003  -0.396996  0  3.483203  0
N  N66  1  0.28363438  0.25383312  0.55418065  1  0  -0.373022  -0.39704  0  3.483179  0
N  N67  1  0.21636609  0.74616673  0.05418057  1  0  -0.373001  -0.396993  0  3.483182  0
N  N68  1  0.28363439  0.24616751  0.05418041  1  0  -0.373019  -0.397009  0  3.483177  0
N  N69  1  0.21636608  0.75383334  0.55418081  1  0  -0.372993  -0.396984  0  3.483193  0
N  N70  1  0.71636644  0.74616700  0.44581937  1  0  -0.373007  -0.397001  0  3.483179  0
N  N71  1  0.78363368  0.25383239  0.94582022  1  0  -0.373032  -0.39705  0  3.483206  0
N  N72  1  0.89774791  0.85676550  0.01870901  1  0  -0.290065  -0.312552  0  3.435606  0
N  N73  1  0.60225225  0.14323342  0.51870826  1  0  -0.290066  -0.312569  0  3.435677  0
N  N74  1  0.10225296  0.35676543  0.48129084  1  0  -0.290076  -0.31258  0  3.435678  0
N  N75  1  0.39774749  0.64323388  0.98129117  1  0  -0.290075  -0.312565  0  3.435709  0
N  N76  1  0.10225187  0.14323362  0.98129101  1  0  -0.290078  -0.312576  0  3.435635  0
N  N77  1  0.39774753  0.85676570  0.48129100  1  0  -0.290065  -0.312516  0  3.435636  0
N  N78  1  0.89774786  0.64323369  0.51870918  1  0  -0.290069  -0.312536  0  3.435634  0
N  N79  1  0.60225229  0.35676724  0.01870962  1  0  -0.290027  -0.312522  0  3.435581  0
N  N80  1  0.83674091  0.64188835  0.08398643  1  0  -0.588306  -0.654876  0  3.364268  0
N  N81  1  0.66325819  0.35811165  0.58398581  1  0  -0.588247  -0.654715  0  3.364185  0
N  N82  1  0.16325885  0.14188822  0.41601405  1  0  -0.588296  -0.654904  0  3.364248  0
N  N83  1  0.33674056  0.85811102  0.91601375  1  0  -0.588285  -0.654762  0  3.364224  0
N  N84  1  0.16325782  0.35811177  0.91601359  1  0  -0.58825  -0.654747  0  3.364165  0
N  N85  1  0.33674054  0.64188847  0.41601344  1  0  -0.588366  -0.654944  0  3.364296  0
N  N86  1  0.83674093  0.85811190  0.58398674  1  0  -0.588349  -0.654894  0  3.364252  0
N  N87  1  0.66325818  0.14188810  0.08398704  1  0  -0.588249  -0.654708  0  3.364174  0
