# generated using pymatgen
data_Al2H12C21(O5F)2
_symmetry_space_group_name_H-M   'P 1'
_cell_length_a   6.80334203
_cell_length_b   11.18174903
_cell_length_c   11.01350427
_cell_angle_alpha   81.07966398
_cell_angle_beta   73.91980261
_cell_angle_gamma   71.23396963
_symmetry_Int_Tables_number   1
_chemical_formula_structural   Al2H12C21(O5F)2
_chemical_formula_sum   'Al2 H12 C21 O10 F2'
_cell_volume   760.25084765
_cell_formula_units_Z   1
loop_
 _symmetry_equiv_pos_site_id
 _symmetry_equiv_pos_as_xyz
  1  'x, y, z'
loop_
 _atom_site_type_symbol
 _atom_site_label
 _atom_site_symmetry_multiplicity
 _atom_site_fract_x
 _atom_site_fract_y
 _atom_site_fract_z
 _atom_site_occupancy
 _atom_site_pbe_bader_charge
 _atom_site_pbe_bader_spin_density
 _atom_site_pbe_cm5_charge
 _atom_site_pbe_ddec_charge
 _atom_site_pbe_ddec_spin_density
 _atom_site_pbe_ddec_sum_bond_order
 _atom_site_pbe_magmom
Al  Al0  1  0.49279930  0.50186156  0.50423896  1  2.505067  0  0.402438  1.64051  0  2.561642  0
Al  Al1  1  0.99434790  0.50176360  0.49889954  1  2.506512  0  0.404028  1.631041  0  2.566268  0
H  H2  1  0.28369729  0.35175259  0.58445687  1  0.633899  0  0.347693  0.427901  0  0.860068  0
H  H3  1  0.69637339  0.65553870  0.43146989  1  0.589281  0  0.338889  0.413594  0  0.887568  0
H  H4  1  0.13227095  0.48914779  0.10097302  1  0.093631  0  0.104455  0.10378  0  1.028443  0
H  H5  1  0.73192182  0.50397303  0.14108036  1  0.087441  0  0.10972  0.120487  0  0.999952  0
H  H6  1  0.28691985  0.48668060  0.86389835  1  0.108839  0  0.107915  0.111402  0  1.075197  0
H  H7  1  0.23050771  0.23960180  0.31686196  1  0.103241  0  0.107083  0.115326  0  1.027065  0
H  H8  1  0.57457382  0.12339324  0.18382201  1  0.059395  0  0.106411  0.104533  0  0.986874  0
H  H9  1  0.44610033  0.76886400  0.32722470  1  0.053633  0  0.107653  0.109162  0  1.035313  0
H  H10  1  0.68250869  0.88689539  0.18881643  1  0.060826  0  0.106712  0.105279  0  0.982784  0
H  H11  1  0.96724859  0.58065402  0.93367226  1  0.041536  0  0.098441  0.138579  0  0.990704  0
H  H12  1  0.00936168  0.49491506  0.80099386  1  0.106571  0  0.103235  0.158887  0  1.03488  0
H  H13  1  0.04477867  0.41316637  0.94938139  1  0.03009  0  0.097487  0.136048  0  0.994218  0
C  C14  1  0.86161450  0.27801125  0.48505407  1  1.614097  0  0.278045  0.679999  0  4.068974  0
C  C15  1  0.65446304  0.49599075  0.72903573  1  1.588285  0  0.274629  0.656083  0  4.06012  0
C  C16  1  0.13059312  0.72634592  0.50644231  1  1.55912  0  0.277159  0.676286  0  4.072308  0
C  C17  1  0.34092454  0.50416556  0.27491001  1  1.543672  0  0.267184  0.639466  0  4.087978  0
C  C18  1  0.58847682  0.49519509  0.87084094  1  -0.081661  0  -0.011138  -0.101002  0  3.908819  0
C  C19  1  0.42379226  0.49833282  0.13500052  1  -0.10649  0  -0.014788  -0.032921  0  4.005635  0
C  C20  1  0.71984497  0.49846265  0.94842005  1  -0.001354  0  0.006984  0.180563  0  3.943244  0
C  C21  1  0.29558539  0.49180341  0.05774154  1  -0.024401  0  -0.089032  -0.112125  0  4.001098  0
C  C22  1  0.63325322  0.50059887  0.07945427  1  0.0432  0  -0.082883  -0.1583  0  3.919349  0
C  C23  1  0.37946839  0.49062199  0.92783267  1  0.005619  0  -0.087524  -0.100782  0  4.01326  0
C  C24  1  0.93626589  0.13706507  0.48141909  1  0.049419  0  -0.014975  -0.182727  0  3.959043  0
C  C25  1  0.13977607  0.07123843  0.40526467  1  0.020793  0  0.001237  0.071791  0  3.95805  0
C  C26  1  0.80455752  0.06851932  0.55607260  1  0.533503  0  0.10157  0.166904  0  4.08115  0
C  C27  1  0.27791605  0.13664557  0.32163864  1  -0.039707  0  -0.089446  -0.128066  0  3.957271  0
C  C28  1  0.47066268  0.07131089  0.24695206  1  -0.056883  0  -0.089495  -0.078576  0  4.034881  0
C  C29  1  0.06523658  0.86798462  0.49275209  1  0.119858  0  -0.013388  -0.177896  0  3.963013  0
C  C30  1  0.86897590  0.93509820  0.56221396  1  0.456501  0  0.101227  0.164927  0  4.090113  0
C  C31  1  0.20391535  0.93515503  0.41007418  1  0.003755  0  0.001132  0.072508  0  3.963235  0
C  C32  1  0.40080138  0.87139523  0.32895406  1  -0.008255  0  -0.093002  -0.13848  0  3.976558  0
C  C33  1  0.53195177  0.93791603  0.25003724  1  0.013982  0  -0.089499  -0.07938  0  4.042822  0
C  C34  1  0.94829373  0.49684928  0.90329511  1  -0.073773  0  -0.246398  -0.439636  0  3.975017  0
O  O35  1  0.67300944  0.33350057  0.47215223  1  -1.254338  0  -0.228963  -0.585655  0  2.335444  0
O  O36  1  0.83436175  0.51324620  0.67136340  1  -1.26629  0  -0.232271  -0.584155  0  2.385353  0
O  O37  1  0.00144873  0.67313770  0.49016608  1  -1.246244  0  -0.224741  -0.582145  0  2.335111  0
O  O38  1  0.46099060  0.52685297  0.33365964  1  -1.270146  0  -0.238864  -0.605409  0  2.387308  0
O  O39  1  0.31135568  0.67149737  0.53164219  1  -1.248969  0  -0.228334  -0.5791  0  2.321669  0
O  O40  1  0.15697944  0.48827823  0.32489747  1  -1.257147  0  -0.236014  -0.589387  0  2.330385  0
O  O41  1  0.99104912  0.33023457  0.50296014  1  -1.258192  0  -0.225554  -0.584599  0  2.337542  0
O  O42  1  0.52307275  0.47856531  0.67479521  1  -1.266388  0  -0.238216  -0.602675  0  2.34936  0
O  O43  1  0.25047570  0.44091196  0.55567300  1  -1.436433  0  -0.448277  -0.980918  0  2.139348  0
O  O44  1  0.73483585  0.56393909  0.44663976  1  -1.398608  0  -0.451516  -0.982175  0  2.144213  0
F  F45  1  0.73442893  0.87577256  0.64321475  1  -0.617501  0  -0.088753  -0.107202  0  1.355609  0
F  F46  1  0.61266955  0.12563763  0.63195474  1  -0.618985  0  -0.088256  -0.111743  0  1.36162  0
