# generated using pymatgen
data_AgH8C5N3
_symmetry_space_group_name_H-M   'P 1'
_cell_length_a   11.94612703
_cell_length_b   12.02611185
_cell_length_c   12.52325350
_cell_angle_alpha   107.88366089
_cell_angle_beta   107.64940991
_cell_angle_gamma   111.26860867
_symmetry_Int_Tables_number   1
_chemical_formula_structural   AgH8C5N3
_chemical_formula_sum   'Ag8 H64 C40 N24'
_cell_volume   1410.52927800
_cell_formula_units_Z   8
loop_
 _symmetry_equiv_pos_site_id
 _symmetry_equiv_pos_as_xyz
  1  'x, y, z'
loop_
 _atom_site_type_symbol
 _atom_site_label
 _atom_site_symmetry_multiplicity
 _atom_site_fract_x
 _atom_site_fract_y
 _atom_site_fract_z
 _atom_site_occupancy
 _atom_site_hle17_bader_spin_density
 _atom_site_hle17_ddec_charge
 _atom_site_hle17_ddec_spin_density
 _atom_site_hle17_ddec_sum_bond_order
 _atom_site_hle17_magmom
 _atom_site_hse06_10hf_bader_spin_density
 _atom_site_hse06_10hf_ddec_charge
 _atom_site_hse06_10hf_ddec_spin_density
 _atom_site_hse06_10hf_ddec_sum_bond_order
 _atom_site_hse06_10hf_magmom
 _atom_site_hse06_bader_spin_density
 _atom_site_hse06_ddec_charge
 _atom_site_hse06_ddec_spin_density
 _atom_site_hse06_ddec_sum_bond_order
 _atom_site_hse06_magmom
 _atom_site_pbe_bader_spin_density
 _atom_site_pbe_cm5_charge
 _atom_site_pbe_ddec_charge
 _atom_site_pbe_ddec_spin_density
 _atom_site_pbe_ddec_sum_bond_order
 _atom_site_pbe_magmom
Ag  Ag0  1  0.81401303  0.62192814  0.39734266  1  0  0.437386  0  1.62144  0  0  0.284042  0  2.112908  0  0  0.312817  0  2.064756  0  0  0.462127  0.264459  0  2.14596  0
Ag  Ag1  1  0.08342598  0.77550228  0.39735627  1  0  0.437564  0  1.621804  0  0  0.284516  0  2.113121  0  0  0.313248  0  2.065001  0  0  0.462218  0.264893  0  2.146266  0
Ag  Ag2  1  0.18598710  0.37807277  0.60265798  1  0  0.437403  0  1.621428  0  0  0.284067  0  2.112885  0  0  0.312837  0  2.06474  0  0  0.462143  0.264488  0  2.145929  0
Ag  Ag3  1  0.91657364  0.22449762  0.60264312  1  0  0.437582  0  1.621823  0  0  0.28453  0  2.113146  0  0  0.313262  0  2.065028  0  0  0.462213  0.264909  0  2.146292  0
Ag  Ag4  1  0.86086185  0.40385821  0.11369638  1  0  0.453741  0  1.562019  0  0  0.297053  0  2.015614  0  0  0.323941  0  1.975413  0  0  0.463553  0.278721  0  2.043113  0
Ag  Ag5  1  0.75301826  0.71003409  0.11375272  1  0  0.453145  0  1.562545  0  0  0.29638  0  2.016491  0  0  0.323244  0  1.976244  0  0  0.463434  0.278058  0  2.044031  0
Ag  Ag6  1  0.13913727  0.59614067  0.88630337  1  0  0.45372  0  1.562035  0  0  0.297024  0  2.015641  0  0  0.323914  0  1.975438  0  0  0.463538  0.27869  0  2.04314  0
Ag  Ag7  1  0.24698086  0.28996480  0.88624543  1  0  0.453141  0  1.562515  0  0  0.29636  0  2.016475  0  0  0.323228  0  1.976225  0  0  0.463418  0.278038  0  2.044014  0
H  H8  1  0.52600107  0.25006448  0.89549166  1  0  0.076892  0  0.95003  0  0  0.092932  0  1.009297  0  0  0.094117  0  1.007977  0  0  0.126345  0.091961  0  1.01035  0
H  H9  1  0.86943358  0.64557374  0.89568714  1  0  0.076674  0  0.949922  0  0  0.092617  0  1.009516  0  0  0.093736  0  1.008258  0  0  0.126533  0.09172  0  1.010498  0
H  H10  1  0.47399856  0.74993541  0.10450853  1  0  0.076886  0  0.950026  0  0  0.092918  0  1.009302  0  0  0.094108  0  1.007976  0  0  0.126334  0.091946  0  1.010354  0
H  H11  1  0.13056693  0.35442616  0.10431330  1  0  0.076677  0  0.949885  0  0  0.092616  0  1.009486  0  0  0.093736  0  1.008227  0  0  0.126522  0.09172  0  1.010469  0
H  H12  1  0.38799600  0.51035123  0.14581078  1  0  0.079139  0  0.949177  0  0  0.092412  0  1.022153  0  0  0.094086  0  1.020633  0  0  0.089642  0.091096  0  1.02336  0
H  H13  1  0.25789339  0.63535224  0.14588309  1  0  0.079448  0  0.94943  0  0  0.092444  0  1.022507  0  0  0.094111  0  1.020993  0  0  0.089827  0.091135  0  1.023718  0
H  H14  1  0.61200501  0.48964968  0.85419011  1  0  0.079138  0  0.949167  0  0  0.092423  0  1.022142  0  0  0.094097  0  1.02062  0  0  0.089639  0.091105  0  1.023363  0
H  H15  1  0.74210711  0.36464766  0.85411656  1  0  0.079466  0  0.949426  0  0  0.092456  0  1.022496  0  0  0.094124  0  1.020982  0  0  0.089833  0.091148  0  1.023707  0
H  H16  1  0.55363951  0.61864596  0.27653515  1  0  0.091553  0  0.954265  0  0  0.103896  0  1.021399  0  0  0.105503  0  1.021016  0  0  0.094764  0.102704  0  1.021773  0
H  H17  1  0.22317725  0.65801506  0.27667857  1  0  0.091545  0  0.954843  0  0  0.104269  0  1.021412  0  0  0.105866  0  1.021031  0  0  0.094903  0.103084  0  1.021781  0
H  H18  1  0.44636151  0.38135495  0.72346574  1  0  0.09154  0  0.954293  0  0  0.103904  0  1.02142  0  0  0.10551  0  1.021037  0  0  0.094768  0.102717  0  1.021798  0
H  H19  1  0.77682237  0.34198484  0.72332082  1  0  0.091535  0  0.954867  0  0  0.104254  0  1.021434  0  0  0.105851  0  1.021054  0  0  0.094894  0.10307  0  1.021801  0
H  H20  1  0.35093240  0.33640644  0.22051988  1  0  0.051615  0  0.946036  0  0  0.07351  0  1.004521  0  0  0.073788  0  1.005473  0  0  0.085281  0.073217  0  1.003946  0
H  H21  1  0.36977884  0.88398613  0.22035405  1  0  0.051866  0  0.944911  0  0  0.073465  0  1.003892  0  0  0.073712  0  1.004907  0  0  0.085412  0.073182  0  1.003314  0
H  H22  1  0.64906773  0.66359447  0.77947996  1  0  0.051609  0  0.946042  0  0  0.073507  0  1.004528  0  0  0.073785  0  1.005482  0  0  0.085277  0.073214  0  1.003952  0
H  H23  1  0.63022167  0.11601377  0.77964640  1  0  0.051871  0  0.944931  0  0  0.073475  0  1.003901  0  0  0.073723  0  1.004915  0  0  0.085403  0.073192  0  1.003323  0
H  H24  1  0.51923415  0.43663729  0.34452882  1  0  0.049337  0  0.960664  0  0  0.066783  0  1.029737  0  0  0.067945  0  1.029101  0  0  0.082926  0.065827  0  1.030387  0
H  H25  1  0.32544494  0.90798615  0.34427030  1  0  0.049448  0  0.960476  0  0  0.06659  0  1.030051  0  0  0.067809  0  1.029334  0  0  0.083037  0.065635  0  1.030683  0
H  H26  1  0.48076547  0.56336261  0.65547137  1  0  0.049332  0  0.960669  0  0  0.06678  0  1.029737  0  0  0.067945  0  1.029099  0  0  0.082924  0.065826  0  1.030387  0
H  H27  1  0.67455557  0.09201375  0.65573014  1  0  0.049429  0  0.960488  0  0  0.066569  0  1.030066  0  0  0.067792  0  1.029343  0  0  0.083031  0.065614  0  1.030698  0
H  H28  1  0.35600887  0.45949079  0.42538608  1  0  0.089422  0  0.970925  0  0  0.108077  0  1.040192  0  0  0.109263  0  1.040501  0  0  0.081692  0.107154  0  1.040061  0
H  H29  1  0.56964105  0.96613582  0.42557226  1  0  0.089646  0  0.970909  0  0  0.108327  0  1.040337  0  0  0.109492  0  1.040673  0  0  0.081848  0.107415  0  1.040204  0
H  H30  1  0.64399164  0.54050911  0.57461437  1  0  0.089436  0  0.970917  0  0  0.108094  0  1.040177  0  0  0.109278  0  1.040486  0  0  0.081702  0.107169  0  1.040047  0
H  H31  1  0.43035894  0.03386307  0.57442773  1  0  0.089634  0  0.970883  0  0  0.108312  0  1.040319  0  0  0.109477  0  1.040656  0  0  0.08186  0.1074  0  1.040186  0
H  H32  1  0.30083634  0.52059868  0.32014647  1  0  0.091163  0  0.967368  0  0  0.112305  0  1.029909  0  0  0.113037  0  1.031519  0  0  0.081834  0.111706  0  1.028871  0
H  H33  1  0.51963132  0.79975390  0.32044725  1  0  0.091395  0  0.967137  0  0  0.112572  0  1.029671  0  0  0.113308  0  1.031266  0  0  0.08189  0.111985  0  1.028623  0
H  H34  1  0.69916417  0.47940122  0.67985397  1  0  0.09115  0  0.967376  0  0  0.112292  0  1.029914  0  0  0.113022  0  1.031526  0  0  0.081828  0.111693  0  1.028875  0
H  H35  1  0.48036918  0.20024600  0.67955239  1  0  0.091394  0  0.967148  0  0  0.112576  0  1.029677  0  0  0.113314  0  1.031271  0  0  0.081898  0.11199  0  1.028631  0
H  H36  1  0.47018573  0.61679753  0.44436974  1  0  0.088188  0  0.957814  0  0  0.111124  0  1.019163  0  0  0.112283  0  1.019576  0  0  0.084011  0.110248  0  1.018908  0
H  H37  1  0.47432130  0.82777549  0.44447175  1  0  0.088057  0  0.957579  0  0  0.110996  0  1.018987  0  0  0.112148  0  1.019409  0  0  0.083973  0.110112  0  1.018746  0
H  H38  1  0.52981478  0.38320237  0.55563150  1  0  0.088185  0  0.957824  0  0  0.111121  0  1.019176  0  0  0.11228  0  1.019587  0  0  0.084005  0.110244  0  1.018921  0
H  H39  1  0.52567958  0.17222340  0.55552691  1  0  0.088042  0  0.957543  0  0  0.11098  0  1.018966  0  0  0.112127  0  1.019394  0  0  0.083967  0.110095  0  1.018726  0
H  H40  1  0.77369484  0.00216179  0.29778194  1  0  0.070353  0  0.943328  0  0  0.088525  0  0.998099  0  0  0.090083  0  0.99577  0  0  0.125736  0.087222  0  0.999981  0
H  H41  1  0.02452861  0.29591759  0.29768554  1  0  0.069302  0  0.944157  0  0  0.087693  0  0.998939  0  0  0.089247  0  0.996589  0  0  0.125515  0.086446  0  1.000766  0
H  H42  1  0.22630603  0.99783711  0.70221592  1  0  0.070364  0  0.94331  0  0  0.088548  0  0.998065  0  0  0.090134  0  0.995705  0  0  0.12574  0.087245  0  0.999947  0
H  H43  1  0.97547292  0.70408433  0.70231579  1  0  0.069287  0  0.944119  0  0  0.087658  0  0.998927  0  0  0.089211  0  0.996576  0  0  0.125497  0.086411  0  1.000754  0
H  H44  1  0.95554659  0.87666059  0.65502294  1  0  0.069186  0  0.950457  0  0  0.083057  0  1.021767  0  0  0.084485  0  1.019996  0  0  0.088838  0.081958  0  1.023102  0
H  H45  1  0.19930845  0.77821958  0.65542903  1  0  0.06882  0  0.950261  0  0  0.083184  0  1.021226  0  0  0.084683  0  1.019382  0  0  0.089  0.082065  0  1.022586  0
H  H46  1  0.04445266  0.12334032  0.34497665  1  0  0.069164  0  0.950498  0  0  0.083028  0  1.021812  0  0  0.084456  0  1.02004  0  0  0.088823  0.081929  0  1.023147  0
H  H47  1  0.80069118  0.22178032  0.34457037  1  0  0.068803  0  0.950275  0  0  0.083202  0  1.021218  0  0  0.084699  0  1.019374  0  0  0.089004  0.082082  0  1.022578  0
H  H48  1  0.98044867  0.04249805  0.71411280  1  0  0.087916  0  0.959254  0  0  0.097004  0  1.036464  0  0  0.099363  0  1.03428  0  0  0.091221  0.095248  0  1.038129  0
H  H49  1  0.23331970  0.67128575  0.71432866  1  0  0.088331  0  0.957986  0  0  0.097483  0  1.035095  0  0  0.09985  0  1.032917  0  0  0.091316  0.095727  0  1.036777  0
H  H50  1  0.01954919  0.95750185  0.28588608  1  0  0.08794  0  0.959233  0  0  0.097001  0  1.036462  0  0  0.099361  0  1.034279  0  0  0.091215  0.095246  0  1.038127  0
H  H51  1  0.76667992  0.32871415  0.28567073  1  0  0.088365  0  0.957995  0  0  0.097532  0  1.035101  0  0  0.0999  0  1.032922  0  0  0.091335  0.095776  0  1.036783  0
H  H52  1  0.73156904  0.94136276  0.66453571  1  0  0.059549  0  0.94413  0  0  0.079101  0  1.003578  0  0  0.079613  0  1.004543  0  0  0.08754  0.07861  0  1.00305  0
H  H53  1  0.43276661  0.72293389  0.66506043  1  0  0.059639  0  0.943721  0  0  0.079514  0  1.00284  0  0  0.08004  0  1.003799  0  0  0.087642  0.079057  0  1.002272  0
H  H54  1  0.26842971  0.05863713  0.33546343  1  0  0.059535  0  0.94413  0  0  0.079072  0  1.003595  0  0  0.079611  0  1.004529  0  0  0.087528  0.078582  0  1.003064  0
H  H55  1  0.56723528  0.27706702  0.33494151  1  0  0.059636  0  0.943717  0  0  0.079505  0  1.002846  0  0  0.080031  0  1.003806  0  0  0.087654  0.079048  0  1.002278  0
H  H56  1  0.71901688  0.78157578  0.62281539  1  0  0.051368  0  0.940679  0  0  0.071381  0  1.001722  0  0  0.07198  0  1.002128  0  0  0.084481  0.07084  0  1.001579  0
H  H57  1  0.40357311  0.84090322  0.62318934  1  0  0.051855  0  0.939937  0  0  0.071717  0  1.001201  0  0  0.072315  0  1.00162  0  0  0.08446  0.071182  0  1.001047  0
H  H58  1  0.28098136  0.21842310  0.37718410  1  0  0.051328  0  0.940713  0  0  0.071356  0  1.001736  0  0  0.071956  0  1.002146  0  0  0.084457  0.070815  0  1.001596  0
H  H59  1  0.59642791  0.15909769  0.37681234  1  0  0.051827  0  0.939958  0  0  0.071706  0  1.001203  0  0  0.072305  0  1.001619  0  0  0.084442  0.071169  0  1.001052  0
H  H60  1  0.76438376  0.89374320  0.85004630  1  0  0.088246  0  0.964625  0  0  0.108519  0  1.028125  0  0  0.110029  0  1.027629  0  0  0.083802  0.107405  0  1.028521  0
H  H61  1  0.58569016  0.95627502  0.85026341  1  0  0.088395  0  0.964943  0  0  0.108686  0  1.028197  0  0  0.110159  0  1.027729  0  0  0.083959  0.107576  0  1.0286  0
H  H62  1  0.23561587  0.10625670  0.14995389  1  0  0.088259  0  0.964623  0  0  0.108533  0  1.028121  0  0  0.110043  0  1.027625  0  0  0.083805  0.107419  0  1.028517  0
H  H63  1  0.41430998  0.04372589  0.14973882  1  0  0.08839  0  0.964952  0  0  0.108686  0  1.0282  0  0  0.110157  0  1.027734  0  0  0.083967  0.107576  0  1.028602  0
H  H64  1  0.90378203  0.87437781  0.84624923  1  0  0.082378  0  0.955301  0  0  0.105102  0  1.015222  0  0  0.105841  0  1.015943  0  0  0.080818  0.104519  0  1.014753  0
H  H65  1  0.44258135  0.97193932  0.84651477  1  0  0.082279  0  0.955963  0  0  0.104797  0  1.016055  0  0  0.10555  0  1.016761  0  0  0.08065  0.104218  0  1.015577  0
H  H66  1  0.09621709  0.12562108  0.15374891  1  0  0.082389  0  0.955279  0  0  0.105113  0  1.015203  0  0  0.105851  0  1.015926  0  0  0.080817  0.10453  0  1.014737  0
H  H67  1  0.55741790  0.02806158  0.15348641  1  0  0.082238  0  0.956015  0  0  0.104745  0  1.016125  0  0  0.105498  0  1.016831  0  0  0.080619  0.104166  0  1.015647  0
H  H68  1  0.91536871  0.03442399  0.88522495  1  0  0.097157  0  0.960059  0  0  0.117622  0  1.02078  0  0  0.118554  0  1.022182  0  0  0.083485  0.116904  0  1.019858  0
H  H69  1  0.47012915  0.85109508  0.88585579  1  0  0.09718  0  0.960173  0  0  0.117483  0  1.020918  0  0  0.118418  0  1.022301  0  0  0.083451  0.116764  0  1.020001  0
H  H70  1  0.08463041  0.96557490  0.11477399  1  0  0.097183  0  0.960083  0  0  0.117647  0  1.020798  0  0  0.118579  0  1.0222  0  0  0.083499  0.116929  0  1.019875  0
H  H71  1  0.52987062  0.14890683  0.11414584  1  0  0.097172  0  0.960186  0  0  0.11748  0  1.020924  0  0  0.118415  0  1.022307  0  0  0.083454  0.11676  0  1.020007  0
C  C72  1  0.53023054  0.44755631  0.13618631  1  0  0.339294  0  3.760443  0  0  0.323864  0  4.014945  0  0  0.336305  0  4.033827  0  0  0.199778  0.315593  0  4.001958  0
C  C73  1  0.10603584  0.68855777  0.13623272  1  0  0.342137  0  3.755094  0  0  0.325245  0  4.011489  0  0  0.337636  0  4.030424  0  0  0.200541  0.317  0  3.99846  0
C  C74  1  0.46977047  0.55244461  0.86381458  1  0  0.33926  0  3.760327  0  0  0.323807  0  4.014896  0  0  0.336248  0  4.033776  0  0  0.199759  0.315544  0  4.00191  0
C  C75  1  0.89396480  0.31144415  0.86376756  1  0  0.342151  0  3.755158  0  0  0.325214  0  4.011605  0  0  0.337595  0  4.030556  0  0  0.200537  0.316969  0  3.998577  0
C  C76  1  0.54811457  0.32200449  0.98728346  1  0  0.169872  0  3.792629  0  0  0.11811  0  4.05907  0  0  0.129994  0  4.075814  0  0  0.120655  0.110348  0  4.047538  0
C  C77  1  0.93916795  0.66538499  0.98745736  1  0  0.170031  0  3.794044  0  0  0.118357  0  4.060088  0  0  0.130275  0  4.076824  0  0  0.12027  0.110535  0  4.048566  0
C  C78  1  0.45188506  0.67799540  0.01271673  1  0  0.169874  0  3.792609  0  0  0.118119  0  4.059046  0  0  0.129999  0  4.07579  0  0  0.120641  0.110356  0  4.047513  0
C  C79  1  0.06083205  0.33461390  0.01254184  1  0  0.170061  0  3.794014  0  0  0.118386  0  4.060046  0  0  0.130303  0  4.07678  0  0  0.120317  0.110562  0  4.048528  0
C  C80  1  0.47520472  0.51209413  0.21118472  1  0  -0.209019  0  3.719168  0  0  -0.248928  0  3.96709  0  0  -0.251516  0  3.978411  0  0  -0.16202  -0.246919  0  3.959141  0
C  C81  1  0.23613108  0.69904776  0.21120981  1  0  -0.209843  0  3.717847  0  0  -0.24894  0  3.965791  0  0  -0.251338  0  3.9767  0  0  -0.162108  -0.24708  0  3.958142  0
C  C82  1  0.52479542  0.48790677  0.78881592  1  0  -0.209015  0  3.719138  0  0  -0.248961  0  3.967109  0  0  -0.251553  0  3.978446  0  0  -0.162031  -0.246975  0  3.959192  0
C  C83  1  0.76386855  0.30095213  0.78878958  1  0  -0.209873  0  3.7179  0  0  -0.248936  0  3.965822  0  0  -0.251333  0  3.976734  0  0  -0.16212  -0.247077  0  3.958173  0
C  C84  1  0.43254002  0.44170118  0.28721649  1  0  -0.049604  0  3.707282  0  0  -0.084061  0  3.962484  0  0  -0.084912  0  3.978161  0  0  -0.166735  -0.083238  0  3.951484  0
C  C85  1  0.35487083  0.84555094  0.28712978  1  0  -0.04967  0  3.705815  0  0  -0.084012  0  3.961219  0  0  -0.084895  0  3.976853  0  0  -0.167288  -0.083185  0  3.950243  0
C  C86  1  0.56745961  0.55829871  0.71278370  1  0  -0.049614  0  3.707275  0  0  -0.084074  0  3.962504  0  0  -0.084925  0  3.978176  0  0  -0.166744  -0.083244  0  3.95151  0
C  C87  1  0.64512829  0.15444795  0.71286996  1  0  -0.049675  0  3.705848  0  0  -0.084015  0  3.961227  0  0  -0.084899  0  3.976859  0  0  -0.167278  -0.083187  0  3.950252  0
C  C88  1  0.38740383  0.51327185  0.37373147  1  0  -0.283598  0  3.706439  0  0  -0.354704  0  3.947102  0  0  -0.357888  0  3.960271  0  0  -0.249208  -0.352197  0  3.937932  0
C  C89  1  0.48657825  0.86066984  0.37388299  1  0  -0.284208  0  3.706905  0  0  -0.355273  0  3.947541  0  0  -0.358498  0  3.960819  0  0  -0.249179  -0.352744  0  3.938302  0
C  C90  1  0.61259668  0.48672805  0.62626897  1  0  -0.283578  0  3.70643  0  0  -0.35468  0  3.947086  0  0  -0.357862  0  3.960254  0  0  -0.249195  -0.352171  0  3.937916  0
C  C91  1  0.51342175  0.13932905  0.62611621  1  0  -0.284161  0  3.706824  0  0  -0.355244  0  3.947491  0  0  -0.358468  0  3.960774  0  0  -0.24919  -0.352717  0  3.938254  0
C  C92  1  0.85662601  0.91988652  0.51604641  1  0  0.348546  0  3.729372  0  0  0.330682  0  3.984119  0  0  0.343714  0  4.003903  0  0  0.207611  0.322031  0  3.970447  0
C  C93  1  0.15928925  0.59615802  0.51626737  1  0  0.346676  0  3.730969  0  0  0.329608  0  3.984725  0  0  0.342539  0  4.004703  0  0  0.207202  0.320969  0  3.971033  0
C  C94  1  0.14337639  0.08011541  0.48395278  1  0  0.34855  0  3.729295  0  0  0.330613  0  3.984124  0  0  0.343644  0  4.00391  0  0  0.207608  0.321963  0  3.970452  0
C  C95  1  0.84071176  0.40384289  0.48373272  1  0  0.346723  0  3.731052  0  0  0.32967  0  3.984806  0  0  0.342602  0  4.004785  0  0  0.207224  0.321026  0  3.971122  0
C  C96  1  0.79597531  0.95500504  0.35642375  1  0  0.16785  0  3.807953  0  0  0.118952  0  4.071778  0  0  0.129782  0  4.089392  0  0  0.121911  0.111901  0  4.059673  0
C  C97  1  0.06078402  0.40164124  0.35642577  1  0  0.169886  0  3.808443  0  0  0.120656  0  4.072475  0  0  0.131509  0  4.090092  0  0  0.122619  0.11355  0  4.06036  0
C  C98  1  0.20402469  0.04499385  0.64357465  1  0  0.167819  0  3.807967  0  0  0.11892  0  4.071779  0  0  0.129728  0  4.08939  0  0  0.121909  0.111868  0  4.059674  0
C  C99  1  0.93921612  0.59835967  0.64357407  1  0  0.169986  0  3.808261  0  0  0.120774  0  4.072283  0  0  0.13163  0  4.089897  0  0  0.12267  0.113669  0  4.060165  0
C  C100  1  0.90412250  0.93566324  0.64703680  1  0  -0.20388  0  3.724394  0  0  -0.242682  0  3.968629  0  0  -0.245634  0  3.981297  0  0  -0.159854  -0.240464  0  3.959781  0
C  C101  1  0.24267477  0.71118620  0.64738931  1  0  -0.202669  0  3.722718  0  0  -0.242683  0  3.968367  0  0  -0.245649  0  3.981053  0  0  -0.160024  -0.240491  0  3.959605  0
C  C102  1  0.09587486  0.06433565  0.35296084  1  0  -0.203887  0  3.724415  0  0  -0.242633  0  3.968651  0  0  -0.245586  0  3.981327  0  0  -0.159824  -0.240417  0  3.959806  0
C  C103  1  0.75732712  0.28881472  0.35261104  1  0  -0.202702  0  3.722717  0  0  -0.242791  0  3.968439  0  0  -0.245758  0  3.981129  0  0  -0.160053  -0.240597  0  3.95968  0
C  C104  1  0.79008617  0.89096399  0.68404285  1  0  -0.040995  0  3.68412  0  0  -0.073419  0  3.939066  0  0  -0.074232  0  3.954719  0  0  -0.163742  -0.072634  0  3.928111  0
C  C105  1  0.39377904  0.79287019  0.68450184  1  0  -0.042483  0  3.68488  0  0  -0.075016  0  3.940175  0  0  -0.075878  0  3.955874  0  0  -0.16416  -0.074217  0  3.929195  0
C  C106  1  0.20991346  0.10903591  0.31595734  1  0  -0.040928  0  3.684127  0  0  -0.073347  0  3.939047  0  0  -0.074178  0  3.954704  0  0  -0.163709  -0.072563  0  3.928093  0
C  C107  1  0.60622336  0.20713173  0.31550135  1  0  -0.042403  0  3.684846  0  0  -0.074927  0  3.940148  0  0  -0.075788  0  3.955849  0  0  -0.164119  -0.074129  0  3.929168  0
C  C108  1  0.84620028  0.92498055  0.82388216  1  0  -0.28642  0  3.725253  0  0  -0.354585  0  3.962311  0  0  -0.357461  0  3.974565  0  0  -0.246291  -0.352343  0  3.953758  0
C  C109  1  0.47774078  0.89890116  0.82429878  1  0  -0.286423  0  3.726501  0  0  -0.354098  0  3.963252  0  0  -0.356926  0  3.975495  0  0  -0.246272  -0.351886  0  3.954728  0
C  C110  1  0.15379884  0.07501833  0.17611678  1  0  -0.286481  0  3.725276  0  0  -0.354647  0  3.962335  0  0  -0.357524  0  3.974597  0  0  -0.246307  -0.352405  0  3.953782  0
C  C111  1  0.52225848  0.10109974  0.17570240  1  0  -0.286396  0  3.726567  0  0  -0.35407  0  3.963331  0  0  -0.356896  0  3.975576  0  0  -0.246269  -0.351856  0  3.954806  0
N  N112  1  0.65883821  0.47419661  0.18516818  1  0  -0.323009  0  3.1598  0  0  -0.257317  0  3.447383  0  0  -0.272848  0  3.461043  0  0  -0.273764  -0.246894  0  3.43817  0
N  N113  1  0.02651950  0.71098872  0.18528658  1  0  -0.32355  0  3.16027  0  0  -0.257597  0  3.448646  0  0  -0.273128  0  3.462294  0  0  -0.273941  -0.247167  0  3.439433  0
N  N114  1  0.34116193  0.52580430  0.81483246  1  0  -0.322973  0  3.159762  0  0  -0.257264  0  3.447341  0  0  -0.272794  0  3.460999  0  0  -0.273748  -0.246842  0  3.438125  0
N  N115  1  0.97348013  0.28901118  0.81471282  1  0  -0.323571  0  3.160281  0  0  -0.257618  0  3.448681  0  0  -0.273144  0  3.462332  0  0  -0.27394  -0.247187  0  3.439468  0
N  N116  1  0.67041694  0.39314205  0.08921909  1  0  -0.274297  0  3.356081  0  0  -0.200159  0  3.669162  0  0  -0.216055  0  3.684188  0  0  -0.288876  -0.189422  0  3.658785  0
N  N117  1  0.91894396  0.69619872  0.08940791  1  0  -0.275071  0  3.358332  0  0  -0.200876  0  3.671442  0  0  -0.216721  0  3.686363  0  0  -0.289079  -0.190164  0  3.661125  0
N  N118  1  0.32958268  0.60685784  0.91078110  1  0  -0.274333  0  3.356096  0  0  -0.200195  0  3.669178  0  0  -0.216089  0  3.684203  0  0  -0.288886  -0.189456  0  3.658799  0
N  N119  1  0.08105515  0.30380016  0.91059183  1  0  -0.275002  0  3.358296  0  0  -0.200794  0  3.671383  0  0  -0.216641  0  3.686308  0  0  -0.28906  -0.190083  0  3.661066  0
N  N120  1  0.45715753  0.35208040  0.01208563  1  0  -0.444298  0  3.270154  0  0  -0.36282  0  3.565304  0  0  -0.385368  0  3.578184  0  0  -0.379413  -0.347489  0  3.556045  0
N  N121  1  0.05487610  0.65996293  0.01215173  1  0  -0.44525  0  3.268814  0  0  -0.363396  0  3.564406  0  0  -0.385957  0  3.577317  0  0  -0.379872  -0.34805  0  3.555124  0
N  N122  1  0.54284312  0.64792151  0.98791545  1  0  -0.444242  0  3.270054  0  0  -0.362752  0  3.565207  0  0  -0.3853  0  3.578091  0  0  -0.37937  -0.34742  0  3.555943  0
N  N123  1  0.94512440  0.34003697  0.98784871  1  0  -0.445322  0  3.268884  0  0  -0.363448  0  3.56448  0  0  -0.386007  0  3.577395  0  0  -0.379897  -0.348102  0  3.555201  0
N  N124  1  0.81842564  0.80896137  0.41291652  1  0  -0.319436  0  3.265069  0  0  -0.245353  0  3.558354  0  0  -0.26369  0  3.57465  0  0  -0.281167  -0.233008  0  3.547145  0
N  N125  1  0.09455698  0.60411578  0.41316620  1  0  -0.317677  0  3.264587  0  0  -0.243761  0  3.557246  0  0  -0.262086  0  3.573627  0  0  -0.28049  -0.231401  0  3.545977  0
N  N126  1  0.18157348  0.19103751  0.58708243  1  0  -0.319431  0  3.265071  0  0  -0.245327  0  3.558383  0  0  -0.263661  0  3.574678  0  0  -0.28117  -0.232982  0  3.547172  0
N  N127  1  0.90544352  0.39588412  0.58683345  1  0  -0.31772  0  3.264714  0  0  -0.243812  0  3.557379  0  0  -0.262136  0  3.573757  0  0  -0.280492  -0.231453  0  3.546116  0
N  N128  1  0.77922757  0.83149658  0.31020242  1  0  -0.265595  0  3.234298  0  0  -0.203526  0  3.532601  0  0  -0.216903  0  3.548314  0  0  -0.27387  -0.19448  0  3.521815  0
N  N129  1  0.03127944  0.47900029  0.31031416  1  0  -0.267478  0  3.234965  0  0  -0.20558  0  3.533565  0  0  -0.218978  0  3.549268  0  0  -0.274633  -0.196517  0  3.522795  0
N  N130  1  0.22077205  0.16850332  0.68979618  1  0  -0.26558  0  3.234302  0  0  -0.203502  0  3.53259  0  0  -0.216881  0  3.548313  0  0  -0.273854  -0.194456  0  3.521803  0
N  N131  1  0.96872143  0.52099860  0.68968609  1  0  -0.267538  0  3.234952  0  0  -0.205634  0  3.533542  0  0  -0.219034  0  3.549243  0  0  -0.274668  -0.196572  0  3.52277  0
N  N132  1  0.84422224  0.01463124  0.48395407  1  0  -0.439765  0  3.297522  0  0  -0.356221  0  3.596866  0  0  -0.379718  0  3.611015  0  0  -0.38297  -0.340288  0  3.586759  0
N  N133  1  0.13976708  0.46934642  0.48402090  1  0  -0.439239  0  3.295248  0  0  -0.355653  0  3.594176  0  0  -0.379155  0  3.608403  0  0  -0.382795  -0.339706  0  3.58405  0
N  N134  1  0.15577702  0.98536967  0.51604551  1  0  -0.439767  0  3.297487  0  0  -0.356215  0  3.596869  0  0  -0.379711  0  3.611029  0  0  -0.382985  -0.340279  0  3.586758  0
N  N135  1  0.86023431  0.53065348  0.51597901  1  0  -0.439273  0  3.295312  0  0  -0.355682  0  3.594217  0  0  -0.379186  0  3.608448  0  0  -0.382809  -0.339733  0  3.584091  0
