# generated using pymatgen
data_NdH9C7S2O11
_symmetry_space_group_name_H-M   'P 1'
_cell_length_a   6.78338037
_cell_length_b   9.20530128
_cell_length_c   11.36576925
_cell_angle_alpha   113.13494369
_cell_angle_beta   93.93749755
_cell_angle_gamma   104.80593310
_symmetry_Int_Tables_number   1
_chemical_formula_structural   NdH9C7S2O11
_chemical_formula_sum   'Nd2 H18 C14 S4 O22'
_cell_volume   619.45544138
_cell_formula_units_Z   2
loop_
 _symmetry_equiv_pos_site_id
 _symmetry_equiv_pos_as_xyz
  1  'x, y, z'
loop_
 _atom_site_type_symbol
 _atom_site_label
 _atom_site_symmetry_multiplicity
 _atom_site_fract_x
 _atom_site_fract_y
 _atom_site_fract_z
 _atom_site_occupancy
 _atom_site_hle17_bader_spin_density
 _atom_site_hle17_ddec_charge
 _atom_site_hle17_ddec_spin_density
 _atom_site_hle17_ddec_sum_bond_order
 _atom_site_hle17_magmom
 _atom_site_hse06_10hf_bader_spin_density
 _atom_site_hse06_10hf_ddec_charge
 _atom_site_hse06_10hf_ddec_spin_density
 _atom_site_hse06_10hf_ddec_sum_bond_order
 _atom_site_hse06_10hf_magmom
 _atom_site_hse06_bader_spin_density
 _atom_site_hse06_ddec_charge
 _atom_site_hse06_ddec_spin_density
 _atom_site_hse06_ddec_sum_bond_order
 _atom_site_hse06_magmom
 _atom_site_pbe_bader_spin_density
 _atom_site_pbe_cm5_charge
 _atom_site_pbe_ddec_charge
 _atom_site_pbe_ddec_spin_density
 _atom_site_pbe_ddec_sum_bond_order
 _atom_site_pbe_magmom
Nd  Nd0  1  0.66399517  0.17542639  0.77163456  1  0  2.417645  0  1.577552  0  0  2.31523  0  1.951022  0  0  2.352169  0  1.905348  0  0  1.525822  2.288086  0  1.983872  0
Nd  Nd1  1  0.33600465  0.82457354  0.22836525  1  0  2.417652  0  1.577542  0  0  2.315239  0  1.951013  0  0  2.352177  0  1.905339  0  0  1.525823  2.288096  0  1.983866  0
H  H2  1  0.23399549  0.50572840  0.30608879  1  0  0.106938  0  0.986613  0  0  0.110065  0  1.062362  0  0  0.11503  0  1.057124  0  0  0.113454  0.106251  0  1.06646  0
H  H3  1  0.76600434  0.49427153  0.69391190  1  0  0.106938  0  0.986592  0  0  0.110062  0  1.062341  0  0  0.115031  0  1.057101  0  0  0.113452  0.106249  0  1.066442  0
H  H4  1  0.14169514  0.14927215  0.47134769  1  0  0.128839  0  0.914464  0  0  0.138328  0  0.972514  0  0  0.142717  0  0.968618  0  0  0.129252  0.134966  0  0.975624  0
H  H5  1  0.85830172  0.85072776  0.52865201  1  0  0.128833  0  0.914491  0  0  0.138361  0  0.972494  0  0  0.142744  0  0.968605  0  0  0.129244  0.134998  0  0.975606  0
H  H6  1  0.33619997  0.67600260  0.72214324  1  0  0.129633  0  0.946088  0  0  0.132411  0  1.016878  0  0  0.137293  0  1.012205  0  0  0.115754  0.128873  0  1.020242  0
H  H7  1  0.66380329  0.32399859  0.27785798  1  0  0.129636  0  0.94608  0  0  0.132417  0  1.01687  0  0  0.137297  0  1.012196  0  0  0.11575  0.128877  0  1.020238  0
H  H8  1  0.80152007  0.37085265  0.05717928  1  0  0.426277  0  0.879279  0  0  0.394709  0  0.944747  0  0  0.404814  0  0.930087  0  0  0.304063  0.387558  0  0.955111  0
H  H9  1  0.19848022  0.62914852  0.94282095  1  0  0.426266  0  0.879297  0  0  0.394696  0  0.944767  0  0  0.404802  0  0.930106  0  0  0.304055  0.387545  0  0.95513  0
H  H10  1  0.89341814  0.22642338  0.04723536  1  0  0.439646  0  0.855412  0  0  0.408568  0  0.917844  0  0  0.418932  0  0.902779  0  0  0.305831  0.401141  0  0.928668  0
H  H11  1  0.10658168  0.77357655  0.95276445  1  0  0.439653  0  0.855402  0  0  0.408572  0  0.917838  0  0  0.418936  0  0.902772  0  0  0.305834  0.401144  0  0.928664  0
H  H12  1  0.61608593  0.52659857  0.89162808  1  0  0.450351  0  0.840021  0  0  0.418425  0  0.904525  0  0  0.428911  0  0.889039  0  0  0.309414  0.411036  0  0.915411  0
H  H13  1  0.38391583  0.47340260  0.10837132  1  0  0.45037  0  0.839991  0  0  0.418452  0  0.90448  0  0  0.428938  0  0.888994  0  0  0.30942  0.411064  0  0.915364  0
H  H14  1  0.86342275  0.56210047  0.93340999  1  0  0.453353  0  0.834357  0  0  0.426944  0  0.88856  0  0  0.437615  0  0.873073  0  0  0.307054  0.419306  0  0.89965  0
H  H15  1  0.13657707  0.43789946  0.06658982  1  0  0.453242  0  0.834508  0  0  0.426885  0  0.888632  0  0  0.437529  0  0.873182  0  0  0.307041  0.419251  0  0.899718  0
H  H16  1  0.42523638  0.15915812  0.00656329  1  0  0.466371  0  0.81019  0  0  0.440254  0  0.863926  0  0  0.449588  0  0.850187  0  0  0.315614  0.433635  0  0.87368  0
H  H17  1  0.57476344  0.84084181  0.99343653  1  0  0.466369  0  0.810192  0  0  0.440256  0  0.863924  0  0  0.449589  0  0.850185  0  0  0.315615  0.433638  0  0.873677  0
H  H18  1  0.31160453  0.01281136  0.87354712  1  0  0.456151  0  0.83284  0  0  0.425521  0  0.894547  0  0  0.435945  0  0.879224  0  0  0.306885  0.418144  0  0.905402  0
H  H19  1  0.68839576  0.98718981  0.12645310  1  0  0.456161  0  0.832826  0  0  0.425532  0  0.894533  0  0  0.435956  0  0.87921  0  0  0.306884  0.418157  0  0.905386  0
C  C20  1  0.35498358  0.78718319  0.53304992  1  0  0.735275  0  3.851879  0  0  0.688325  0  4.145285  0  0  0.722723  0  4.135448  0  0  0.241289  0.664673  0  4.151838  0
C  C21  1  0.64501773  0.21281675  0.46695083  1  0  0.73527  0  3.85191  0  0  0.688332  0  4.145293  0  0  0.72273  0  4.135454  0  0  0.241298  0.664682  0  4.151847  0
C  C22  1  0.28691556  0.60940473  0.51594871  1  0  -0.067125  0  3.699305  0  0  -0.036482  0  3.927166  0  0  -0.047698  0  3.952178  0  0  -0.006714  -0.029399  0  3.910718  0
C  C23  1  0.71308575  0.39059520  0.48405204  1  0  -0.067106  0  3.699298  0  0  -0.036457  0  3.92715  0  0  -0.047672  0  3.952161  0  0  -0.006702  -0.029376  0  3.910704  0
C  C24  1  0.23196375  0.47899364  0.39132222  1  0  -0.038572  0  3.681358  0  0  -0.07944  0  3.931691  0  0  -0.075005  0  3.9502  0  0  -0.065658  -0.081369  0  3.918897  0
C  C25  1  0.76803608  0.52100629  0.60867847  1  0  -0.038593  0  3.681322  0  0  -0.079456  0  3.931665  0  0  -0.075027  0  3.950179  0  0  -0.065671  -0.081389  0  3.918875  0
C  C26  1  0.18136670  0.31483012  0.37618850  1  0  -0.125916  0  3.721242  0  0  -0.095276  0  3.973597  0  0  -0.105486  0  3.996542  0  0  -0.012373  -0.089074  0  3.958028  0
C  C27  1  0.81863165  0.68516980  0.62381213  1  0  -0.12589  0  3.721211  0  0  -0.095266  0  3.973601  0  0  -0.105475  0  3.996546  0  0  -0.012374  -0.089064  0  3.958028  0
C  C28  1  0.17929408  0.27727929  0.48357668  1  0  -0.030648  0  3.684318  0  0  -0.074074  0  3.938262  0  0  -0.068334  0  3.954255  0  0  -0.062289  -0.076617  0  3.926885  0
C  C29  1  0.82070473  0.72272187  0.51642349  1  0  -0.03067  0  3.684314  0  0  -0.074106  0  3.938265  0  0  -0.068359  0  3.95426  0  0  -0.062275  -0.076648  0  3.926883  0
C  C30  1  0.23279372  0.40942859  0.60772615  1  0  -0.129475  0  3.717675  0  0  -0.098961  0  3.970411  0  0  -0.109238  0  3.992868  0  0  -0.011937  -0.092646  0  3.955544  0
C  C31  1  0.76720415  0.59057008  0.39227320  1  0  -0.129444  0  3.717626  0  0  -0.098979  0  3.970448  0  0  -0.109258  0  3.992904  0  0  -0.011925  -0.092664  0  3.955578  0
C  C32  1  0.28769549  0.57415917  0.62519117  1  0  -0.036868  0  3.675102  0  0  -0.080676  0  3.931376  0  0  -0.075281  0  3.948348  0  0  -0.066238  -0.084322  0  3.920467  0
C  C33  1  0.71230581  0.42584076  0.37480870  1  0  -0.036886  0  3.675092  0  0  -0.080694  0  3.931396  0  0  -0.075298  0  3.948367  0  0  -0.066252  -0.08434  0  3.920488  0
S  S34  1  0.12765694  0.15523983  0.21466269  1  0  1.366177  0  5.574475  0  0  1.260217  0  6.099168  0  0  1.308761  0  6.074449  0  0  0.547937  1.226749  0  6.115364  0
S  S35  1  0.87234289  0.84476010  0.78533800  1  0  1.366231  0  5.574473  0  0  1.260271  0  6.09917  0  0  1.30882  0  6.074449  0  0  0.547958  1.2268  0  6.115366  0
S  S36  1  0.23632675  0.36613969  0.74690714  1  0  1.394844  0  5.550625  0  0  1.296021  0  6.058726  0  0  1.344553  0  6.033672  0  0  0.563965  1.26261  0  6.074845  0
S  S37  1  0.76367307  0.63386023  0.25309267  1  0  1.394857  0  5.55059  0  0  1.296047  0  6.058699  0  0  1.344583  0  6.033641  0  0  0.563977  1.262638  0  6.074815  0
O  O38  1  0.42925783  0.89943424  0.64808520  1  0  -0.733042  0  2.008383  0  0  -0.690149  0  2.265816  0  0  -0.713693  0  2.253295  0  0  -0.398633  -0.673869  0  2.274495  0
O  O39  1  0.57074199  0.10056569  0.35191461  1  0  -0.73305  0  2.008391  0  0  -0.690161  0  2.265826  0  0  -0.713704  0  2.253304  0  0  -0.398634  -0.673882  0  2.274504  0
O  O40  1  0.33609173  0.81389625  0.43228051  1  0  -0.763301  0  2.069874  0  0  -0.721844  0  2.335303  0  0  -0.744647  0  2.320828  0  0  -0.411916  -0.70582  0  2.345413  0
O  O41  1  0.66390957  0.18610368  0.56771936  1  0  -0.763299  0  2.069889  0  0  -0.721849  0  2.335326  0  0  -0.744658  0  2.320858  0  0  -0.411925  -0.705812  0  2.345403  0
O  O42  1  0.91875533  0.14172879  0.15497546  1  0  -0.676751  0  1.990477  0  0  -0.608251  0  2.22406  0  0  -0.631258  0  2.208963  0  0  -0.317842  -0.591924  0  2.234348  0
O  O43  1  0.08124449  0.85827114  0.84502436  1  0  -0.676791  0  1.990525  0  0  -0.608286  0  2.224103  0  0  -0.631296  0  2.209007  0  0  -0.317858  -0.591947  0  2.234384  0
O  O44  1  0.12522677  0.00270956  0.22951641  1  0  -0.771874  0  2.06091  0  0  -0.725492  0  2.339277  0  0  -0.744821  0  2.320774  0  0  -0.410317  -0.71195  0  2.351957  0
O  O45  1  0.87477156  0.99729035  0.77048334  1  0  -0.771882  0  2.060878  0  0  -0.725502  0  2.339248  0  0  -0.744832  0  2.320744  0  0  -0.410323  -0.711962  0  2.35193  0
O  O46  1  0.28946898  0.20900900  0.14958110  1  0  -0.656918  0  1.986138  0  0  -0.602363  0  2.236121  0  0  -0.623522  0  2.221594  0  0  -0.315099  -0.587561  0  2.245711  0
O  O47  1  0.71053085  0.79099093  0.85041959  1  0  -0.656928  0  1.986155  0  0  -0.602375  0  2.23614  0  0  -0.623535  0  2.22161  0  0  -0.315092  -0.587577  0  2.245734  0
O  O48  1  0.33683254  0.23636792  0.72188857  1  0  -0.7447  0  2.034139  0  0  -0.69832  0  2.301335  0  0  -0.718542  0  2.284704  0  0  -0.380709  -0.684458  0  2.312901  0
O  O49  1  0.66316729  0.76363201  0.27811212  1  0  -0.744703  0  2.034113  0  0  -0.698335  0  2.301324  0  0  -0.718559  0  2.284691  0  0  -0.380707  -0.684472  0  2.31289  0
O  O50  1  0.35459153  0.52414240  0.85829573  1  0  -0.677395  0  2.033129  0  0  -0.609154  0  2.265723  0  0  -0.631506  0  2.251491  0  0  -0.308629  -0.593464  0  2.27514  0
O  O51  1  0.64540829  0.47585753  0.14170408  1  0  -0.677408  0  2.033132  0  0  -0.609168  0  2.265722  0  0  -0.631519  0  2.251488  0  0  -0.308634  -0.593478  0  2.275139  0
O  O52  1  0.02039103  0.31211403  0.76032904  1  0  -0.746638  0  2.085061  0  0  -0.697194  0  2.36073  0  0  -0.718775  0  2.344817  0  0  -0.395787  -0.681624  0  2.371223  0
O  O53  1  0.97960880  0.68788590  0.23967165  1  0  -0.746635  0  2.085067  0  0  -0.69718  0  2.360722  0  0  -0.718762  0  2.344808  0  0  -0.395789  -0.681608  0  2.371212  0
O  O54  1  0.88213607  0.30078318  0.00444019  1  0  -0.890091  0  1.892336  0  0  -0.83887  0  2.07329  0  0  -0.858604  0  2.042671  0  0  -0.608945  -0.824827  0  2.094883  0
O  O55  1  0.11786524  0.69921676  0.99555968  1  0  -0.890115  0  1.892341  0  0  -0.838875  0  2.073317  0  0  -0.85862  0  2.042699  0  0  -0.608945  -0.824832  0  2.094912  0
O  O56  1  0.72869573  0.47541701  0.88419786  1  0  -0.941363  0  1.899135  0  0  -0.89776  0  2.101849  0  0  -0.915643  0  2.067923  0  0  -0.657444  -0.884951  0  2.12587  0
O  O57  1  0.27130557  0.52458293  0.11580202  1  0  -0.941286  0  1.899219  0  0  -0.897732  0  2.101878  0  0  -0.915589  0  2.068008  0  0  -0.657445  -0.884922  0  2.125893  0
O  O58  1  0.44297027  0.10557722  0.91602386  1  0  -0.940802  0  1.800584  0  0  -0.900697  0  1.989535  0  0  -0.916976  0  1.95625  0  0  -0.655804  -0.889154  0  2.013041  0
O  O59  1  0.55702955  0.89442270  0.08397595  1  0  -0.940814  0  1.800584  0  0  -0.90071  0  1.989538  0  0  -0.916989  0  1.956252  0  0  -0.655801  -0.889166  0  2.01304  0
