# generated using pymatgen
data_CoH22C28(N5O3)2
_symmetry_space_group_name_H-M   'P 1'
_cell_length_a   7.60783163
_cell_length_b   9.49595386
_cell_length_c   10.86597386
_cell_angle_alpha   107.69776826
_cell_angle_beta   105.04533217
_cell_angle_gamma   100.57282391
_symmetry_Int_Tables_number   1
_chemical_formula_structural   CoH22C28(N5O3)2
_chemical_formula_sum   'Co1 H22 C28 N10 O6'
_cell_volume   692.21350650
_cell_formula_units_Z   1
loop_
 _symmetry_equiv_pos_site_id
 _symmetry_equiv_pos_as_xyz
  1  'x, y, z'
loop_
 _atom_site_type_symbol
 _atom_site_label
 _atom_site_symmetry_multiplicity
 _atom_site_fract_x
 _atom_site_fract_y
 _atom_site_fract_z
 _atom_site_occupancy
 _atom_site_hle17_ddec_charge
 _atom_site_hle17_ddec_spin_density
 _atom_site_hle17_ddec_sum_bond_order
 _atom_site_hle17_magmom
 _atom_site_hse06_10hf_ddec_charge
 _atom_site_hse06_10hf_ddec_spin_density
 _atom_site_hse06_10hf_ddec_sum_bond_order
 _atom_site_hse06_10hf_magmom
 _atom_site_hse06_ddec_charge
 _atom_site_hse06_ddec_spin_density
 _atom_site_hse06_ddec_sum_bond_order
 _atom_site_hse06_magmom
 _atom_site_pbe_cm5_charge
 _atom_site_pbe_ddec_charge
 _atom_site_pbe_ddec_spin_density
 _atom_site_pbe_ddec_sum_bond_order
 _atom_site_pbe_magmom
Co  Co0  1  0.00000302  0.99999962  0.50000075  1  0.73961  -1.136572  2.672695  -1.011  0.738241  -1.034094  3.100784  -0.952  0.786309  -1.031502  3.038335  -0.961  0.743136  0.712243  -1.027729  3.137608  -0.934
H  H1  1  0.49548394  0.25580726  0.35066174  1  0.108829  0.000172  0.968184  0.0  0.117298  -0.000115  1.032083  0.0  0.119819  -7.3e-05  1.031527  0.0  0.108458  0.115325  -0.000163  1.032936  0.0
H  H2  1  0.50451339  0.74419093  0.64933541  1  0.108844  0.000172  0.968197  0.0  0.117317  -0.000115  1.032091  0.0  0.119837  -7.3e-05  1.031537  0.0  0.108468  0.115344  -0.000163  1.032945  0.0
H  H3  1  0.53572047  0.98087877  0.84550470  1  0.083602  -2.7e-05  0.939014  0.0  0.09743  -1.7e-05  1.001153  0.0  0.098547  -1.4e-05  1.00002  0.0  0.111012  0.096687  -2.1e-05  1.001734  0.0
H  H4  1  0.46428545  0.01912064  0.15449345  1  0.083635  -2.7e-05  0.939032  0.0  0.097467  -1.7e-05  1.001151  0.0  0.098586  -1.4e-05  1.000015  0.0  0.111024  0.096726  -2.1e-05  1.001732  0.0
H  H5  1  0.30589352  0.56530278  0.63738654  1  0.107803  0.000331  0.991345  0.0  0.113937  8e-05  1.057798  0.0  0.116208  6.3e-05  1.057646  0.0  0.104871  0.112447  7.9e-05  1.057794  0.0
H  H6  1  0.69411045  0.43469891  0.36261278  1  0.107812  0.000331  0.991277  0.0  0.113931  8e-05  1.057754  0.0  0.116195  6.3e-05  1.057608  0.0  0.104858  0.112441  7.9e-05  1.05775  0.0
H  H7  1  0.67530935  0.32046198  0.87864882  1  0.056768  1e-06  0.947367  0.0  0.069336  1e-06  1.015336  0.0  0.068683  0.0  1.016773  0.0  0.101705  0.070089  -4e-06  1.013703  0.0
H  H8  1  0.32468754  0.67953504  0.12135346  1  0.05676  2e-06  0.947367  0.0  0.069328  1e-06  1.015326  0.0  0.068673  1e-06  1.016767  0.0  0.101715  0.07008  -4e-06  1.013694  0.0
H  H9  1  0.43459076  0.21410266  0.82322959  1  0.050456  0.000225  0.954461  0.0  0.066651  0.000147  1.017121  0.0  0.065857  0.00012  1.018557  0.0  0.096744  0.067238  0.000165  1.016131  0.0
H  H10  1  0.56540614  0.78589436  0.17677085  1  0.050458  0.000225  0.954541  0.0  0.06665  0.000147  1.017188  0.0  0.065857  0.00012  1.018622  0.0  0.096747  0.067236  0.000165  1.016198  0.0
H  H11  1  0.75564856  0.13574633  0.39506228  1  0.395548  0.00085  0.919953  0.001  0.364661  0.000284  0.987244  0.0  0.373908  0.000378  0.973883  0.0  0.285835  0.358446  0.000156  0.996091  0.0
H  H12  1  0.24435226  0.86425418  0.60493890  1  0.395525  0.00085  0.919988  0.001  0.364636  0.000284  0.987281  0.0  0.373885  0.000378  0.973919  0.0  0.285821  0.358421  0.000156  0.996129  0.0
H  H13  1  0.07641603  0.33829464  0.62422650  1  0.092533  0.00017  0.94653  0.0  0.099197  0.000189  1.009081  0.0  0.100013  0.000148  1.008674  0.0  0.120823  0.098593  0.000192  1.009639  0.0
H  H14  1  0.92358831  0.66170820  0.37577503  1  0.092537  0.00017  0.946494  0.0  0.099234  0.000189  1.009022  0.0  0.100049  0.000148  1.008617  0.0  0.120832  0.098629  0.000192  1.009582  0.0
H  H15  1  0.60832866  0.14282399  0.00269947  1  0.063224  -1.7e-05  0.979778  0.0  0.073731  -5e-06  1.050832  0.0  0.073332  -6e-06  1.052321  0.0  0.103146  0.07413  -6e-06  1.049536  0.0
H  H16  1  0.39166805  0.85716843  0.99729879  1  0.063208  -1.7e-05  0.979769  0.0  0.073698  -6e-06  1.050827  0.0  0.073299  -6e-06  1.052317  0.0  0.103105  0.0741  -6e-06  1.049531  0.0
H  H17  1  0.26945685  0.04150679  0.35690139  1  0.095858  0.000213  0.984221  0.0  0.096116  0.000204  1.05628  0.0  0.098366  0.000167  1.053526  0.0  0.120926  0.09432  0.000208  1.058599  0.0
H  H18  1  0.73054320  0.95849142  0.64309627  1  0.095855  0.000213  0.98422  0.0  0.096115  0.000204  1.056265  0.0  0.098365  0.000167  1.053511  0.0  0.120931  0.094319  0.000208  1.058584  0.0
H  H19  1  0.65723686  0.22312722  0.67085355  1  0.386568  -3.7e-05  0.890492  0.0  0.35468  -5.8e-05  0.977313  0.0  0.364616  -2.9e-05  0.965147  0.0  0.299505  0.347719  -8.5e-05  0.985987  0.0
H  H20  1  0.34275886  0.77687439  0.32914882  1  0.386574  -3.7e-05  0.890466  0.0  0.354695  -5.8e-05  0.977276  0.0  0.364636  -2.9e-05  0.965096  0.0  0.299502  0.347733  -8.5e-05  0.985951  0.0
H  H21  1  0.62901004  0.00390277  0.41952134  1  0.406014  0.000541  0.895057  0.001  0.379957  1.8e-05  0.960177  0.0  0.389574  0.000133  0.946529  0.0  0.293028  0.373254  -0.000104  0.969676  0.0
H  H22  1  0.37099077  0.99609773  0.58048076  1  0.406046  0.000541  0.895018  0.001  0.379936  1.8e-05  0.960209  0.0  0.389553  0.000133  0.946562  0.0  0.293029  0.373233  -0.000104  0.969707  0.0
C  C23  1  0.42761702  0.43385583  0.49634313  1  0.101657  0.009358  3.730858  0.006  0.110548  0.004115  3.964505  0.002  0.115741  0.002906  3.984612  0.002  0.016887  0.106842  0.005239  3.951395  0.003
C  C24  1  0.57238479  0.56614355  0.50365518  1  0.101767  0.009356  3.730929  0.006  0.110504  0.004117  3.964711  0.002  0.115695  0.002906  3.984819  0.002  0.016895  0.106796  0.00524  3.951601  0.003
C  C25  1  0.96932921  0.20794163  0.99913085  1  0.31642  0.0098  3.807578  0.007  0.275547  0.003611  4.088238  0.002  0.301265  0.002549  4.095656  0.002  0.123872  0.258607  0.004646  4.08248  0.003
C  C26  1  0.03066560  0.79206115  0.00086614  1  0.316458  0.009818  3.807704  0.007  0.275549  0.00361  4.088384  0.002  0.301268  0.002547  4.0958  0.002  0.123897  0.258607  0.004647  4.08263  0.003
C  C27  1  0.40776264  0.28185672  0.41437403  1  -0.134799  -0.000971  3.669185  -0.002  -0.156062  5.4e-05  3.919523  0.0  -0.163547  -0.000322  3.939129  0.0  -0.076135  -0.151722  0.000317  3.90766  0.0
C  C28  1  0.59223878  0.71814150  0.58562389  1  -0.134823  -0.00097  3.669217  -0.002  -0.156061  5.5e-05  3.919592  0.0  -0.163548  -0.000323  3.939198  0.0  -0.076149  -0.151723  0.000317  3.90773  0.0
C  C29  1  0.27812848  0.15937276  0.41548820  1  0.119032  0.010271  3.658064  0.007  0.088632  0.004399  3.918447  0.003  0.098556  0.003556  3.934583  0.002  0.041976  0.081443  0.00495  3.908963  0.003
C  C30  1  0.72187373  0.84062777  0.58451048  1  0.11908  0.010269  3.658004  0.007  0.088699  0.0044  3.918392  0.003  0.098628  0.003557  3.934522  0.002  0.042009  0.081515  0.00495  3.908892  0.003
C  C31  1  0.17369824  0.32506135  0.56644376  1  0.124576  0.010467  3.652255  0.007  0.096966  0.004215  3.90495  0.003  0.106077  0.003451  3.923499  0.002  0.049557  0.090177  0.004904  3.893413  0.003
C  C32  1  0.82630571  0.67494034  0.43355648  1  0.124667  0.010465  3.65213  0.007  0.097026  0.004214  3.904852  0.003  0.106136  0.003452  3.923402  0.002  0.04959  0.090236  0.004904  3.893317  0.003
C  C33  1  0.11889174  0.23052177  0.94637450  1  -0.22683  -0.001531  3.95163  -0.006  -0.214332  5.5e-05  4.205825  -0.002  -0.229994  0.0  4.219788  -0.001  -0.034311  -0.204446  0.000116  4.197392  -0.002
C  C34  1  0.88110578  0.76948101  0.05362484  1  -0.226795  -0.001538  3.951772  -0.006  -0.21427  4.8e-05  4.205935  -0.002  -0.229927  -1e-06  4.219885  -0.001  -0.034294  -0.204382  0.000116  4.197504  -0.002
C  C35  1  0.30273628  0.45231181  0.57149377  1  -0.134707  -0.001125  3.676653  -0.002  -0.15451  0.000129  3.924259  0.0  -0.162333  -0.000223  3.944816  -0.001  -0.075864  -0.149315  0.000522  3.910735  0.0
C  C36  1  0.69726766  0.54768988  0.42850830  1  -0.134731  -0.001124  3.676564  -0.002  -0.154479  0.00013  3.924225  0.0  -0.162297  -0.000223  3.944787  -0.001  -0.075838  -0.149285  0.000522  3.910703  0.0
C  C37  1  0.57669568  0.20359538  0.82492655  1  0.102936  0.00016  3.672438  0.0  0.040625  0.000104  3.946514  0.0  0.046953  8.5e-05  3.953137  0.0  -0.083624  0.036358  0.000111  3.941658  0.0
C  C38  1  0.42330260  0.79640166  0.17507323  1  0.102996  0.000159  3.67245  0.0  0.040708  0.000104  3.946474  0.0  0.047037  8.4e-05  3.953097  0.0  -0.083609  0.036442  0.000111  3.94162  0.0
C  C39  1  0.08497729  0.15899480  0.80523354  1  0.341624  0.038442  3.741385  0.026  0.31932  0.014981  4.018043  0.009  0.341955  0.013247  4.026819  0.008  0.210316  0.304127  0.015539  4.013748  0.009
C  C40  1  0.91502038  0.84100452  0.19476858  1  0.341645  0.038469  3.741182  0.026  0.319345  0.01498  4.017833  0.009  0.34198  0.013252  4.026604  0.008  0.210322  0.304151  0.015542  4.013541  0.009
C  C41  1  0.62584535  0.09999857  0.90216502  1  0.048107  0.000332  3.567356  0.0  -0.016571  0.000119  3.838936  0.0  -0.008474  7.1e-05  3.842305  0.0  -0.0713  -0.022007  0.00015  3.836325  0.0
C  C42  1  0.37415371  0.90000077  0.09783552  1  0.048071  0.000333  3.56747  0.0  -0.016598  0.000121  3.838935  0.0  -0.008502  7.1e-05  3.842302  0.0  -0.071286  -0.02204  0.00015  3.836331  0.0
C  C43  1  0.30740852  0.31555384  0.03222354  1  0.273607  0.002171  3.841756  0.002  0.261286  0.00066  4.11277  0.0  0.273223  0.000593  4.131051  0.0  0.169311  0.253202  0.000696  4.100459  0.001
C  C44  1  0.69259348  0.68445013  0.96777786  1  0.273506  0.002204  3.841737  0.002  0.261189  0.000657  4.112733  0.0  0.273126  0.000595  4.131014  0.0  0.169218  0.253103  0.000696  4.10042  0.001
C  C45  1  0.09473502  0.45094394  0.20486321  1  0.304835  0.000195  3.838463  0.0  0.288059  0.000121  4.106095  0.0  0.300254  7e-05  4.125648  0.0  0.185444  0.279978  0.000211  4.093096  0.0
C  C46  1  0.90526112  0.54905078  0.79513463  1  0.304922  0.000191  3.838482  0.0  0.288163  0.000122  4.106094  0.0  0.300356  7.1e-05  4.125646  0.0  0.185534  0.28008  0.000211  4.093096  0.0
C  C47  1  0.86430998  0.24353043  0.20069615  1  0.337348  0.000599  3.819887  0.0  0.314039  0.000338  4.089399  0.0  0.328921  0.000203  4.105179  0.0  0.197991  0.304566  0.000401  4.078427  0.0
C  C48  1  0.13568145  0.75646654  0.79930418  1  0.337177  0.000594  3.81969  0.0  0.313864  0.00034  4.089236  0.0  0.328749  0.000203  4.10502  0.0  0.197909  0.304388  0.000401  4.078259  0.0
C  C49  1  0.97616201  0.29908022  0.13203192  1  -0.253815  0.000698  3.97423  0.0  -0.234034  0.000556  4.222195  0.0  -0.249352  0.000398  4.23978  0.0  -0.040542  -0.224153  0.000816  4.210026  0.0
C  C50  1  0.02383474  0.70092026  0.86796574  1  -0.253823  0.000697  3.97421  0.0  -0.234047  0.000561  4.222198  0.0  -0.249366  0.0004  4.239783  0.0  -0.040567  -0.22416  0.000817  4.210018  0.0
N  N51  1  0.16308072  0.17903773  0.49168710  1  -0.245222  0.024406  3.352165  0.017  -0.202887  0.011902  3.633237  0.009  -0.2314  0.010587  3.655048  0.008  -0.327711  -0.184969  0.011804  3.618727  0.008
N  N52  1  0.83692596  0.82096398  0.50831457  1  -0.245403  0.024409  3.352248  0.017  -0.203091  0.011901  3.633385  0.009  -0.231607  0.010586  3.655195  0.008  -0.327814  -0.185175  0.011804  3.618878  0.008
N  N53  1  0.05891340  0.10017676  0.68793463  1  -0.402704  -0.00555  3.167238  -0.015  -0.383165  -0.000275  3.480512  -0.003  -0.398576  -0.000125  3.47876  -0.003  -0.354764  -0.375717  -0.001134  3.482671  -0.004
N  N54  1  0.94109053  0.89982492  0.31206836  1  -0.402662  -0.00556  3.167136  -0.015  -0.383147  -0.000271  3.480429  -0.003  -0.398559  -0.000126  3.478678  -0.003  -0.354743  -0.375698  -0.001134  3.482586  -0.004
N  N55  1  0.46535473  0.38232890  0.10167799  1  -0.400445  -0.00084  2.567208  -0.001  -0.38288  -4.3e-05  2.791241  0.0  -0.392713  -8e-05  2.804585  0.0  -0.309448  -0.376446  1.3e-05  2.781826  0.0
N  N56  1  0.53463846  0.61766923  0.89832298  1  -0.400385  -0.000858  2.566959  -0.001  -0.382836  -3.9e-05  2.790963  0.0  -0.392669  -8e-05  2.804311  0.0  -0.309381  -0.376402  1.3e-05  2.781546  0.0
N  N57  1  0.77377170  0.20211143  0.26210308  1  -0.45221  0.001102  2.709821  0.001  -0.414866  0.000518  2.946963  0.0  -0.426576  0.000395  2.954525  0.0  -0.310256  -0.407565  0.000559  2.942033  0.0
N  N58  1  0.22622918  0.79788910  0.73789167  1  -0.452094  0.001109  2.70933  0.001  -0.414749  0.000516  2.9465  0.0  -0.426464  0.000394  2.954068  0.0  -0.310194  -0.407448  0.000559  2.941566  0.0
N  N59  1  0.18456437  0.57938521  0.26903882  1  -0.422149  0.000617  2.690226  0.0  -0.393314  0.000309  2.928593  0.0  -0.40476  0.000252  2.939995  0.0  -0.300326  -0.386298  0.000526  2.9216  0.0
N  N60  1  0.81543038  0.42061753  0.73096459  1  -0.422165  0.000623  2.690511  0.0  -0.393357  0.000307  2.928866  0.0  -0.404798  0.00025  2.94027  0.0  -0.300383  -0.386342  0.000525  2.921875  0.0
O  O61  1  0.74717814  0.09173698  0.46585756  1  -0.787495  -0.033881  1.939629  -0.061  -0.760153  -0.030184  2.144842  -0.052  -0.786163  -0.023216  2.116762  -0.042  -0.56924  -0.737981  -0.037641  2.162285  -0.063
O  O62  1  0.25282404  0.90826354  0.53414388  1  -0.787498  -0.033883  1.939628  -0.061  -0.76012  -0.030185  2.144894  -0.052  -0.786126  -0.023216  2.116801  -0.042  -0.569232  -0.737948  -0.037642  2.162335  -0.063
O  O63  1  0.81783174  0.08657498  0.91497525  1  -0.271711  0.001063  2.306869  0.001  -0.197362  0.000748  2.545703  0.0  -0.217043  0.000519  2.547053  0.0  -0.16421  -0.183497  0.000883  2.544118  0.001
O  O64  1  0.18216597  0.91342436  0.08502320  1  -0.271802  0.001063  2.307055  0.001  -0.197388  0.000749  2.545852  0.0  -0.21707  0.000519  2.547204  0.0  -0.164241  -0.183523  0.000883  2.544274  0.001
O  O65  1  0.57806914  0.14105823  0.68818789  1  -0.555116  6.1e-05  2.133502  0.0  -0.486987  -0.000116  2.355062  0.0  -0.504078  -5.4e-05  2.34443  0.0  -0.395244  -0.475537  -0.000182  2.362941  0.0
O  O66  1  0.42193167  0.85894228  0.31181421  1  -0.555113  6.2e-05  2.133478  0.0  -0.487049  -0.000116  2.355048  0.0  -0.504146  -5.4e-05  2.344416  0.0  -0.395238  -0.475595  -0.000182  2.362927  0.0
