# generated using pymatgen
data_H18PbC26(NO2)4
_symmetry_space_group_name_H-M   'P 1'
_cell_length_a   7.63251187
_cell_length_b   22.24543443
_cell_length_c   22.76053434
_cell_angle_alpha   79.31710760
_cell_angle_beta   80.31177614
_cell_angle_gamma   80.08767561
_symmetry_Int_Tables_number   1
_chemical_formula_structural   H18PbC26(NO2)4
_chemical_formula_sum   'H72 Pb4 C104 N16 O32'
_cell_volume   3703.50078510
_cell_formula_units_Z   4
loop_
 _symmetry_equiv_pos_site_id
 _symmetry_equiv_pos_as_xyz
  1  'x, y, z'
loop_
 _atom_site_type_symbol
 _atom_site_label
 _atom_site_symmetry_multiplicity
 _atom_site_fract_x
 _atom_site_fract_y
 _atom_site_fract_z
 _atom_site_occupancy
 _atom_site_pbe_bader_charge
 _atom_site_pbe_bader_spin_density
 _atom_site_pbe_cm5_charge
 _atom_site_pbe_ddec_charge
 _atom_site_pbe_ddec_spin_density
 _atom_site_pbe_ddec_sum_bond_order
 _atom_site_pbe_magmom
H  H0  1  0.18720908  0.61133685  0.81018296  1  0.083239  0  0.102615  0.097012  0  1.047827  0
H  H1  1  0.60906101  0.88864028  0.68980679  1  0.078065  0  0.102658  0.096829  0  1.047893  0
H  H2  1  0.81278808  0.38866387  0.18981712  1  0.083241  0  0.10259  0.096953  0  1.047838  0
H  H3  1  0.39093900  0.11135998  0.31019365  1  0.077899  0  0.102642  0.09682  0  1.047895  0
H  H4  1  0.36616421  0.52862924  0.87417178  1  0.15645  0  0.106436  0.126834  0  1.038905  0
H  H5  1  0.76911271  0.97138651  0.62583743  1  0.132431  0  0.106387  0.127143  0  1.037641  0
H  H6  1  0.63383693  0.47137147  0.12582807  1  0.156467  0  0.106449  0.126827  0  1.038896  0
H  H7  1  0.23088617  0.02861329  0.37416360  1  0.132398  0  0.1064  0.127146  0  1.037617  0
H  H8  1  0.88742359  0.44409091  0.94204972  1  0.053738  0  0.100759  0.105869  0  1.026115  0
H  H9  1  0.27361939  0.05592558  0.55802983  1  0.060818  0  0.100463  0.105321  0  1.026578  0
H  H10  1  0.11257794  0.55590889  0.05795072  1  0.053734  0  0.100758  0.105858  0  1.026134  0
H  H11  1  0.72638232  0.94407373  0.44196937  1  0.060857  0  0.100458  0.105329  0  1.026556  0
H  H12  1  0.71430624  0.52516665  0.87679244  1  0.131258  0  0.106277  0.119333  0  1.02144  0
H  H13  1  0.11644256  0.97481542  0.62322974  1  0.148512  0  0.106481  0.119885  0  1.020598  0
H  H14  1  0.28569415  0.47483268  0.12320816  1  0.131254  0  0.106272  0.119313  0  1.021451  0
H  H15  1  0.88355763  0.02518437  0.37676990  1  0.148523  0  0.106458  0.119897  0  1.020546  0
H  H16  1  0.14281709  0.40816740  0.98255728  1  0.449843  0  0.321257  0.272159  0  0.944569  0
H  H17  1  0.53342385  0.09184240  0.51750086  1  0.438613  0  0.321294  0.271491  0  0.942838  0
H  H18  1  0.85718424  0.59183285  0.01744221  1  0.449823  0  0.321272  0.272139  0  0.944644  0
H  H19  1  0.46657616  0.90815786  0.48249958  1  0.438597  0  0.321299  0.271481  0  0.942831  0
H  H20  1  0.68896904  0.41551312  0.01715591  1  0.131791  0  0.11379  0.116939  0  1.022876  0
H  H21  1  0.12153510  0.08464662  0.48292272  1  0.118759  0  0.113568  0.117113  0  1.021942  0
H  H22  1  0.31103230  0.58448713  0.98284402  1  0.131809  0  0.113807  0.11695  0  1.022865  0
H  H23  1  0.87846321  0.91535458  0.51707896  1  0.118638  0  0.113548  0.117096  0  1.021939  0
H  H24  1  0.78081606  0.33746832  0.10695979  1  0.149296  0  0.132446  0.11822  0  1.01148  0
H  H25  1  0.22512165  0.16269976  0.39312014  1  0.15299  0  0.132634  0.118253  0  1.011481  0
H  H26  1  0.21918414  0.66253147  0.89304029  1  0.149296  0  0.132445  0.118211  0  1.011489  0
H  H27  1  0.77487799  0.83730142  0.60688103  1  0.153121  0  0.132626  0.118231  0  1.011493  0
H  H28  1  0.31336695  0.26001087  0.12590588  1  0.194803  0  0.132103  0.122613  0  1.029848  0
H  H29  1  0.69886139  0.23999205  0.37409482  1  0.171187  0  0.132503  0.122774  0  1.028883  0
H  H30  1  0.68663134  0.73999031  0.87409404  1  0.19481  0  0.132093  0.122581  0  1.02986  0
H  H31  1  0.30113749  0.76000775  0.62590577  1  0.171189  0  0.132475  0.122684  0  1.028901  0
H  H32  1  0.21151970  0.32850866  0.03676657  1  0.110093  0  0.117603  0.12809  0  0.996414  0
H  H33  1  0.57635670  0.17145976  0.46321087  1  0.078867  0  0.117399  0.127597  0  0.996995  0
H  H34  1  0.78847859  0.67149253  0.96323380  1  0.110094  0  0.117622  0.128111  0  0.996359  0
H  H35  1  0.42364236  0.82853957  0.53678937  1  0.078882  0  0.117404  0.127604  0  0.996994  0
H  H36  1  0.19577944  0.44189458  0.38760342  1  0.104683  0  0.102353  0.105068  0  1.017529  0
H  H37  1  0.02525973  0.05815444  0.11261353  1  0.079276  0  0.102104  0.104961  0  1.01796  0
H  H38  1  0.80422304  0.55810613  0.61239635  1  0.104542  0  0.102349  0.105036  0  1.01758  0
H  H39  1  0.97474047  0.94184535  0.88738611  1  0.079268  0  0.102076  0.104919  0  1.017999  0
H  H40  1  0.18491056  0.51143907  0.46253672  1  0.088686  0  0.103753  0.113858  0  0.994843  0
H  H41  1  0.15872589  0.98854851  0.03765482  1  0.027594  0  0.103342  0.113116  0  0.995602  0
H  H42  1  0.81509097  0.48856072  0.53746329  1  0.088676  0  0.103748  0.113838  0  0.994868  0
H  H43  1  0.84127278  0.01145173  0.96234438  1  0.027587  0  0.103331  0.113103  0  0.995591  0
H  H44  1  0.34528056  0.35340986  0.59354076  1  0.149208  0  0.109015  0.132442  0  1.016508  0
H  H45  1  0.29180371  0.14650770  0.90650937  1  0.140978  0  0.109198  0.132755  0  1.016767  0
H  H46  1  0.65471566  0.64658993  0.40645956  1  0.148938  0  0.108994  0.132401  0  1.016538  0
H  H47  1  0.70819610  0.85349301  0.09349012  1  0.140969  0  0.109159  0.132683  0  1.016807  0
H  H48  1  0.35478906  0.28458436  0.51739737  1  0.075435  0  0.102299  0.105245  0  0.997179  0
H  H49  1  0.15664117  0.21538168  0.98268509  1  0.074626  0  0.102828  0.105559  0  0.997402  0
H  H50  1  0.64520847  0.71541542  0.48260199  1  0.075373  0  0.102296  0.105227  0  0.99724  0
H  H51  1  0.84336055  0.78461765  0.01731499  1  0.074614  0  0.102795  0.105537  0  0.997414  0
H  H52  1  0.08553772  0.58161750  0.61631400  1  0.12227  0  0.112359  0.117251  0  1.026884  0
H  H53  1  0.28302739  0.91845343  0.88370307  1  0.10431  0  0.112075  0.116753  0  1.027222  0
H  H54  1  0.91446135  0.41838182  0.38368623  1  0.122281  0  0.112367  0.117263  0  1.02689  0
H  H55  1  0.71697394  0.08154682  0.11629686  1  0.104295  0  0.112078  0.116759  0  1.027216  0
H  H56  1  0.10791131  0.67376356  0.66084365  1  0.227971  0  0.131286  0.128255  0  1.049855  0
H  H57  1  0.44214401  0.82629722  0.83908163  1  0.209735  0  0.131401  0.129093  0  1.048004  0
H  H58  1  0.89209021  0.32623622  0.33915591  1  0.227958  0  0.131265  0.128213  0  1.049849  0
H  H59  1  0.55785600  0.17370304  0.16091881  1  0.209721  0  0.131425  0.129175  0  1.048002  0
H  H60  1  0.55413564  0.58519108  0.74002711  1  0.240195  0  0.134791  0.142071  0  1.028608  0
H  H61  1  0.87932945  0.91468276  0.75991451  1  0.233796  0  0.134993  0.142173  0  1.029006  0
H  H62  1  0.44586475  0.41480823  0.25997217  1  0.240177  0  0.13481  0.142103  0  1.028599  0
H  H63  1  0.12067055  0.08531749  0.24008550  1  0.23379  0  0.134992  0.142173  0  1.029005  0
H  H64  1  0.54632851  0.48600911  0.70011567  1  0.119416  0  0.12462  0.136497  0  0.967065  0
H  H65  1  0.73247750  0.01384063  0.79996055  1  0.141706  0  0.124568  0.136497  0  0.968138  0
H  H66  1  0.45367188  0.51399022  0.29988405  1  0.119427  0  0.124597  0.136482  0  0.967036  0
H  H67  1  0.26752403  0.98615916  0.20003990  1  0.141708  0  0.12457  0.136494  0  0.968147  0
H  H68  1  0.21980715  0.52347645  0.55518560  1  0.459116  0  0.319111  0.269318  0  0.949821  0
H  H69  1  0.29804573  0.97646580  0.94493276  1  0.431525  0  0.318997  0.269003  0  0.950078  0
H  H70  1  0.78019172  0.47652334  0.44481456  1  0.459116  0  0.319135  0.269377  0  0.949731  0
H  H71  1  0.70195161  0.02353444  0.05506696  1  0.431544  0  0.318988  0.268992  0  0.950094  0
Pb  Pb72  1  0.64617812  0.72840508  0.71966361  1  1.447878  0  0.611965  1.094223  0  1.913332  0
Pb  Pb73  1  0.09436153  0.77154112  0.78019483  1  1.446759  0  0.611886  1.094077  0  1.912864  0
Pb  Pb74  1  0.35382569  0.27159563  0.28033609  1  1.447887  0  0.611986  1.094244  0  1.9133  0
Pb  Pb75  1  0.90563866  0.22845866  0.21980481  1  1.44676  0  0.611883  1.094071  0  1.912885  0
C  C76  1  0.83350098  0.62496890  0.80162860  1  1.548765  0  0.20144  0.562786  0  4.23144  0
C  C77  1  0.26040836  0.87496581  0.69833373  1  1.558237  0  0.200784  0.561802  0  4.234292  0
C  C78  1  0.16649904  0.37503136  0.19837185  1  1.548776  0  0.201412  0.562752  0  4.231494  0
C  C79  1  0.73959164  0.12503443  0.30166583  1  1.558262  0  0.200802  0.561856  0  4.23419  0
C  C80  1  0.93926917  0.57433073  0.83954274  1  -0.034551  0  -0.03013  -0.0561  0  4.005378  0
C  C81  1  0.35337999  0.92563550  0.66046995  1  -0.054938  0  -0.029516  -0.056194  0  4.005522  0
C  C82  1  0.06073104  0.42566906  0.16045778  1  -0.034562  0  -0.030128  -0.056115  0  4.005373  0
C  C83  1  0.64662039  0.07436382  0.33952933  1  -0.054899  0  -0.029512  -0.056202  0  4.005487  0
C  C84  1  0.12280751  0.57428956  0.83926219  1  -0.037974  0  -0.088421  -0.08548  0  4.010348  0
C  C85  1  0.53659436  0.92569010  0.66075070  1  -0.020904  0  -0.08867  -0.085718  0  4.009152  0
C  C86  1  0.87719249  0.42571069  0.16073782  1  -0.037956  0  -0.088484  -0.085538  0  4.0104  0
C  C87  1  0.46340583  0.07430968  0.33924894  1  -0.020724  0  -0.088672  -0.085708  0  4.009084  0
C  C88  1  0.22367913  0.52841705  0.87520815  1  -0.05746  0  -0.102292  -0.192734  0  3.960974  0
C  C89  1  0.62745491  0.97158545  0.62481977  1  -0.016319  0  -0.101649  -0.191613  0  3.958507  0
C  C90  1  0.77632202  0.47158366  0.12479170  1  -0.057534  0  -0.102274  -0.192634  0  3.960982  0
C  C91  1  0.37254529  0.02841434  0.37518031  1  -0.016305  0  -0.101639  -0.191587  0  3.958457  0
C  C92  1  0.13794833  0.48177798  0.91380142  1  0.281907  0  0.098094  0.252377  0  4.028085  0
C  C93  1  0.53359225  0.01823601  0.58625885  1  0.298795  0  0.097766  0.250556  0  4.030086  0
C  C94  1  0.86205434  0.51822227  0.08619843  1  0.282004  0  0.098143  0.252352  0  4.02819  0
C  C95  1  0.46640795  0.98176378  0.41374123  1  0.298799  0  0.097736  0.250484  0  4.030094  0
C  C96  1  0.95423212  0.48091783  0.91335816  1  -0.032887  0  -0.101932  -0.195306  0  3.986537  0
C  C97  1  0.34858204  0.01909490  0.58671587  1  -0.05588  0  -0.101831  -0.194706  0  3.989518  0
C  C98  1  0.04577075  0.51908196  0.08664220  1  -0.032904  0  -0.101928  -0.195277  0  3.986586  0
C  C99  1  0.65141834  0.98090442  0.41328341  1  -0.055932  0  -0.101796  -0.194674  0  3.98946  0
C  C100  1  0.85629278  0.52639623  0.87646235  1  0.009342  0  -0.084862  -0.074818  0  3.984676  0
C  C101  1  0.25931283  0.97358881  0.62357937  1  -0.02366  0  -0.08431  -0.074086  0  3.983173  0
C  C102  1  0.14370743  0.47360356  0.12353817  1  0.009325  0  -0.08485  -0.074779  0  3.984681  0
C  C103  1  0.74068604  0.02641097  0.37641991  1  -0.023691  0  -0.084296  -0.074107  0  3.983094  0
C  C104  1  0.44318555  0.38000132  0.01880923  1  -0.023966  0  -0.006181  -0.022523  0  3.990514  0
C  C105  1  0.84176726  0.12004572  0.48120518  1  -0.039139  0  -0.006391  -0.023808  0  3.991104  0
C  C106  1  0.55681426  0.61999939  0.98119069  1  -0.023969  0  -0.006181  -0.022521  0  3.990544  0
C  C107  1  0.15823162  0.87995408  0.51879542  1  -0.039176  0  -0.006381  -0.023806  0  3.991052  0
C  C108  1  0.60539775  0.38069100  0.03957750  1  0.033044  0  -0.066507  -0.1027  0  3.975706  0
C  C109  1  0.02550092  0.11944030  0.46048153  1  0.052607  0  -0.066252  -0.102719  0  3.975913  0
C  C110  1  0.39460359  0.61930925  0.96042243  1  0.033045  0  -0.066505  -0.10269  0  3.975768  0
C  C111  1  0.97449757  0.88056042  0.53951891  1  0.052751  0  -0.066232  -0.102705  0  3.975958  0
C  C112  1  0.65697517  0.33954633  0.08877074  1  0.349339  0  0.046339  -0.026318  0  3.8389  0
C  C113  1  0.08511435  0.16059568  0.41129426  1  0.366054  0  0.046634  -0.025571  0  3.837186  0
C  C114  1  0.34302503  0.66045346  0.91122890  1  0.349339  0  0.046338  -0.026276  0  3.838878  0
C  C115  1  0.91488433  0.83940458  0.58870625  1  0.365904  0  0.046654  -0.025511  0  3.837277  0
C  C116  1  0.39173575  0.29463228  0.09919073  1  0.323044  0  0.043903  -0.029401  0  3.821389  0
C  C117  1  0.78520721  0.20539384  0.40081538  1  0.388779  0  0.043191  -0.030144  0  3.820065  0
C  C118  1  0.60826274  0.70536844  0.90080927  1  0.323029  0  0.043939  -0.029294  0  3.821387  0
C  C119  1  0.21479166  0.79460595  0.59918434  1  0.388794  0  0.043221  -0.03001  0  3.819979  0
C  C120  1  0.33782757  0.33493816  0.04946506  1  0.049375  0  -0.071473  -0.126377  0  3.975028  0
C  C121  1  0.72187755  0.16506611  0.45053269  1  0.027583  0  -0.070646  -0.123979  0  3.974465  0
C  C122  1  0.66217072  0.66506302  0.95053530  1  0.049379  0  -0.071549  -0.126479  0  3.975037  0
C  C123  1  0.27812131  0.83493368  0.54946703  1  0.027585  0  -0.070635  -0.123987  0  3.974456  0
C  C124  1  0.29008757  0.31836431  0.40043290  1  1.56198  0  0.191765  0.55517  0  4.248782  0
C  C125  1  0.00905318  0.18168660  0.09969297  1  1.549696  0  0.190195  0.553667  0  4.249025  0
C  C126  1  0.70991376  0.68163594  0.59956702  1  1.561989  0  0.191763  0.555309  0  4.248573  0
C  C127  1  0.99094854  0.81831272  0.90030668  1  1.549694  0  0.190208  0.55363  0  4.249069  0
C  C128  1  0.27521739  0.35868546  0.44774872  1  -0.031361  0  -0.031955  -0.054223  0  3.994241  0
C  C129  1  0.08171767  0.14131428  0.05240242  1  -0.037944  0  -0.032085  -0.054118  0  3.995812  0
C  C130  1  0.72478394  0.64131478  0.55225077  1  -0.031278  0  -0.032002  -0.054368  0  3.994193  0
C  C131  1  0.91827986  0.85868550  0.94759694  1  -0.037991  0  -0.032029  -0.053957  0  3.995613  0
C  C132  1  0.22551994  0.42285229  0.43309346  1  -0.037666  0  -0.095899  -0.099195  0  4.046223  0
C  C133  1  0.08146795  0.07716038  0.06710085  1  -0.065248  0  -0.095565  -0.09842  0  4.046881  0
C  C134  1  0.77448159  0.57714749  0.56690611  1  -0.037516  0  -0.095911  -0.099127  0  4.046268  0
C  C135  1  0.91853091  0.92283941  0.93289887  1  -0.065396  0  -0.095556  -0.098414  0  4.046886  0
C  C136  1  0.22051229  0.46149488  0.47487264  1  -0.066729  0  -0.106988  -0.207688  0  4.020563  0
C  C137  1  0.15675246  0.03848714  0.02531231  1  0.037408  0  -0.106835  -0.20816  0  4.020927  0
C  C138  1  0.77948791  0.53850491  0.52512744  1  -0.066739  0  -0.106947  -0.207656  0  4.020596  0
C  C139  1  0.84324488  0.96151311  0.97468697  1  0.037626  0  -0.106814  -0.208159  0  4.020964  0
C  C140  1  0.26499198  0.43667965  0.53292144  1  0.322528  0  0.096386  0.251258  0  4.038589  0
C  C141  1  0.23433659  0.06327213  0.96721845  1  0.332459  0  0.09676  0.252805  0  4.036719  0
C  C142  1  0.73500689  0.56332013  0.46707828  1  0.32361  0  0.096428  0.251342  0  4.038594  0
C  C143  1  0.76566341  0.93672812  0.03278112  1  0.332477  0  0.096739  0.25273  0  4.036808  0
C  C144  1  0.31153959  0.37237229  0.54864773  1  -0.05186  0  -0.097897  -0.186022  0  3.9455  0
C  C145  1  0.23225821  0.12757205  0.95144245  1  -0.058366  0  -0.098265  -0.186554  0  3.94607  0
C  C146  1  0.68845795  0.62762750  0.45135251  1  -0.05267  0  -0.097901  -0.185978  0  3.945575  0
C  C147  1  0.76774198  0.87242773  0.04855719  1  -0.058348  0  -0.098224  -0.186423  0  3.946111  0
C  C148  1  0.31671629  0.33439778  0.50589914  1  -0.04167  0  -0.084022  -0.072771  0  3.99454  0
C  C149  1  0.15690335  0.16557356  0.99420458  1  -0.020309  0  -0.084242  -0.073082  0  3.99585  0
C  C150  1  0.68328390  0.66560200  0.49410050  1  -0.041677  0  -0.084003  -0.072735  0  3.994527  0
C  C151  1  0.84309551  0.83442623  0.00579514  1  -0.020306  0  -0.084222  -0.073126  0  3.995865  0
C  C152  1  0.33310265  0.46897778  0.62539723  1  1.42028  0  0.237599  0.4691  0  4.138666  0
C  C153  1  0.42734871  0.03093142  0.87474494  1  1.410344  0  0.238716  0.47173  0  4.139959  0
C  C154  1  0.66689528  0.53102109  0.37460316  1  1.420254  0  0.237621  0.469154  0  4.138684  0
C  C155  1  0.57265415  0.96906837  0.12525542  1  1.410858  0  0.238737  0.471783  0  4.139779  0
C  C156  1  0.32362902  0.52641850  0.65169711  1  0.017829  0  -0.006214  -0.019364  0  4.004832  0
C  C157  1  0.50156415  0.97352090  0.84836606  1  -0.081912  0  -0.006094  -0.019885  0  4.00519  0
C  C158  1  0.67637023  0.47358036  0.34830320  1  0.017663  0  -0.006183  -0.019341  0  4.004893  0
C  C159  1  0.49843738  0.02647890  0.15163438  1  -0.081886  0  -0.006124  -0.019919  0  4.005154  0
C  C160  1  0.19705507  0.57946795  0.64127257  1  -0.069991  0  -0.076817  -0.132877  0  3.979585  0
C  C161  1  0.41745969  0.92054317  0.85873679  1  0.092637  0  -0.076898  -0.131766  0  3.981155  0
C  C162  1  0.80294286  0.42053092  0.35872826  1  -0.069915  0  -0.076819  -0.132895  0  3.979631  0
C  C163  1  0.58254165  0.07945709  0.14126357  1  0.092647  0  -0.076924  -0.131789  0  3.981104  0
C  C164  1  0.20471095  0.63157865  0.66504445  1  0.382279  0  0.042708  -0.02251  0  3.809597  0
C  C165  1  0.50101656  0.86843657  0.83490986  1  0.307619  0  0.043068  -0.023897  0  3.809996  0
C  C166  1  0.79528944  0.36842067  0.33495527  1  0.382357  0  0.0427  -0.022486  0  3.809621  0
C  C167  1  0.49898478  0.13156369  0.16509050  1  0.30761  0  0.043006  -0.023988  0  3.810026  0
C  C168  1  0.45780515  0.58027143  0.71152278  1  0.310493  0  0.046036  -0.033662  0  3.817586  0
C  C169  1  0.74949800  0.91963553  0.78844260  1  0.290021  0  0.045654  -0.034192  0  3.817455  0
C  C170  1  0.54219523  0.41972789  0.28847694  1  0.310508  0  0.045925  -0.033891  0  3.8177  0
C  C171  1  0.25050220  0.08036427  0.21155792  1  0.290018  0  0.045658  -0.03418  0  3.817492  0
C  C172  1  0.45075223  0.52735108  0.68916158  1  0.020314  0  -0.064676  -0.105928  0  3.966579  0
C  C173  1  0.66719844  0.97254180  0.81088050  1  0.039168  0  -0.064541  -0.106312  0  3.967326  0
C  C174  1  0.54924684  0.47264825  0.31083865  1  0.02034  0  -0.064678  -0.105859  0  3.966532  0
C  C175  1  0.33280176  0.02745799  0.18912001  1  0.039168  0  -0.064554  -0.106324  0  3.96736  0
C  C176  1  0.39810476  0.42867644  0.96662162  1  1.416687  0  0.243923  0.475354  0  4.132918  0
C  C177  1  0.79334283  0.07132295  0.53336751  1  1.419353  0  0.243766  0.474225  0  4.128191  0
C  C178  1  0.60189505  0.57132427  0.03337875  1  1.416748  0  0.243916  0.475267  0  4.133041  0
C  C179  1  0.20665737  0.92867684  0.46663257  1  1.419366  0  0.243781  0.474266  0  4.128158  0
N  N180  1  0.22482617  0.43583708  0.95456056  1  -1.259033  0  -0.393544  -0.368244  0  3.590049  0
N  N181  1  0.61515736  0.06418138  0.54548404  1  -1.238921  0  -0.393627  -0.366178  0  3.586289  0
N  N182  1  0.77517516  0.56416316  0.04543893  1  -1.259053  0  -0.393539  -0.368147  0  3.590164  0
N  N183  1  0.38484152  0.93581841  0.45451656  1  -1.238912  0  -0.393617  -0.366127  0  3.586234  0
N  N184  1  0.54845183  0.29785698  0.11914782  1  -0.624903  0  -0.0967  0.346098  0  3.965298  0
N  N185  1  0.96519919  0.20222406  0.38088608  1  -0.628133  0  -0.09771  0.344301  0  3.96532  0
N  N186  1  0.45154818  0.70214327  0.88085219  1  -0.624901  0  -0.096693  0.346057  0  3.965308  0
N  N187  1  0.03479968  0.79777573  0.61911408  1  -0.628144  0  -0.097742  0.344226  0  3.965416  0
N  N188  1  0.26129420  0.47868802  0.57212505  1  -1.27077  0  -0.396629  -0.373963  0  3.579669  0
N  N189  1  0.31175796  0.02124279  0.92800150  1  -1.230477  0  -0.396578  -0.374911  0  3.581048  0
N  N190  1  0.73870353  0.52131131  0.42787526  1  -1.270784  0  -0.396698  -0.374132  0  3.579683  0
N  N191  1  0.68824205  0.97875746  0.07199806  1  -1.230721  0  -0.396595  -0.374928  0  3.581066  0
N  N192  1  0.33826945  0.63225402  0.69774097  1  -0.651125  0  -0.102034  0.341608  0  3.942172  0
N  N193  1  0.66804647  0.86770626  0.80218389  1  -0.635015  0  -0.102039  0.34254  0  3.940444  0
N  N194  1  0.66173094  0.36774530  0.30225875  1  -0.651295  0  -0.101949  0.34168  0  3.942255  0
N  N195  1  0.33195355  0.13229400  0.19781655  1  -0.634986  0  -0.101999  0.342571  0  3.940447  0
O  O196  1  0.67349352  0.62035323  0.79627563  1  -1.172961  0  -0.308584  -0.553881  0  2.18202  0
O  O197  1  0.09042207  0.87952300  0.70357786  1  -1.176638  0  -0.308538  -0.553699  0  2.184216  0
O  O198  1  0.32650801  0.37964656  0.20372437  1  -1.172985  0  -0.308578  -0.553854  0  2.181964  0
O  O199  1  0.90957795  0.12047726  0.29642258  1  -1.176647  0  -0.308539  -0.553717  0  2.184196  0
O  O200  1  0.90891101  0.67232688  0.77592415  1  -1.182454  0  -0.302591  -0.589491  0  2.268194  0
O  O201  1  0.35750614  0.82764228  0.72410397  1  -1.189878  0  -0.302269  -0.58888  0  2.268282  0
O  O202  1  0.09108919  0.32767291  0.22407593  1  -1.182454  0  -0.302568  -0.589477  0  2.268229  0
O  O203  1  0.64249387  0.17235797  0.27589604  1  -1.189893  0  -0.302281  -0.588913  0  2.268275  0
O  O204  1  0.51160941  0.46068928  0.93797100  1  -1.134654  0  -0.278946  -0.462132  0  2.143645  0
O  O205  1  0.91029302  0.03927575  0.56196000  1  -1.136993  0  -0.279386  -0.462081  0  2.139624  0
O  O206  1  0.48839154  0.53931190  0.06202921  1  -1.134633  0  -0.278918  -0.46206  0  2.143724  0
O  O207  1  0.08970680  0.96072497  0.43804037  1  -1.136979  0  -0.279394  -0.462113  0  2.139633  0
O  O208  1  0.59189885  0.26140429  0.16803096  1  -0.614195  0  -0.186034  -0.471757  0  2.096179  0
O  O209  1  0.02112114  0.23866970  0.33199312  1  -0.612869  0  -0.185642  -0.470888  0  2.097361  0
O  O210  1  0.40810115  0.73859596  0.83196861  1  -0.614204  0  -0.18605  -0.471763  0  2.096171  0
O  O211  1  0.97887906  0.76133009  0.66800697  1  -0.612869  0  -0.18566  -0.470916  0  2.09742  0
O  O212  1  0.23383917  0.34550149  0.35045110  1  -1.168078  0  -0.315452  -0.56759  0  2.201478  0
O  O213  1  0.93000678  0.15459859  0.14973036  1  -1.162373  0  -0.314794  -0.566813  0  2.202137  0
O  O214  1  0.76616369  0.65449830  0.64954839  1  -1.168084  0  -0.315442  -0.567625  0  2.201422  0
O  O215  1  0.06999362  0.84540074  0.85026980  1  -1.16237  0  -0.314773  -0.566762  0  2.202124  0
O  O216  1  0.35902876  0.26203249  0.41020879  1  -1.198718  0  -0.338489  -0.596918  0  2.120032  0
O  O217  1  0.03142341  0.23800190  0.08983826  1  -1.193293  0  -0.337721  -0.596088  0  2.117467  0
O  O218  1  0.64097277  0.73796729  0.58979078  1  -1.198717  0  -0.338489  -0.596988  0  2.119966  0
O  O219  1  0.96857964  0.76199742  0.91016130  1  -1.193328  0  -0.337763  -0.596132  0  2.117507  0
O  O220  1  0.40520760  0.41832957  0.64907654  1  -1.13276  0  -0.29275  -0.464564  0  2.061201  0
O  O221  1  0.47267883  0.08155807  0.85113452  1  -1.116471  0  -0.293713  -0.466056  0  2.063097  0
O  O222  1  0.59479033  0.58166929  0.35092385  1  -1.132718  0  -0.292738  -0.464565  0  2.061178  0
O  O223  1  0.52732823  0.91844127  0.14886657  1  -1.116757  0  -0.293682  -0.466036  0  2.062982  0
O  O224  1  0.34883502  0.68344445  0.71723087  1  -0.646392  0  -0.205134  -0.510815  0  2.08004  0
O  O225  1  0.74929640  0.81652854  0.78262029  1  -0.646065  0  -0.205411  -0.511239  0  2.079276  0
O  O226  1  0.65116650  0.31655532  0.28276782  1  -0.646272  0  -0.205101  -0.510728  0  2.080109  0
O  O227  1  0.25070381  0.18347126  0.21738067  1  -0.646081  0  -0.205401  -0.511243  0  2.079303  0
