# generated using pymatgen
data_AgH9C12S(NO2)2
_symmetry_space_group_name_H-M   'P 1'
_cell_length_a   8.33850094
_cell_length_b   9.72659195
_cell_length_c   14.93400000
_cell_angle_alpha   90.00000000
_cell_angle_beta   94.37568918
_cell_angle_gamma   90.00000000
_symmetry_Int_Tables_number   1
_chemical_formula_structural   AgH9C12S(NO2)2
_chemical_formula_sum   'Ag4 H36 C48 S4 N8 O16'
_cell_volume   1207.69453721
_cell_formula_units_Z   4
loop_
 _symmetry_equiv_pos_site_id
 _symmetry_equiv_pos_as_xyz
  1  'x, y, z'
loop_
 _atom_site_type_symbol
 _atom_site_label
 _atom_site_symmetry_multiplicity
 _atom_site_fract_x
 _atom_site_fract_y
 _atom_site_fract_z
 _atom_site_occupancy
 _atom_site_hle17_bader_spin_density
 _atom_site_hle17_ddec_charge
 _atom_site_hle17_ddec_spin_density
 _atom_site_hle17_ddec_sum_bond_order
 _atom_site_hle17_magmom
 _atom_site_hse06_10hf_bader_spin_density
 _atom_site_hse06_10hf_ddec_charge
 _atom_site_hse06_10hf_ddec_spin_density
 _atom_site_hse06_10hf_ddec_sum_bond_order
 _atom_site_hse06_10hf_magmom
 _atom_site_hse06_bader_spin_density
 _atom_site_hse06_ddec_charge
 _atom_site_hse06_ddec_spin_density
 _atom_site_hse06_ddec_sum_bond_order
 _atom_site_hse06_magmom
 _atom_site_pbe_bader_charge
 _atom_site_pbe_bader_spin_density
 _atom_site_pbe_cm5_charge
 _atom_site_pbe_ddec_charge
 _atom_site_pbe_ddec_spin_density
 _atom_site_pbe_ddec_sum_bond_order
 _atom_site_pbe_magmom
Ag  Ag0  1  0.15605117  0.78492652  0.41556775  1  0  0.614347  0  1.305868  0  0  0.489326  0  1.723628  0  0  0.519168  0  1.674297  0  0.644817  0  0.485046  0.468363  0  1.757983  0
Ag  Ag1  1  0.34394907  0.28492508  0.08443206  1  0  0.614313  0  1.305884  0  0  0.489284  0  1.723656  0  0  0.519127  0  1.674324  0  0.644744  0  0.485027  0.46832  0  1.758011  0
Ag  Ag2  1  0.84395292  0.21507533  0.58443202  1  0  0.614323  0  1.305892  0  0  0.489298  0  1.723647  0  0  0.519141  0  1.674315  0  0.644762  0  0.485029  0.468338  0  1.758001  0
Ag  Ag3  1  0.65605021  0.71507472  0.91556818  1  0  0.614325  0  1.305874  0  0  0.489299  0  1.72364  0  0  0.519142  0  1.674308  0  0.644765  0  0.485028  0.468336  0  1.757995  0
H  H4  1  0.07301488  0.29321575  0.99699556  1  0  0.087833  0  0.987147  0  0  0.095513  0  1.059673  0  0  0.098654  0  1.056263  0  0.063515  0  0.09546  0.093182  0  1.062163  0
H  H5  1  0.42698296  0.79321617  0.50300415  1  0  0.087793  0  0.98716  0  0  0.095468  0  1.059698  0  0  0.098609  0  1.056287  0  0.063511  0  0.095449  0.093137  0  1.062189  0
H  H6  1  0.92698200  0.70678405  0.00300525  1  0  0.087815  0  0.987146  0  0  0.095483  0  1.059691  0  0  0.098625  0  1.056281  0  0.063496  0  0.095445  0.093154  0  1.06218  0
H  H7  1  0.57302233  0.20678363  0.49699567  1  0  0.08781  0  0.987149  0  0  0.09549  0  1.059671  0  0  0.09863  0  1.056266  0  0.063443  0  0.095423  0.093158  0  1.062163  0
H  H8  1  0.64650629  0.25911234  0.32834361  1  0  0.103086  0  0.943505  0  0  0.115347  0  1.002493  0  0  0.118275  0  1.000933  0  0.093465  0  0.108872  0.112884  0  1.004425  0
H  H9  1  0.85349443  0.75911070  0.17165649  1  0  0.103127  0  0.943479  0  0  0.115371  0  1.002472  0  0  0.118291  0  1.000935  0  0.093472  0  0.10888  0.112909  0  1.004403  0
H  H10  1  0.35349419  0.74088849  0.67165668  1  0  0.103096  0  0.943487  0  0  0.115347  0  1.002478  0  0  0.118269  0  1.000938  0  0.093472  0  0.108871  0.112885  0  1.004408  0
H  H11  1  0.14650845  0.24088807  0.82834457  1  0  0.103076  0  0.9435  0  0  0.115307  0  1.002512  0  0  0.118233  0  1.000958  0  0.093437  0  0.108869  0.112845  0  1.004443  0
H  H12  1  0.65889714  0.81834625  0.30011092  1  0  0.112503  0  0.955899  0  0  0.12038  0  1.019541  0  0  0.123044  0  1.01918  0  0.133877  0  0.107674  0.118054  0  1.020724  0
H  H13  1  0.84109636  0.31834583  0.19989155  1  0  0.112481  0  0.95597  0  0  0.120392  0  1.019557  0  0  0.123047  0  1.019224  0  0.133869  0  0.107653  0.118074  0  1.020715  0
H  H14  1  0.34109973  0.18165458  0.69988855  1  0  0.112508  0  0.95589  0  0  0.120398  0  1.019521  0  0  0.123062  0  1.01916  0  0.133859  0  0.107658  0.118069  0  1.020713  0
H  H15  1  0.15890051  0.68165397  0.80011059  1  0  0.112514  0  0.955885  0  0  0.120405  0  1.019514  0  0  0.123061  0  1.019179  0  0.133865  0  0.107669  0.118087  0  1.020673  0
H  H16  1  0.38414418  0.82281441  0.22320813  1  0  0.114736  0  0.951781  0  0  0.123449  0  1.014598  0  0  0.126438  0  1.013167  0  0.121478  0  0.108249  0.121206  0  1.015886  0
H  H17  1  0.11585245  0.32281297  0.27679554  1  0  0.114667  0  0.951769  0  0  0.123382  0  1.014605  0  0  0.126372  0  1.013174  0  0.12102  0  0.108199  0.121139  0  1.015893  0
H  H18  1  0.61585269  0.17718848  0.77679267  1  0  0.114695  0  0.951752  0  0  0.123399  0  1.014601  0  0  0.126388  0  1.013169  0  0.121025  0  0.10822  0.121156  0  1.015887  0
H  H19  1  0.88414683  0.67718683  0.72320603  1  0  0.114693  0  0.95177  0  0  0.123403  0  1.014601  0  0  0.126392  0  1.013169  0  0.121039  0  0.108229  0.121159  0  1.015889  0
H  H20  1  0.63701529  0.00285814  0.10569006  1  0  0.117922  0  0.963025  0  0  0.126442  0  1.025498  0  0  0.129149  0  1.026168  0  0.105285  0  0.103749  0.124363  0  1.025393  0
H  H21  1  0.86298182  0.50285650  0.39430855  1  0  0.1179  0  0.962956  0  0  0.126427  0  1.025428  0  0  0.129134  0  1.026099  0  0.105314  0  0.103726  0.124347  0  1.025326  0
H  H22  1  0.36298399  0.99714166  0.89430884  1  0  0.117926  0  0.96293  0  0  0.126452  0  1.025404  0  0  0.129158  0  1.026074  0  0.105296  0  0.103741  0.124372  0  1.025301  0
H  H23  1  0.13701866  0.49714124  0.60568973  1  0  0.117934  0  0.962947  0  0  0.126459  0  1.025413  0  0  0.129166  0  1.026083  0  0.105333  0  0.103744  0.124379  0  1.025311  0
H  H24  1  0.91840029  0.98301955  0.17754458  1  0  0.108805  0  0.965322  0  0  0.113456  0  1.035773  0  0  0.116072  0  1.033678  0  0.11066  0  0.107113  0.111361  0  1.037712  0
H  H25  1  0.58159442  0.48301913  0.32245593  1  0  0.108811  0  0.965302  0  0  0.113465  0  1.035754  0  0  0.116075  0  1.033678  0  0.110657  0  0.107113  0.111369  0  1.037694  0
H  H26  1  0.08159538  0.01697923  0.82245483  1  0  0.108829  0  0.965285  0  0  0.11348  0  1.035729  0  0  0.11609  0  1.033652  0  0.110662  0  0.107112  0.111383  0  1.037668  0
H  H27  1  0.41840606  0.51697964  0.67754369  1  0  0.108768  0  0.965334  0  0  0.113436  0  1.035764  0  0  0.116045  0  1.033689  0  0.110676  0  0.107106  0.111345  0  1.037701  0
H  H28  1  0.79396733  0.31512065  0.92718543  1  0  0.123334  0  0.939127  0  0  0.135825  0  0.993678  0  0  0.138302  0  0.994003  0  0.087811  0  0.107518  0.134017  0  0.993553  0
H  H29  1  0.70603339  0.81512312  0.57281400  1  0  0.123273  0  0.939112  0  0  0.135764  0  0.993678  0  0  0.138241  0  0.994001  0  0.087813  0  0.107491  0.133957  0  0.993552  0
H  H30  1  0.20603195  0.68487709  0.07281413  1  0  0.123321  0  0.939159  0  0  0.135811  0  0.993725  0  0  0.13829  0  0.994043  0  0.08781  0  0.107521  0.134002  0  0.993599  0
H  H31  1  0.29397310  0.18487565  0.42718521  1  0  0.123326  0  0.939154  0  0  0.135859  0  0.993655  0  0  0.138351  0  0.993942  0  0.087767  0  0.107523  0.134051  0  0.99353  0
H  H32  1  0.52469415  0.24093948  0.93103839  1  0  0.391937  0  0.897289  0  0  0.363596  0  0.971706  0  0  0.374226  0  0.960509  0  0.664897  0  0.302562  0.355973  0  0.979715  0
H  H33  1  0.97530296  0.74094092  0.56896089  1  0  0.391925  0  0.897331  0  0  0.363603  0  0.971708  0  0  0.374231  0  0.960517  0  0.66491  0  0.30257  0.35598  0  0.979717  0
H  H34  1  0.47530393  0.75905929  0.06896180  1  0  0.39195  0  0.897299  0  0  0.363623  0  0.971681  0  0  0.37425  0  0.96049  0  0.664895  0  0.302573  0.356001  0  0.979689  0
H  H35  1  0.02469992  0.25905579  0.43103883  1  0  0.391934  0  0.897291  0  0  0.363605  0  0.971673  0  0  0.374231  0  0.960486  0  0.664696  0  0.302544  0.355983  0  0.979681  0
H  H36  1  0.37188443  0.26521417  0.25419115  1  0  0.097688  0  0.990418  0  0  0.099999  0  1.070031  0  0  0.103862  0  1.066009  0  0.101526  0  0.100207  0.09744  0  1.072627  0
H  H37  1  0.12811582  0.76521355  0.24580732  1  0  0.097676  0  0.990437  0  0  0.099981  0  1.07006  0  0  0.103846  0  1.066034  0  0.101532  0  0.100187  0.097422  0  1.072656  0
H  H38  1  0.62811485  0.73478872  0.74580842  1  0  0.097709  0  0.990418  0  0  0.100011  0  1.070039  0  0  0.103874  0  1.066011  0  0.101545  0  0.100209  0.097452  0  1.072635  0
H  H39  1  0.87188707  0.23478727  0.75419240  1  0  0.0977  0  0.99042  0  0  0.100014  0  1.070022  0  0  0.103879  0  1.065995  0  0.101474  0  0.100208  0.097456  0  1.072617  0
C  C40  1  0.66818848  0.03867233  0.31834120  1  0  -0.121085  0  3.729717  0  0  -0.089918  0  3.966352  0  0  -0.097496  0  3.988457  0  -0.205728  0  -0.01599  -0.085138  0  3.951318  0
C  C41  1  0.83180743  0.53867172  0.18165936  1  0  -0.121111  0  3.729695  0  0  -0.08994  0  3.96633  0  0  -0.097513  0  3.988435  0  -0.20556  0  -0.015997  -0.085159  0  3.951295  0
C  C42  1  0.33180959  0.96132850  0.68165631  1  0  -0.121177  0  3.729746  0  0  -0.09001  0  3.966371  0  0  -0.097584  0  3.988474  0  -0.205512  0  -0.016037  -0.08523  0  3.951338  0
C  C43  1  0.16819546  0.46132705  0.81834170  1  0  -0.121311  0  3.729919  0  0  -0.090128  0  3.966532  0  0  -0.097703  0  3.988639  0  -0.206174  0  -0.016021  -0.085345  0  3.951495  0
C  C44  1  0.58871477  0.16413354  0.30464355  1  0  -0.032502  0  3.729165  0  0  -0.056588  0  3.970981  0  0  -0.055505  0  3.990784  0  -0.012597  0  -0.078471  -0.057074  0  3.958261  0
C  C45  1  0.91128354  0.66413396  0.19535577  1  0  -0.032522  0  3.729146  0  0  -0.056592  0  3.970964  0  0  -0.055515  0  3.990765  0  -0.0129  0  -0.078497  -0.057078  0  3.958244  0
C  C46  1  0.41128451  0.83586728  0.69535535  1  0  -0.032438  0  3.729086  0  0  -0.056497  0  3.970877  0  0  -0.055418  0  3.990676  0  -0.012909  0  -0.078437  -0.056981  0  3.958154  0
C  C47  1  0.08871814  0.33586584  0.80464524  1  0  -0.032372  0  3.729191  0  0  -0.056419  0  3.970982  0  0  -0.05534  0  3.990789  0  -0.012625  0  -0.078455  -0.056905  0  3.958258  0
C  C48  1  0.43538786  0.16724460  0.26071254  1  0  -0.152065  0  3.73534  0  0  -0.165256  0  3.984143  0  0  -0.168711  0  4.002907  0  -0.008508  0  -0.092977  -0.162961  0  3.971774  0
C  C49  1  0.06460757  0.66724604  0.23928773  1  0  -0.152071  0  3.735343  0  0  -0.165271  0  3.984133  0  0  -0.168722  0  4.002892  0  -0.008485  0  -0.092953  -0.162976  0  3.971764  0
C  C50  1  0.56461142  0.83275520  0.73928702  1  0  -0.152122  0  3.735346  0  0  -0.165332  0  3.984145  0  0  -0.168778  0  4.002897  0  -0.008501  0  -0.093006  -0.163037  0  3.971776  0
C  C51  1  0.93539411  0.33275273  0.76071261  1  0  -0.152138  0  3.735309  0  0  -0.165325  0  3.984119  0  0  -0.168777  0  4.002877  0  -0.008717  0  -0.093  -0.163031  0  3.971749  0
C  C52  1  0.36152263  0.04358978  0.23028650  1  0  0.155194  0  3.845698  0  0  0.15692  0  4.10026  0  0  0.159771  0  4.12066  0  0.278267  0  0.086762  0.154841  0  4.086528  0
C  C53  1  0.13847641  0.54359122  0.26971527  1  0  0.15513  0  3.845648  0  0  0.156893  0  4.100166  0  0  0.159744  0  4.120564  0  0.27985  0  0.086767  0.154814  0  4.086433  0
C  C54  1  0.63847665  0.95641105  0.76971441  1  0  0.155184  0  3.845764  0  0  0.156957  0  4.100253  0  0  0.159809  0  4.120649  0  0.279865  0  0.086788  0.154878  0  4.08652  0
C  C55  1  0.86152407  0.45640652  0.73028569  1  0  0.155175  0  3.845552  0  0  0.15687  0  4.100184  0  0  0.15972  0  4.120583  0  0.279717  0  0.086759  0.154791  0  4.086451  0
C  C56  1  0.44128981  0.91787648  0.24696236  1  0  -0.124836  0  3.697766  0  0  -0.14808  0  3.959019  0  0  -0.150575  0  3.975821  0  -0.110907  0  -0.084049  -0.146473  0  3.948141  0
C  C57  1  0.05870682  0.41787812  0.25304131  1  0  -0.124667  0  3.697662  0  0  -0.147927  0  3.958901  0  0  -0.150419  0  3.975701  0  -0.11039  0  -0.083955  -0.146321  0  3.948025  0
C  C58  1  0.55870706  0.08212332  0.75303777  1  0  -0.12476  0  3.697707  0  0  -0.148012  0  3.958953  0  0  -0.150506  0  3.975757  0  -0.11042  0  -0.08402  -0.146404  0  3.948073  0
C  C59  1  0.94129126  0.58212065  0.74696088  1  0  -0.124693  0  3.697605  0  0  -0.147914  0  3.958853  0  0  -0.150406  0  3.975656  0  -0.110238  0  -0.083979  -0.146308  0  3.947977  0
C  C60  1  0.59518683  0.91526303  0.28956236  1  0  -0.045874  0  3.732869  0  0  -0.070992  0  3.979281  0  0  -0.069246  0  3.998606  0  0.087972  0  -0.082046  -0.071903  0  3.966749  0
C  C61  1  0.90480908  0.41526261  0.21043820  1  0  -0.04591  0  3.732888  0  0  -0.071053  0  3.9793  0  0  -0.069312  0  3.998624  0  0.087965  0  -0.082031  -0.07196  0  3.966773  0
C  C62  1  0.40481124  0.08473677  0.71043649  1  0  -0.045902  0  3.732853  0  0  -0.07104  0  3.979271  0  0  -0.069298  0  3.998602  0  0.087972  0  -0.082035  -0.071952  0  3.966741  0
C  C63  1  0.09519020  0.58473513  0.78956337  1  0  -0.045887  0  3.732819  0  0  -0.071034  0  3.979233  0  0  -0.069288  0  3.998545  0  0.087982  0  -0.082052  -0.071943  0  3.966708  0
C  C64  1  0.01339276  0.13437800  0.09005092  1  0  0.129661  0  3.835568  0  0  0.125739  0  4.0868  0  0  0.119658  0  4.11664  0  0.381818  0  0.074271  0.129767  0  4.066685  0
C  C65  1  0.48660628  0.63437739  0.40995018  1  0  0.129735  0  3.835426  0  0  0.125741  0  4.086767  0  0  0.119657  0  4.11661  0  0.381781  0  0.07426  0.129771  0  4.066646  0
C  C66  1  0.98660652  0.86562180  0.90994932  1  0  0.129704  0  3.835507  0  0  0.125776  0  4.086732  0  0  0.119696  0  4.11657  0  0.381768  0  0.074255  0.129804  0  4.066617  0
C  C67  1  0.51339540  0.36562035  0.59005150  1  0  0.129691  0  3.835532  0  0  0.125694  0  4.086876  0  0  0.119614  0  4.116715  0  0.381725  0  0.074203  0.129724  0  4.066758  0
C  C68  1  0.97718408  0.22796782  0.01959546  1  0  -0.09492  0  3.747413  0  0  -0.112776  0  3.997087  0  0  -0.112425  0  4.020223  0  0.068297  0  -0.079115  -0.113124  0  3.981534  0
C  C69  1  0.52281544  0.72796721  0.48040391  1  0  -0.094888  0  3.747434  0  0  -0.112701  0  3.9971  0  0  -0.112349  0  4.020237  0  0.068266  0  -0.079113  -0.113049  0  3.981545  0
C  C70  1  0.02281279  0.77203403  0.98040400  1  0  -0.094916  0  3.747478  0  0  -0.112754  0  3.997135  0  0  -0.112404  0  4.020271  0  0.068336  0  -0.079121  -0.113101  0  3.981581  0
C  C71  1  0.47719106  0.27203259  0.51959596  1  0  -0.094776  0  3.747601  0  0  -0.112601  0  3.997259  0  0  -0.112254  0  4.020402  0  0.068241  0  -0.079005  -0.112946  0  3.981703  0
C  C72  1  0.82209272  0.24017457  0.98021699  1  0  -0.182004  0  3.714439  0  0  -0.202971  0  3.963659  0  0  -0.212129  0  3.987059  0  -0.058108  0  -0.102358  -0.196603  0  3.94766  0
C  C73  1  0.67790680  0.74017601  0.51978105  1  0  -0.182011  0  3.714453  0  0  -0.202987  0  3.963684  0  0  -0.212145  0  3.987085  0  -0.058084  0  -0.10235  -0.196618  0  3.947682  0
C  C74  1  0.17790536  0.75982523  0.01978253  1  0  -0.182025  0  3.714525  0  0  -0.203003  0  3.963765  0  0  -0.212159  0  3.987165  0  -0.058081  0  -0.102371  -0.196633  0  3.947763  0
C  C75  1  0.32209970  0.25982174  0.48021815  1  0  -0.182092  0  3.714609  0  0  -0.203069  0  3.963797  0  0  -0.212224  0  3.987206  0  -0.057852  0  -0.102383  -0.196698  0  3.947794  0
C  C76  1  0.69934002  0.15879354  0.01213646  1  0  0.37546  0  3.765605  0  0  0.364326  0  4.024336  0  0  0.378522  0  4.040275  0  0.476595  0  0.099264  0.354194  0  4.013711  0
C  C77  1  0.80066070  0.65879499  0.48786230  1  0  0.375503  0  3.765585  0  0  0.364379  0  4.024317  0  0  0.378574  0  4.040255  0  0.4766  0  0.099306  0.354247  0  4.013691  0
C  C78  1  0.30065926  0.84120523  0.98786378  1  0  0.375458  0  3.765654  0  0  0.36432  0  4.024395  0  0  0.378515  0  4.040333  0  0.476533  0  0.099268  0.35419  0  4.01377  0
C  C79  1  0.19934339  0.34120276  0.51213681  1  0  0.37533  0  3.765609  0  0  0.36411  0  4.024471  0  0  0.378302  0  4.040415  0  0.476437  0  0.099177  0.353981  0  4.013842  0
C  C80  1  0.73490329  0.06406355  0.08249103  1  0  -0.173403  0  3.701756  0  0  -0.192862  0  3.955723  0  0  -0.202417  0  3.9785  0  0.026424  0  -0.097899  -0.186449  0  3.941145  0
C  C81  1  0.76509382  0.56406602  0.41750690  1  0  -0.173377  0  3.701579  0  0  -0.192865  0  3.955607  0  0  -0.202421  0  3.978387  0  0.026452  0  -0.097918  -0.186451  0  3.941027  0
C  C82  1  0.26509358  0.93593419  0.91750843  1  0  -0.173373  0  3.701668  0  0  -0.192862  0  3.955675  0  0  -0.202417  0  3.978453  0  0.026486  0  -0.097908  -0.186447  0  3.941095  0
C  C83  1  0.23490666  0.43593481  0.58249205  1  0  -0.173322  0  3.701505  0  0  -0.192778  0  3.955546  0  0  -0.202332  0  3.978324  0  0.026474  0  -0.097881  -0.186364  0  3.94097  0
C  C84  1  0.88984311  0.05221150  0.12129321  1  0  -0.091039  0  3.719892  0  0  -0.113114  0  3.974525  0  0  -0.111629  0  3.996826  0  -0.086221  0  -0.079645  -0.114393  0  3.960571  0
C  C85  1  0.61015280  0.55221295  0.37870668  1  0  -0.091053  0  3.719796  0  0  -0.113106  0  3.974461  0  0  -0.111624  0  3.996762  0  -0.086255  0  -0.079614  -0.114381  0  3.960503  0
C  C86  1  0.11015377  0.94778727  0.87870692  1  0  -0.091091  0  3.719946  0  0  -0.113144  0  3.974568  0  0  -0.111662  0  3.996867  0  -0.086243  0  -0.079626  -0.11442  0  3.960612  0
C  C87  1  0.38984888  0.44778583  0.62129232  1  0  -0.091029  0  3.719853  0  0  -0.113098  0  3.974534  0  0  -0.111615  0  3.996834  0  -0.086254  0  -0.079605  -0.114379  0  3.960582  0
S  S88  1  0.85772094  0.03340944  0.38130085  1  0  1.314577  0  5.608137  0  0  1.212462  0  6.119138  0  0  1.261586  0  6.096391  0  3.173727  0  0.516149  1.178712  0  6.132898  0
S  S89  1  0.64227738  0.53340986  0.11869981  1  0  1.314465  0  5.608083  0  0  1.212358  0  6.119076  0  0  1.261483  0  6.096324  0  3.174068  0  0.516065  1.178608  0  6.132838  0
S  S90  1  0.14227714  0.96659242  0.61869933  1  0  1.314432  0  5.608184  0  0  1.21231  0  6.119174  0  0  1.261435  0  6.096429  0  3.173742  0  0.516039  1.178562  0  6.132932  0
S  S91  1  0.35772431  0.46659097  0.88130053  1  0  1.314534  0  5.608124  0  0  1.212421  0  6.119107  0  0  1.261549  0  6.096355  0  3.174681  0  0.516086  1.178669  0  6.132871  0
N  N92  1  0.20777716  0.03733065  0.18567474  1  0  -0.132471  0  2.988211  0  0  -0.11032  0  3.259579  0  0  -0.109953  0  3.269025  0  -0.462848  0  -0.148956  -0.109895  0  3.252022  0
N  N93  1  0.29221948  0.53733004  0.31432625  1  0  -0.132458  0  2.988206  0  0  -0.110304  0  3.259555  0  0  -0.109936  0  3.268999  0  -0.46437  0  -0.148973  -0.10988  0  3.251998  0
N  N94  1  0.79222092  0.96267121  0.81432611  1  0  -0.132448  0  2.988195  0  0  -0.11031  0  3.25955  0  0  -0.109942  0  3.268994  0  -0.464468  0  -0.148952  -0.109886  0  3.251993  0
N  N95  1  0.70777980  0.46266976  0.68567465  1  0  -0.132456  0  2.988163  0  0  -0.110296  0  3.259537  0  0  -0.109928  0  3.268978  0  -0.464425  0  -0.148968  -0.109873  0  3.251981  0
N  N96  1  0.17205392  0.13157435  0.12840831  1  0  -0.157171  0  3.310786  0  0  -0.088199  0  3.602513  0  0  -0.091418  0  3.610729  0  -0.538302  0  -0.172813  -0.085528  0  3.595808  0
N  N97  1  0.32794512  0.63157271  0.37159212  1  0  -0.157225  0  3.310637  0  0  -0.088246  0  3.60239  0  0  -0.091464  0  3.610602  0  -0.538354  0  -0.172811  -0.085576  0  3.595684  0
N  N98  1  0.82794295  0.86842648  0.87159183  1  0  -0.157178  0  3.310621  0  0  -0.088211  0  3.602358  0  0  -0.09143  0  3.610571  0  -0.538272  0  -0.17278  -0.08554  0  3.595653  0
N  N99  1  0.67205897  0.36842709  0.62840832  1  0  -0.15722  0  3.310637  0  0  -0.088224  0  3.602378  0  0  -0.091443  0  3.610588  0  -0.538258  0  -0.172788  -0.085554  0  3.595674  0
O  O100  1  0.94875800  0.15569379  0.35542079  1  0  -0.669533  0  1.983885  0  0  -0.613316  0  2.233557  0  0  -0.634718  0  2.219641  0  -1.333879  0  -0.335617  -0.59784  0  2.242741  0
O  O101  1  0.55124031  0.65569318  0.14457987  1  0  -0.669486  0  1.983873  0  0  -0.613287  0  2.233555  0  0  -0.634687  0  2.219637  0  -1.333915  0  -0.335609  -0.59781  0  2.242738  0
O  O102  1  0.05124007  0.84430703  0.64457872  1  0  -0.669457  0  1.98388  0  0  -0.613268  0  2.233582  0  0  -0.634668  0  2.219665  0  -1.333881  0  -0.335599  -0.597793  0  2.242765  0
O  O103  1  0.44876498  0.34430970  0.85542129  1  0  -0.66951  0  1.983816  0  0  -0.613304  0  2.233513  0  0  -0.634706  0  2.219591  0  -1.333907  0  -0.335632  -0.597827  0  2.242698  0
O  O104  1  0.81937448  0.03630048  0.47606878  1  0  -0.675272  0  2.046125  0  0  -0.612036  0  2.326994  0  0  -0.635934  0  2.309249  0  -1.312415  0  -0.349828  -0.595033  0  2.338301  0
O  O105  1  0.68062143  0.53629884  0.02393245  1  0  -0.675278  0  2.046115  0  0  -0.612023  0  2.326967  0  0  -0.635921  0  2.309222  0  -1.312723  0  -0.349835  -0.595021  0  2.338275  0
O  O106  1  0.18061758  0.96370446  0.52393115  1  0  -0.675253  0  2.046164  0  0  -0.611985  0  2.327015  0  0  -0.635885  0  2.309276  0  -1.312421  0  -0.349826  -0.594982  0  2.338321  0
O  O107  1  0.31937664  0.46369993  0.97606840  1  0  -0.675249  0  2.046097  0  0  -0.612  0  2.326966  0  0  -0.635899  0  2.309221  0  -1.31271  0  -0.349828  -0.594997  0  2.338275  0
O  O108  1  0.93014165  0.90328658  0.35476701  1  0  -0.665228  0  2.082826  0  0  -0.597497  0  2.369719  0  0  -0.622487  0  2.353906  0  -1.315214  0  -0.343268  -0.579711  0  2.380455  0
O  O109  1  0.56985666  0.40328514  0.14523365  1  0  -0.665159  0  2.082797  0  0  -0.59744  0  2.369697  0  0  -0.62243  0  2.353885  0  -1.315192  0  -0.343192  -0.579656  0  2.380433  0
O  O110  1  0.06985763  0.09671527  0.64523457  1  0  -0.665173  0  2.082862  0  0  -0.597434  0  2.369745  0  0  -0.622426  0  2.353935  0  -1.315233  0  -0.343176  -0.579647  0  2.380479  0
O  O111  1  0.43014261  0.59671466  0.85476591  1  0  -0.665171  0  2.082859  0  0  -0.597447  0  2.369757  0  0  -0.622439  0  2.353944  0  -1.315212  0  -0.343189  -0.579663  0  2.380493  0
O  O112  1  0.54439660  0.16859451  0.97945171  1  0  -0.529631  0  2.192301  0  0  -0.468812  0  2.428004  0  0  -0.492033  0  2.417542  0  -1.175637  0  -0.339848  -0.452197  0  2.43505  0
O  O113  1  0.95560172  0.66859595  0.52054628  1  0  -0.529623  0  2.192383  0  0  -0.468822  0  2.428098  0  0  -0.492041  0  2.417638  0  -1.175669  0  -0.339858  -0.452209  0  2.435145  0
O  O114  1  0.45560028  0.83140426  0.02054775  1  0  -0.529645  0  2.192406  0  0  -0.468807  0  2.428093  0  0  -0.492031  0  2.417643  0  -1.175602  0  -0.339835  -0.452199  0  2.435142  0
O  O115  1  0.04440237  0.33140282  0.47945283  1  0  -0.529585  0  2.192413  0  0  -0.468719  0  2.428123  0  0  -0.491939  0  2.417668  0  -1.175354  0  -0.339785  -0.45211  0  2.43517  0
