# generated using pymatgen
data_UH22PbC36(N2O5)2
_symmetry_space_group_name_H-M   'P 1'
_cell_length_a   11.89458710
_cell_length_b   12.69492567
_cell_length_c   13.07567022
_cell_angle_alpha   60.88035021
_cell_angle_beta   79.60320775
_cell_angle_gamma   68.19233036
_symmetry_Int_Tables_number   1
_chemical_formula_structural   UH22PbC36(N2O5)2
_chemical_formula_sum   'U2 H44 Pb2 C72 N8 O20'
_cell_volume   1601.44040405
_cell_formula_units_Z   2
loop_
 _symmetry_equiv_pos_site_id
 _symmetry_equiv_pos_as_xyz
  1  'x, y, z'
loop_
 _atom_site_type_symbol
 _atom_site_label
 _atom_site_symmetry_multiplicity
 _atom_site_fract_x
 _atom_site_fract_y
 _atom_site_fract_z
 _atom_site_occupancy
 _atom_site_hle17_bader_spin_density
 _atom_site_hle17_ddec_charge
 _atom_site_hle17_ddec_spin_density
 _atom_site_hle17_ddec_sum_bond_order
 _atom_site_hle17_magmom
 _atom_site_hse06_10hf_bader_spin_density
 _atom_site_hse06_10hf_ddec_charge
 _atom_site_hse06_10hf_ddec_spin_density
 _atom_site_hse06_10hf_ddec_sum_bond_order
 _atom_site_hse06_10hf_magmom
 _atom_site_hse06_bader_spin_density
 _atom_site_hse06_ddec_charge
 _atom_site_hse06_ddec_spin_density
 _atom_site_hse06_ddec_sum_bond_order
 _atom_site_hse06_magmom
 _atom_site_pbe_bader_charge
 _atom_site_pbe_bader_spin_density
 _atom_site_pbe_cm5_charge
 _atom_site_pbe_ddec_charge
 _atom_site_pbe_ddec_spin_density
 _atom_site_pbe_ddec_sum_bond_order
 _atom_site_pbe_magmom
U  U0  1  0.50000853  0.99999924  0.99999285  1  0  2.439001  0  4.083005  0  0  2.498979  0  4.728394  0  0  2.611385  0  4.692545  0  2.902131  0  2.136782  2.420644  0  4.753144  0
U  U1  1  0.99998769  0.00000998  0.99999131  1  0  2.437366  0  4.081881  0  0  2.496797  0  4.727476  0  0  2.609058  0  4.691765  0  2.90345  0  2.136544  2.418006  0  4.752872  0
H  H2  1  0.82359121  0.30923137  0.14294823  1  0  0.098839  0  0.947529  0  0  0.109222  0  1.011663  0  0  0.112752  0  1.009644  0  0.058636  0  0.102105  0.106661  0  1.01325  0
H  H3  1  0.67639645  0.54768037  0.14291319  1  0  0.098621  0  0.947976  0  0  0.109265  0  1.011527  0  0  0.112848  0  1.009479  0  0.063904  0  0.102231  0.10667  0  1.013134  0
H  H4  1  0.17640754  0.69076731  0.85705282  1  0  0.098794  0  0.947593  0  0  0.109182  0  1.011728  0  0  0.112711  0  1.009711  0  0.058615  0  0.1021  0.106621  0  1.013314  0
H  H5  1  0.32360260  0.45231776  0.85708745  1  0  0.098683  0  0.947887  0  0  0.109318  0  1.01145  0  0  0.112903  0  1.0094  0  0.063894  0  0.102247  0.106723  0  1.013057  0
H  H6  1  0.55159303  0.42527934  0.83182371  1  0  0.092685  0  0.956518  0  0  0.10252  0  1.019837  0  0  0.106217  0  1.017143  0  0.086015  0  0.101835  0.099846  0  1.021801  0
H  H7  1  0.94848852  0.74310454  0.83189141  1  0  0.093092  0  0.955987  0  0  0.102566  0  1.019743  0  0  0.106343  0  1.017008  0  0.08079  0  0.101187  0.099836  0  1.021761  0
H  H8  1  0.44840456  0.57472004  0.16817760  1  0  0.092669  0  0.956528  0  0  0.102493  0  1.019854  0  0  0.106192  0  1.017154  0  0.086375  0  0.101821  0.0998  0  1.021841  0
H  H9  1  0.05150968  0.25689296  0.16810985  1  0  0.093086  0  0.955956  0  0  0.102556  0  1.01973  0  0  0.106334  0  1.016994  0  0.080738  0  0.10117  0.099835  0  1.021738  0
H  H10  1  0.62851849  0.58917185  0.82212889  1  0  0.087161  0  0.980251  0  0  0.095447  0  1.048178  0  0  0.098226  0  1.048008  0  0.069392  0  0.094084  0.093476  0  1.048384  0
H  H11  1  0.87144101  0.58894056  0.82236400  1  0  0.088252  0  0.981371  0  0  0.096335  0  1.04917  0  0  0.099148  0  1.048965  0  0.085779  0  0.094436  0.094354  0  1.049373  0
H  H12  1  0.37148112  0.41082669  0.17787229  1  0  0.087156  0  0.980274  0  0  0.095447  0  1.048197  0  0  0.098225  0  1.048028  0  0.06936  0  0.094076  0.093476  0  1.048406  0
H  H13  1  0.12855919  0.41105611  0.17763715  1  0  0.088278  0  0.981358  0  0  0.096362  0  1.049155  0  0  0.099176  0  1.048949  0  0.085796  0  0.094448  0.094377  0  1.049361  0
H  H14  1  0.51217715  0.75560964  0.29089360  1  0  0.100486  0  0.961368  0  0  0.105313  0  1.027902  0  0  0.109028  0  1.02386  0  0.128669  0  0.126915  0.102587  0  1.030818  0
H  H15  1  0.98790195  0.95374663  0.29068543  1  0  0.099932  0  0.962699  0  0  0.105734  0  1.028175  0  0  0.109422  0  1.024151  0  0.148988  0  0.127025  0.102983  0  1.031123  0
H  H16  1  0.48782386  0.24439071  0.70910673  1  0  0.10049  0  0.961374  0  0  0.105296  0  1.027935  0  0  0.10901  0  1.023895  0  0.12865  0  0.126899  0.10257  0  1.03085  0
H  H17  1  0.01210052  0.04625400  0.70931271  1  0  0.099953  0  0.962744  0  0  0.105752  0  1.02823  0  0  0.10944  0  1.024206  0  0.149003  0  0.12704  0.103003  0  1.031179  0
H  H18  1  0.38144461  0.62274017  0.41140599  1  0  0.100464  0  0.964365  0  0  0.11265  0  1.021145  0  0  0.115183  0  1.021299  0  0.071394  0  0.109138  0.110887  0  1.021099  0
H  H19  1  0.11854337  0.96603712  0.41122180  1  0  0.099764  0  0.965061  0  0  0.11195  0  1.021882  0  0  0.114479  0  1.022083  0  0.04801  0  0.108032  0.110173  0  1.021855  0
H  H20  1  0.61855610  0.37726073  0.58859474  1  0  0.100518  0  0.964256  0  0  0.112682  0  1.021066  0  0  0.115215  0  1.021219  0  0.071343  0  0.109164  0.110918  0  1.021016  0
H  H21  1  0.88145995  0.03396337  0.58877648  1  0  0.099755  0  0.965078  0  0  0.111953  0  1.021885  0  0  0.114482  0  1.022087  0  0.04801  0  0.108047  0.110176  0  1.021854  0
H  H22  1  0.34398583  0.57731196  0.62258083  1  0  0.096726  0  0.935007  0  0  0.109976  0  0.990906  0  0  0.112453  0  0.989512  0  0.098643  0  0.108396  0.108129  0  0.991978  0
H  H23  1  0.15587952  0.80003471  0.62246383  1  0  0.097814  0  0.938271  0  0  0.111499  0  0.993551  0  0  0.113927  0  0.992209  0  0.093379  0  0.109422  0.109584  0  0.994705  0
H  H24  1  0.65601518  0.42268763  0.37742027  1  0  0.096729  0  0.934965  0  0  0.10996  0  0.990882  0  0  0.112437  0  0.989487  0  0.098508  0  0.108385  0.108113  0  0.991955  0
H  H25  1  0.84412380  0.19996502  0.37753522  1  0  0.097813  0  0.938321  0  0  0.111504  0  0.993593  0  0  0.113931  0  0.992252  0  0.093242  0  0.109421  0.109603  0  0.994729  0
H  H26  1  0.43256468  0.67402804  0.70041330  1  0  0.106923  0  0.957465  0  0  0.118601  0  1.016872  0  0  0.121419  0  1.016225  0  0.056708  0  0.108902  0.116583  0  1.017466  0
H  H27  1  0.06733240  0.62528317  0.70058383  1  0  0.107035  0  0.957099  0  0  0.118969  0  1.01612  0  0  0.121789  0  1.015455  0  0.108692  0  0.109171  0.116956  0  1.016709  0
H  H28  1  0.56743663  0.32597022  0.29958817  1  0  0.106947  0  0.957431  0  0  0.118604  0  1.016869  0  0  0.121422  0  1.016222  0  0.056723  0  0.108908  0.116585  0  1.017459  0
H  H29  1  0.93266805  0.37471829  0.29941443  1  0  0.107042  0  0.957085  0  0  0.118981  0  1.016099  0  0  0.121799  0  1.015437  0  0.108727  0  0.109161  0.116969  0  1.016686  0
H  H30  1  0.46414038  0.80198268  0.73221709  1  0  0.11118  0  0.982528  0  0  0.118809  0  1.046747  0  0  0.122291  0  1.045173  0  0.145024  0  0.106128  0.116232  0  1.048121  0
H  H31  1  0.03571812  0.46574597  0.73226047  1  0  0.110518  0  0.981675  0  0  0.118452  0  1.045964  0  0  0.12196  0  1.044364  0  0.146293  0  0.10595  0.115875  0  1.047292  0
H  H32  1  0.53585922  0.19801586  0.26778409  1  0  0.111172  0  0.982584  0  0  0.118802  0  1.046796  0  0  0.122282  0  1.045224  0  0.145075  0  0.106128  0.116226  0  1.048168  0
H  H33  1  0.96428290  0.53425744  0.26773680  1  0  0.110571  0  0.981661  0  0  0.11847  0  1.04599  0  0  0.12198  0  1.044387  0  0.146285  0  0.105956  0.115893  0  1.047318  0
H  H34  1  0.56624561  0.89660661  0.79888394  1  0  0.111728  0  0.981156  0  0  0.121681  0  1.040029  0  0  0.124459  0  1.037985  0  0.154704  0  0.117016  0.119722  0  1.041485  0
H  H35  1  0.93370909  0.30422264  0.79904911  1  0  0.110617  0  0.982891  0  0  0.120708  0  1.041836  0  0  0.123441  0  1.039863  0  0.16229  0  0.116578  0.11873  0  1.043338  0
H  H36  1  0.43375228  0.10339222  0.20111696  1  0  0.111768  0  0.981144  0  0  0.1217  0  1.040049  0  0  0.124479  0  1.038004  0  0.154737  0  0.117023  0.119742  0  1.041504  0
H  H37  1  0.06629193  0.69577924  0.20094970  1  0  0.110615  0  0.982864  0  0  0.12072  0  1.041794  0  0  0.123453  0  1.03982  0  0.162339  0  0.11658  0.118741  0  1.043297  0
H  H38  1  0.72581415  0.98329669  0.67516653  1  0  0.107684  0  0.945092  0  0  0.121108  0  0.998103  0  0  0.123911  0  0.997415  0  0.085581  0  0.111823  0.119101  0  0.99879  0
H  H39  1  0.77422300  0.34136365  0.67525877  1  0  0.108241  0  0.9436  0  0  0.121641  0  0.996485  0  0  0.124421  0  0.995803  0  0.084851  0  0.112815  0.11962  0  0.997177  0
H  H40  1  0.27418515  0.01670394  0.32483353  1  0  0.107662  0  0.945088  0  0  0.121092  0  0.998095  0  0  0.123896  0  0.997406  0  0.085602  0  0.111829  0.119087  0  0.998781  0
H  H41  1  0.22577857  0.65863787  0.32474134  1  0  0.108246  0  0.943548  0  0  0.121635  0  0.996446  0  0  0.12443  0  0.995746  0  0.08482  0  0.112813  0.119616  0  0.997137  0
H  H42  1  0.78062207  0.96903938  0.48408039  1  0  0.075471  0  0.961709  0  0  0.083575  0  1.029219  0  0  0.085864  0  1.02756  0  0.136392  0  0.11162  0.081822  0  1.030566  0
H  H43  1  0.71940945  0.54700785  0.48400301  1  0  0.075694  0  0.960469  0  0  0.083731  0  1.028157  0  0  0.086054  0  1.026392  0  0.100021  0  0.111787  0.081955  0  1.029575  0
H  H44  1  0.21937865  0.03096076  0.51592111  1  0  0.075458  0  0.96169  0  0  0.083564  0  1.029198  0  0  0.085849  0  1.02755  0  0.13638  0  0.111612  0.081811  0  1.030544  0
H  H45  1  0.28059101  0.45299362  0.51599525  1  0  0.07566  0  0.96049  0  0  0.083704  0  1.028177  0  0  0.086027  0  1.026412  0  0.100028  0  0.11178  0.081927  0  1.029596  0
Pb  Pb46  1  0.74992733  0.83802877  0.32400085  1  0  1.273294  0  1.422371  0  0  1.063421  0  1.810203  0  0  1.126151  0  1.77258  0  1.404973  0  0.663384  1.018172  0  1.836476  0
Pb  Pb47  1  0.25007168  0.16197088  0.67600113  1  0  1.273281  0  1.422393  0  0  1.06339  0  1.810236  0  0  1.126119  0  1.772611  0  1.405009  0  0.663382  1.018141  0  1.83651  0
C  C48  1  0.72874519  0.46050016  0.98353238  1  0  0.069093  0  3.786408  0  0  0.084069  0  4.020444  0  0  0.085302  0  4.043419  0  0.001684  0  -0.000462  0.083339  0  4.00473  0
C  C49  1  0.77119284  0.55610511  0.98358669  1  0  0.069913  0  3.787375  0  0  0.084229  0  4.021832  0  0  0.085471  0  4.04484  0  -0.09579  0  -0.002014  0.083462  0  4.006133  0
C  C50  1  0.27125240  0.53949922  0.01646893  1  0  0.069186  0  3.78635  0  0  0.084097  0  4.020394  0  0  0.08533  0  4.043369  0  0.001655  0  -0.000379  0.083368  0  4.00468  0
C  C51  1  0.22880732  0.44389231  0.01641657  1  0  0.06981  0  3.787495  0  0  0.084296  0  4.021735  0  0  0.085546  0  4.044732  0  -0.09577  0  -0.002056  0.083529  0  4.006037  0
C  C52  1  0.76272173  0.33565426  0.07495630  1  0  -0.130479  0  3.709783  0  0  -0.161463  0  3.961266  0  0  -0.164815  0  3.980407  0  -0.033328  0  -0.084105  -0.159236  0  3.948407  0
C  C53  1  0.73728965  0.58934818  0.07496644  1  0  -0.132104  0  3.709317  0  0  -0.162598  0  3.961065  0  0  -0.166033  0  3.9802  0  0.03037  0  -0.084302  -0.160298  0  3.948268  0
C  C54  1  0.23727441  0.66434636  0.92504567  1  0  -0.130336  0  3.7098  0  0  -0.16131  0  3.961326  0  0  -0.164664  0  3.980471  0  -0.03319  0  -0.084051  -0.159083  0  3.948465  0
C  C55  1  0.26271081  0.41064793  0.92503718  1  0  -0.132129  0  3.709152  0  0  -0.162654  0  3.960878  0  0  -0.166092  0  3.980009  0  0.030477  0  -0.084284  -0.160355  0  3.948082  0
C  C56  1  0.72539715  0.24245833  0.07733046  1  0  -0.032876  0  3.709749  0  0  -0.021583  0  3.945181  0  0  -0.023083  0  3.962625  0  0.00288  0  0.007073  -0.020609  0  3.933512  0
C  C57  1  0.77465263  0.68013779  0.07736392  1  0  -0.033478  0  3.709163  0  0  -0.024034  0  3.9464  0  0  -0.025502  0  3.963887  0  -0.057753  0  0.006229  -0.023187  0  3.93488  0
C  C58  1  0.27459724  0.75754333  0.92267333  1  0  -0.033059  0  3.709776  0  0  -0.021841  0  3.945282  0  0  -0.023344  0  3.962718  0  0.002771  0  0.00703  -0.020868  0  3.933618  0
C  C59  1  0.22534898  0.31985762  0.92263944  1  0  -0.033329  0  3.709051  0  0  -0.023954  0  3.946354  0  0  -0.025425  0  3.963852  0  -0.057748  0  0.006208  -0.023106  0  3.934831  0
C  C60  1  0.64627102  0.27627437  0.99012678  1  0  -0.065267  0  3.714251  0  0  -0.049149  0  3.939168  0  0  -0.055978  0  3.958774  0  -0.03198  0  -0.006961  -0.044832  0  3.926166  0
C  C61  1  0.85378809  0.73361933  0.99014813  1  0  -0.063885  0  3.714446  0  0  -0.047105  0  3.939209  0  0  -0.053914  0  3.95884  0  0.050246  0  -0.006731  -0.042772  0  3.926217  0
C  C62  1  0.35372427  0.72372640  0.00987505  1  0  -0.064963  0  3.713951  0  0  -0.0489  0  3.938962  0  0  -0.055713  0  3.958552  0  -0.032378  0  -0.006987  -0.04458  0  3.925956  0
C  C63  1  0.14621297  0.26637567  0.00985469  1  0  -0.064186  0  3.714641  0  0  -0.047375  0  3.939379  0  0  -0.05419  0  3.959027  0  0.050168  0  -0.006784  -0.043037  0  3.926389  0
C  C64  1  0.61209691  0.40145227  0.89892678  1  0  -0.052852  0  3.742757  0  0  -0.077975  0  3.994942  0  0  -0.076806  0  4.013703  0  -0.002075  0  -0.080066  -0.078491  0  3.982135  0
C  C65  1  0.88793153  0.69981950  0.89899658  1  0  -0.051325  0  3.740193  0  0  -0.076111  0  3.992118  0  0  -0.075054  0  4.010858  0  -0.092007  0  -0.078569  -0.076573  0  3.979318  0
C  C66  1  0.38790039  0.59854767  0.10107492  1  0  -0.052899  0  3.742675  0  0  -0.077981  0  3.994835  0  0  -0.076815  0  4.013596  0  -0.002765  0  -0.080067  -0.078481  0  3.982033  0
C  C67  1  0.11206952  0.30017627  0.10100548  1  0  -0.051228  0  3.740266  0  0  -0.076031  0  3.99222  0  0  -0.074972  0  4.010957  0  -0.091919  0  -0.078568  -0.076504  0  3.979416  0
C  C68  1  0.65451296  0.49221122  0.89384011  1  0  -0.114072  0  3.738883  0  0  -0.135782  0  3.991396  0  0  -0.139181  0  4.011852  0  -0.068303  0  -0.091884  -0.133484  0  3.97741  0
C  C69  1  0.84545543  0.61416751  0.89396037  1  0  -0.116172  0  3.741461  0  0  -0.137457  0  3.993781  0  0  -0.140889  0  4.014268  0  0.008717  0  -0.091087  -0.135132  0  3.979805  0
C  C70  1  0.34548549  0.50778725  0.10616210  1  0  -0.114078  0  3.738865  0  0  -0.135793  0  3.991374  0  0  -0.139198  0  4.01184  0  -0.067852  0  -0.09187  -0.133495  0  3.977383  0
C  C71  1  0.15454593  0.38582693  0.10604205  1  0  -0.11618  0  3.741557  0  0  -0.137516  0  3.993843  0  0  -0.140949  0  4.014328  0  0.008676  0  -0.091076  -0.135184  0  3.979874  0
C  C72  1  0.77488643  0.10866852  0.17343840  1  0  0.678061  0  3.885165  0  0  0.635657  0  4.176805  0  0  0.673334  0  4.16422  0  1.605304  0  0.227518  0.609751  0  4.184448  0
C  C73  1  0.72517462  0.71774020  0.17339175  1  0  0.678976  0  3.886458  0  0  0.637884  0  4.176229  0  0  0.675477  0  4.163805  0  1.608017  0  0.227505  0.612069  0  4.183802  0
C  C74  1  0.22510856  0.89133510  0.82656153  1  0  0.67799  0  3.885221  0  0  0.635706  0  4.176707  0  0  0.673381  0  4.164127  0  1.605352  0  0.227561  0.609799  0  4.184351  0
C  C75  1  0.27482554  0.28225799  0.82661074  1  0  0.678946  0  3.886451  0  0  0.637912  0  4.176145  0  0  0.675507  0  4.163723  0  1.607978  0  0.227533  0.612095  0  4.183719  0
C  C76  1  0.59499813  0.18399740  0.99373069  1  0  0.642845  0  3.887167  0  0  0.601102  0  4.190312  0  0  0.637975  0  4.182219  0  1.533772  0  0.209623  0.576091  0  4.194681  0
C  C77  1  0.90507830  0.82227302  0.99371307  1  0  0.638956  0  3.89361  0  0  0.597309  0  4.196471  0  0  0.634186  0  4.188476  0  1.537981  0  0.209143  0.572291  0  4.200733  0
C  C78  1  0.40500635  0.81599933  0.00627039  1  0  0.642665  0  3.887284  0  0  0.600944  0  4.190434  0  0  0.637811  0  4.182352  0  1.533991  0  0.209581  0.575932  0  4.194802  0
C  C79  1  0.09491648  0.17773117  0.00628151  1  0  0.639125  0  3.893744  0  0  0.597517  0  4.196518  0  0  0.634398  0  4.188517  0  1.537849  0  0.209209  0.572494  0  4.200783  0
C  C80  1  0.49304345  0.73469878  0.38225629  1  0  0.141078  0  3.692706  0  0  0.111411  0  3.946639  0  0  0.11897  0  3.962424  0  0.519887  0  0.060919  0.106514  0  3.935839  0
C  C81  1  0.00700463  0.88322307  0.38210563  1  0  0.13924  0  3.69306  0  0  0.108753  0  3.947036  0  0  0.116346  0  3.962789  0  0.520101  0  0.059637  0.103878  0  3.936221  0
C  C82  1  0.50695727  0.26530212  0.61774445  1  0  0.14094  0  3.692824  0  0  0.111285  0  3.946753  0  0  0.118845  0  3.96254  0  0.519697  0  0.060854  0.106389  0  3.935953  0
C  C83  1  0.99299783  0.11677603  0.61789405  1  0  0.139152  0  3.693109  0  0  0.108649  0  3.947117  0  0  0.116243  0  3.962871  0  0.520098  0  0.059585  0.103772  0  3.936302  0
C  C84  1  0.41957782  0.66112885  0.44994299  1  0  -0.123059  0  3.738989  0  0  -0.135166  0  3.987943  0  0  -0.142495  0  4.010604  0  -0.044902  0  -0.083905  -0.130384  0  3.972555  0
C  C85  1  0.08044443  0.88899830  0.44979826  1  0  -0.122107  0  3.735605  0  0  -0.134176  0  3.984694  0  0  -0.141518  0  4.007319  0  0.025277  0  -0.082233  -0.129376  0  3.96927  0
C  C86  1  0.58042405  0.33887136  0.55005749  1  0  -0.123065  0  3.738923  0  0  -0.135154  0  3.987868  0  0  -0.142485  0  4.010528  0  -0.044769  0  -0.083924  -0.130371  0  3.972479  0
C  C87  1  0.91955919  0.11100164  0.55019962  1  0  -0.122043  0  3.735582  0  0  -0.134119  0  3.984692  0  0  -0.141462  0  4.007319  0  0.025357  0  -0.082229  -0.129321  0  3.969274  0
C  C88  1  0.39891180  0.63689469  0.56653604  1  0  -0.014051  0  3.754667  0  0  -0.030658  0  4.002237  0  0  -0.027911  0  4.022432  0  -0.076259  0  -0.067438  -0.032131  0  3.988351  0
C  C89  1  0.10102472  0.79648116  0.56646374  1  0  -0.01333  0  3.755838  0  0  -0.030442  0  4.00364  0  0  -0.027635  0  4.023862  0  -0.099287  0  -0.067971  -0.03187  0  3.989729  0
C  C90  1  0.60109036  0.36310419  0.43346480  1  0  -0.014011  0  3.754538  0  0  -0.030587  0  4.002069  0  0  -0.027838  0  4.022263  0  -0.076073  0  -0.067414  -0.03206  0  3.988184  0
C  C91  1  0.89897660  0.20351940  0.43353543  1  0  -0.013364  0  3.755911  0  0  -0.030484  0  4.003724  0  0  -0.027677  0  4.023947  0  -0.09916  0  -0.067987  -0.031924  0  3.989814  0
C  C92  1  0.44928566  0.69008016  0.61019870  1  0  -0.145824  0  3.703118  0  0  -0.162617  0  3.948329  0  0  -0.169904  0  3.969649  0  -0.001099  0  -0.079857  -0.15793  0  3.934  0
C  C93  1  0.05063455  0.69954903  0.61028459  1  0  -0.148317  0  3.697799  0  0  -0.165028  0  3.943465  0  0  -0.172297  0  3.964712  0  -0.074797  0  -0.081128  -0.160357  0  3.929162  0
C  C94  1  0.55071651  0.30991796  0.38980291  1  0  -0.145932  0  3.703044  0  0  -0.16269  0  3.948312  0  0  -0.169974  0  3.969633  0  -0.000849  0  -0.079861  -0.157998  0  3.93398  0
C  C95  1  0.94936676  0.30045229  0.38971381  1  0  -0.148353  0  3.697891  0  0  -0.16507  0  3.943555  0  0  -0.172339  0  3.9648  0  -0.074833  0  -0.081134  -0.160399  0  3.929258  0
C  C96  1  0.52213333  0.76372806  0.53674354  1  0  0.178696  0  3.769414  0  0  0.172921  0  4.014857  0  0  0.180142  0  4.035433  0  0.524554  0  0.124226  0.168139  0  4.00083  0
C  C97  1  0.97782218  0.69953528  0.53675319  1  0  0.177214  0  3.768027  0  0  0.170676  0  4.014337  0  0  0.177898  0  4.034846  0  0.533791  0  0.122712  0.165911  0  4.000327  0
C  C98  1  0.47786884  0.23627006  0.46325807  1  0  0.178837  0  3.769255  0  0  0.172962  0  4.014814  0  0  0.180176  0  4.035398  0  0.524527  0  0.124244  0.168177  0  4.000788  0
C  C99  1  0.02217883  0.30046736  0.46324485  1  0  0.177214  0  3.768202  0  0  0.17069  0  4.01448  0  0  0.177914  0  4.034987  0  0.533986  0  0.122722  0.165925  0  4.00047  0
C  C100  1  0.57754246  0.82361063  0.57814203  1  0  0.175803  0  3.748306  0  0  0.169697  0  3.992465  0  0  0.176691  0  4.012189  0  0.495253  0  0.120878  0.165054  0  3.979021  0
C  C101  1  0.92234181  0.59831281  0.57810526  1  0  0.178234  0  3.750668  0  0  0.173043  0  3.993572  0  0  0.180073  0  4.013288  0  0.483862  0  0.122825  0.168366  0  3.98015  0
C  C102  1  0.42245800  0.17638777  0.42185930  1  0  0.175764  0  3.748305  0  0  0.169731  0  3.992406  0  0  0.176725  0  4.012129  0  0.494987  0  0.12088  0.165086  0  3.978962  0
C  C103  1  0.07765865  0.40168789  0.42189377  1  0  0.178233  0  3.750798  0  0  0.173071  0  3.993651  0  0  0.180101  0  4.013369  0  0.48395  0  0.122867  0.168396  0  3.980229  0
C  C104  1  0.53960859  0.83247802  0.68237751  1  0  -0.139838  0  3.69068  0  0  -0.155448  0  3.936962  0  0  -0.162002  0  3.956308  0  -0.096274  0  -0.07798  -0.151266  0  3.924067  0
C  C105  1  0.96025814  0.48508584  0.68244249  1  0  -0.13911  0  3.693873  0  0  -0.155514  0  3.940095  0  0  -0.162148  0  3.959531  0  -0.099566  0  -0.077266  -0.151286  0  3.927154  0
C  C106  1  0.46039186  0.16752115  0.31762305  1  0  -0.139852  0  3.690727  0  0  -0.155468  0  3.936989  0  0  -0.162019  0  3.956335  0  -0.096284  0  -0.077981  -0.151285  0  3.924095  0
C  C107  1  0.03974172  0.51491749  0.31755581  1  0  -0.139189  0  3.693807  0  0  -0.155583  0  3.940049  0  0  -0.162218  0  3.959484  0  -0.099521  0  -0.077281  -0.151356  0  3.927108  0
C  C108  1  0.59425912  0.88836482  0.71855286  1  0  0.007598  0  3.690677  0  0  -0.010623  0  3.936554  0  0  -0.007856  0  3.955271  0  0.012585  0  -0.061037  -0.012099  0  3.9236  0
C  C109  1  0.90569575  0.39291450  0.71861438  1  0  0.01105  0  3.691905  0  0  -0.007392  0  3.937721  0  0  -0.004566  0  3.956448  0  0.017591  0  -0.059464  -0.008885  0  3.924779  0
C  C110  1  0.40574078  0.11163316  0.28144793  1  0  0.007536  0  3.69056  0  0  -0.010687  0  3.936457  0  0  -0.00792  0  3.955173  0  0.012601  0  -0.061086  -0.012162  0  3.923504  0
C  C111  1  0.09430612  0.60708724  0.28138457  1  0  0.011176  0  3.691797  0  0  -0.007275  0  3.937604  0  0  -0.00445  0  3.956333  0  0.017554  0  -0.059404  -0.008769  0  3.924665  0
C  C112  1  0.68369514  0.93727102  0.64882255  1  0  -0.107107  0  3.719016  0  0  -0.121974  0  3.973187  0  0  -0.128812  0  3.99492  0  -0.066297  0  -0.078152  -0.117483  0  3.958374  0
C  C113  1  0.81631883  0.41382318  0.64882030  1  0  -0.109882  0  3.713688  0  0  -0.124544  0  3.967795  0  0  -0.131376  0  3.989504  0  -0.028267  0  -0.080421  -0.120021  0  3.95302  0
C  C114  1  0.31630446  0.06272829  0.35117787  1  0  -0.107017  0  3.71885  0  0  -0.121871  0  3.973013  0  0  -0.12871  0  3.994744  0  -0.066359  0  -0.078127  -0.117381  0  3.958199  0
C  C115  1  0.18368132  0.58617807  0.35117913  1  0  -0.109979  0  3.713714  0  0  -0.124629  0  3.967834  0  0  -0.131471  0  3.98954  0  -0.028277  0  -0.080468  -0.120107  0  3.953063  0
C  C116  1  0.71466121  0.92841979  0.54475887  1  0  0.123066  0  3.72775  0  0  0.090144  0  3.986436  0  0  0.097106  0  4.005305  0  0.439393  0  0.043572  0.085586  0  3.973548  0
C  C117  1  0.78535134  0.52689533  0.54467414  1  0  0.12225  0  3.722586  0  0  0.089302  0  3.981395  0  0  0.096289  0  4.000273  0  0.466901  0  0.041934  0.08473  0  3.968495  0
C  C118  1  0.28533981  0.07157979  0.45524223  1  0  0.123106  0  3.727714  0  0  0.090176  0  3.986403  0  0  0.097138  0  4.005269  0  0.439417  0  0.043609  0.08562  0  3.973514  0
C  C119  1  0.21464912  0.47310614  0.45532412  1  0  0.122324  0  3.722583  0  0  0.08936  0  3.981391  0  0  0.096346  0  4.000275  0  0.466464  0  0.041956  0.084788  0  3.968493  0
N  N120  1  0.54453258  0.78284913  0.42517961  1  0  -0.372251  0  3.187923  0  0  -0.30823  0  3.440605  0  0  -0.327265  0  3.461159  0  -1.220555  0  -0.293604  -0.295073  0  3.426284  0
N  N121  1  0.95550631  0.79208766  0.42511419  1  0  -0.369714  0  3.189852  0  0  -0.305742  0  3.443377  0  0  -0.324722  0  3.463827  0  -1.251025  0  -0.292336  -0.292617  0  3.429081  0
N  N122  1  0.45546844  0.21715045  0.57482149  1  0  -0.372227  0  3.187936  0  0  -0.308174  0  3.440644  0  0  -0.327207  0  3.461202  0  -1.220579  0  -0.293581  -0.295015  0  3.426322  0
N  N123  1  0.04449586  0.20791429  0.57488359  1  0  -0.369662  0  3.189912  0  0  -0.305724  0  3.443495  0  0  -0.324704  0  3.463943  0  -1.251408  0  -0.292345  -0.2926  0  3.429202  0
N  N124  1  0.66409219  0.87180782  0.51081146  1  0  -0.36046  0  3.204799  0  0  -0.291456  0  3.454308  0  0  -0.311353  0  3.476674  0  -1.209453  0  -0.292379  -0.277687  0  3.438732  0
N  N125  1  0.83590989  0.61753821  0.51066427  1  0  -0.361473  0  3.204366  0  0  -0.292475  0  3.453489  0  0  -0.312425  0  3.475841  0  -1.234708  0  -0.292484  -0.278677  0  3.437933  0
N  N126  1  0.33590912  0.12819120  0.48918924  1  0  -0.360515  0  3.204896  0  0  -0.291512  0  3.454393  0  0  -0.311407  0  3.476757  0  -1.209427  0  -0.292395  -0.277742  0  3.438817  0
N  N127  1  0.16409027  0.38246381  0.48933440  1  0  -0.361458  0  3.204306  0  0  -0.292475  0  3.453474  0  0  -0.312423  0  3.475819  0  -1.234256  0  -0.292512  -0.278678  0  3.437918  0
O  O128  1  0.61649405  0.97493727  0.89589091  1  0  -0.710364  0  1.564768  0  0  -0.715416  0  1.847005  0  0  -0.735609  0  1.834866  0  -0.879306  0  -0.76233  -0.703537  0  1.855988  0
O  O129  1  0.88343054  0.12926694  0.89581966  1  0  -0.709226  0  1.566813  0  0  -0.714194  0  1.849373  0  0  -0.734338  0  1.837234  0  -0.87909  0  -0.76193  -0.702205  0  1.858448  0
O  O130  1  0.38351641  0.02506307  0.10410656  1  0  -0.710473  0  1.564442  0  0  -0.71553  0  1.84668  0  0  -0.735731  0  1.834537  0  -0.879557  0  -0.762212  -0.703655  0  1.855675  0
O  O131  1  0.11656252  0.87073294  0.10417923  1  0  -0.709322  0  1.566298  0  0  -0.714317  0  1.848823  0  0  -0.734469  0  1.836687  0  -0.879218  0  -0.761694  -0.702321  0  1.857896  0
O  O132  1  0.85472556  0.02354074  0.14803949  1  0  -0.694767  0  2.144903  0  0  -0.665114  0  2.418636  0  0  -0.702967  0  2.415282  0  -1.166985  0  -0.358928  -0.637584  0  2.419553  0
O  O133  1  0.64526347  0.82831988  0.14788801  1  0  -0.693914  0  2.147255  0  0  -0.66501  0  2.421217  0  0  -0.702877  0  2.417854  0  -1.171759  0  -0.358552  -0.637463  0  2.421884  0
O  O134  1  0.14526716  0.97646351  0.85195885  1  0  -0.694818  0  2.144969  0  0  -0.665116  0  2.418477  0  0  -0.702963  0  2.415115  0  -1.166968  0  -0.35897  -0.637585  0  2.419396  0
O  O135  1  0.35473839  0.17167956  0.85211323  1  0  -0.69389  0  2.147213  0  0  -0.665008  0  2.421172  0  0  -0.702863  0  2.417775  0  -1.171765  0  -0.358557  -0.637458  0  2.421838  0
O  O136  1  0.73840996  0.08529975  0.27648744  1  0  -0.621515  0  1.922166  0  0  -0.575171  0  2.151611  0  0  -0.602619  0  2.144605  0  -1.17299  0  -0.301706  -0.555256  0  2.155586  0
O  O137  1  0.76168459  0.63801057  0.27649019  1  0  -0.621755  0  1.922492  0  0  -0.575771  0  2.151401  0  0  -0.603115  0  2.144259  0  -1.174075  0  -0.301636  -0.555925  0  2.155426  0
O  O138  1  0.26159157  0.91470100  0.72351631  1  0  -0.62141  0  1.922249  0  0  -0.575101  0  2.151621  0  0  -0.602557  0  2.144631  0  -1.172996  0  -0.301678  -0.555186  0  2.155594  0
O  O139  1  0.23831326  0.36198824  0.72351358  1  0  -0.62175  0  1.922484  0  0  -0.575777  0  2.151349  0  0  -0.603123  0  2.144206  0  -1.17401  0  -0.301651  -0.555929  0  2.155373  0
O  O140  1  0.60997771  0.07490276  0.08416487  1  0  -0.645793  0  2.014091  0  0  -0.617318  0  2.270201  0  0  -0.65022  0  2.268035  0  -1.15438  0  -0.330485  -0.594029  0  2.270659  0
O  O141  1  0.89001088  0.84080257  0.08409164  1  0  -0.643432  0  2.016312  0  0  -0.614993  0  2.272134  0  0  -0.6478  0  2.269794  0  -1.149134  0  -0.329586  -0.591637  0  2.272566  0
O  O142  1  0.39002591  0.92509258  0.91583761  1  0  -0.645829  0  2.014205  0  0  -0.61733  0  2.270261  0  0  -0.650234  0  2.268102  0  -1.1543  0  -0.330503  -0.594039  0  2.270718  0
O  O143  1  0.10998014  0.15920579  0.91590259  1  0  -0.643456  0  2.016462  0  0  -0.615078  0  2.272307  0  0  -0.647887  0  2.269962  0  -1.149061  0  -0.32962  -0.591737  0  2.272779  0
O  O144  1  0.53243644  0.21443913  0.90792974  1  0  -0.632462  0  1.971381  0  0  -0.610823  0  2.22055  0  0  -0.642134  0  2.216624  0  -1.152286  0  -0.340842  -0.588641  0  2.222168  0
O  O145  1  0.96770723  0.87777754  0.90799951  1  0  -0.630127  0  1.9739  0  0  -0.608582  0  2.223165  0  0  -0.639925  0  2.219306  0  -1.156169  0  -0.340775  -0.586309  0  2.224735  0
O  O146  1  0.46757035  0.78555622  0.09207083  1  0  -0.632433  0  1.9714  0  0  -0.610813  0  2.220565  0  0  -0.642121  0  2.216643  0  -1.152229  0  -0.340837  -0.588628  0  2.22218  0
O  O147  1  0.03228211  0.12222958  0.09199309  1  0  -0.630188  0  1.973873  0  0  -0.608645  0  2.22313  0  0  -0.639988  0  2.219265  0  -1.156268  0  -0.34075  -0.586367  0  2.224702  0
