# generated using pymatgen
data_NaDyH16(C3O2)6
_symmetry_space_group_name_H-M   'P 1'
_cell_length_a   6.79135191
_cell_length_b   7.47797176
_cell_length_c   19.86318449
_cell_angle_alpha   90.00018900
_cell_angle_beta   99.83919262
_cell_angle_gamma   89.99985160
_symmetry_Int_Tables_number   1
_chemical_formula_structural   NaDyH16(C3O2)6
_chemical_formula_sum   'Na2 Dy2 H32 C36 O24'
_cell_volume   993.92485883
_cell_formula_units_Z   2
loop_
 _symmetry_equiv_pos_site_id
 _symmetry_equiv_pos_as_xyz
  1  'x, y, z'
loop_
 _atom_site_type_symbol
 _atom_site_label
 _atom_site_symmetry_multiplicity
 _atom_site_fract_x
 _atom_site_fract_y
 _atom_site_fract_z
 _atom_site_occupancy
 _atom_site_hle17_bader_spin_density
 _atom_site_hle17_ddec_charge
 _atom_site_hle17_ddec_spin_density
 _atom_site_hle17_ddec_sum_bond_order
 _atom_site_hle17_magmom
 _atom_site_hse06_10hf_bader_spin_density
 _atom_site_hse06_10hf_ddec_charge
 _atom_site_hse06_10hf_ddec_spin_density
 _atom_site_hse06_10hf_ddec_sum_bond_order
 _atom_site_hse06_10hf_magmom
 _atom_site_hse06_bader_spin_density
 _atom_site_hse06_ddec_charge
 _atom_site_hse06_ddec_spin_density
 _atom_site_hse06_ddec_sum_bond_order
 _atom_site_hse06_magmom
 _atom_site_pbe_bader_spin_density
 _atom_site_pbe_cm5_charge
 _atom_site_pbe_ddec_charge
 _atom_site_pbe_ddec_spin_density
 _atom_site_pbe_ddec_sum_bond_order
 _atom_site_pbe_magmom
Na  Na0  1  0.83682575  0.75008367  0.67279851  1  0  0.927211  0  0.356123  0  0  0.898039  0  0.489195  0  0  0.906738  0  0.46844  0  0  0.698141  0.891315  0  0.504487  0
Na  Na1  1  0.16316953  0.25007841  0.32720283  1  0  0.927197  0  0.356146  0  0  0.898044  0  0.489245  0  0  0.906732  0  0.468467  0  0  0.698129  0.891317  0  0.504512  0
Dy  Dy2  1  0.70707731  0.25018110  0.41447454  1  0  2.203801  0  1.736234  0  0  2.054476  0  2.226134  0  0  2.102193  0  2.184117  0  0  1.540313  2.017731  0  2.259695  0
Dy  Dy3  1  0.29292694  0.75018023  0.58552532  1  0  2.203772  0  1.73626  0  0  2.054449  0  2.226116  0  0  2.10217  0  2.184094  0  0  1.540277  2.017679  0  2.259707  0
H  H4  1  0.70417519  0.65075804  0.81071782  1  0  0.109318  0  0.964697  0  0  0.118709  0  1.026552  0  0  0.122244  0  1.023735  0  0  0.109252  0.116165  0  1.02856  0
H  H5  1  0.29580389  0.15075124  0.18927892  1  0  0.109193  0  0.964762  0  0  0.118641  0  1.026555  0  0  0.122176  0  1.023738  0  0  0.109207  0.116096  0  1.02857  0
H  H6  1  0.89222586  0.34868120  0.18933944  1  0  0.109616  0  0.963522  0  0  0.119541  0  1.024673  0  0  0.122977  0  1.021984  0  0  0.11001  0.117054  0  1.026621  0
H  H7  1  0.10776022  0.84871216  0.81066248  1  0  0.109494  0  0.963518  0  0  0.119449  0  1.024654  0  0  0.122874  0  1.021979  0  0  0.110002  0.116964  0  1.026599  0
H  H8  1  0.76571584  0.64642579  0.93756569  1  0  0.084873  0  0.950178  0  0  0.097157  0  1.008767  0  0  0.100106  0  1.007849  0  0  0.097489  0.095058  0  1.009494  0
H  H9  1  0.23427221  0.14642873  0.06243157  1  0  0.084961  0  0.950175  0  0  0.097262  0  1.008727  0  0  0.10021  0  1.007808  0  0  0.097528  0.095158  0  1.009459  0
H  H10  1  0.82737363  0.35277675  0.06251213  1  0  0.083872  0  0.951086  0  0  0.09613  0  1.009745  0  0  0.099114  0  1.008781  0  0  0.096878  0.093994  0  1.010515  0
H  H11  1  0.17261991  0.85279530  0.93749024  1  0  0.083793  0  0.951191  0  0  0.096114  0  1.009802  0  0  0.099091  0  1.008847  0  0  0.096875  0.093976  0  1.01057  0
H  H12  1  0.21954657  0.64695070  0.03112040  1  0  0.083296  0  0.956249  0  0  0.095119  0  1.016875  0  0  0.098135  0  1.015459  0  0  0.097716  0.092986  0  1.017929  0
H  H13  1  0.78045042  0.14695492  0.96888242  1  0  0.083244  0  0.956203  0  0  0.095025  0  1.016889  0  0  0.098042  0  1.015471  0  0  0.097654  0.092892  0  1.017945  0
H  H14  1  0.18786808  0.35277615  0.96891438  1  0  0.083281  0  0.955619  0  0  0.095025  0  1.01633  0  0  0.098002  0  1.014962  0  0  0.097712  0.092911  0  1.017368  0
H  H15  1  0.81212847  0.85276916  0.03108464  1  0  0.083315  0  0.955604  0  0  0.095062  0  1.016306  0  0  0.098038  0  1.014939  0  0  0.097725  0.092946  0  1.017346  0
H  H16  1  0.28354085  0.64482894  0.15745593  1  0  0.093594  0  0.959295  0  0  0.103457  0  1.021622  0  0  0.106777  0  1.019176  0  0  0.104612  0.101042  0  1.023425  0
H  H17  1  0.71646810  0.14482285  0.84254659  1  0  0.093601  0  0.959232  0  0  0.103496  0  1.021541  0  0  0.10682  0  1.019086  0  0  0.104603  0.101081  0  1.023345  0
H  H18  1  0.12559912  0.35513727  0.84256613  1  0  0.094267  0  0.959276  0  0  0.104598  0  1.02086  0  0  0.107822  0  1.018521  0  0  0.105405  0.102236  0  1.022621  0
H  H19  1  0.87440341  0.85514194  0.15743274  1  0  0.094277  0  0.959283  0  0  0.104609  0  1.020878  0  0  0.107832  0  1.018538  0  0  0.105409  0.102246  0  1.022639  0
H  H20  1  0.49429358  0.76860277  0.43615755  1  0  0.102171  0  0.926383  0  0  0.10955  0  0.984653  0  0  0.112892  0  0.981759  0  0  0.131021  0.107173  0  0.986781  0
H  H21  1  0.50572408  0.26860277  0.56384261  1  0  0.102045  0  0.926472  0  0  0.10945  0  0.984761  0  0  0.112792  0  0.981877  0  0  0.130992  0.107079  0  0.986889  0
H  H22  1  0.05774877  0.23192224  0.56382049  1  0  0.102303  0  0.926336  0  0  0.109447  0  0.984196  0  0  0.112854  0  0.981241  0  0  0.130927  0.106957  0  0.986497  0
H  H23  1  0.94227345  0.73192785  0.43618141  1  0  0.102429  0  0.9262  0  0  0.109438  0  0.984131  0  0  0.112848  0  0.981172  0  0  0.130908  0.106947  0  0.986433  0
H  H24  1  0.56410651  0.61660386  0.34462095  1  0  0.400715  0  0.894345  0  0  0.370368  0  0.970475  0  0  0.382597  0  0.956932  0  0  0.305667  0.361822  0  0.979767  0
H  H25  1  0.43590400  0.11659145  0.65538062  1  0  0.400795  0  0.894303  0  0  0.370424  0  0.970455  0  0  0.382662  0  0.956902  0  0  0.305707  0.36188  0  0.979747  0
H  H26  1  0.21957584  0.38388076  0.65535065  1  0  0.402529  0  0.892628  0  0  0.371321  0  0.970053  0  0  0.383506  0  0.956164  0  0  0.30666  0.362762  0  0.979401  0
H  H27  1  0.78043407  0.88388061  0.34465223  1  0  0.402498  0  0.892623  0  0  0.371301  0  0.970051  0  0  0.383484  0  0.956189  0  0  0.306675  0.362775  0  0.979337  0
H  H28  1  0.74619128  0.39789360  0.72730150  1  0  0.415231  0  0.875082  0  0  0.388359  0  0.933684  0  0  0.39721  0  0.920523  0  0  0.296599  0.382104  0  0.942988  0
H  H29  1  0.25380818  0.89789944  0.27269372  1  0  0.41526  0  0.875116  0  0  0.388389  0  0.93366  0  0  0.397235  0  0.920507  0  0  0.296624  0.382133  0  0.942964  0
H  H30  1  0.01859141  0.60224201  0.27262936  1  0  0.416846  0  0.873593  0  0  0.389798  0  0.931748  0  0  0.398651  0  0.918597  0  0  0.29757  0.383535  0  0.941053  0
H  H31  1  0.98141316  0.10224898  0.72737184  1  0  0.416853  0  0.873487  0  0  0.389871  0  0.931637  0  0  0.398725  0  0.918483  0  0  0.297608  0.383608  0  0.940942  0
H  H32  1  0.98117621  0.40938845  0.73551987  1  0  0.416346  0  0.890304  0  0  0.385447  0  0.954904  0  0  0.395659  0  0.939668  0  0  0.288656  0.378201  0  0.965718  0
H  H33  1  0.01882471  0.90939344  0.26447747  1  0  0.416345  0  0.890305  0  0  0.385449  0  0.954891  0  0  0.395659  0  0.939658  0  0  0.288666  0.378203  0  0.965703  0
H  H34  1  0.24530484  0.59046177  0.26438556  1  0  0.415681  0  0.890988  0  0  0.385143  0  0.954911  0  0  0.395323  0  0.939706  0  0  0.28847  0.377915  0  0.965709  0
H  H35  1  0.75469975  0.09046802  0.73561613  1  0  0.415688  0  0.890985  0  0  0.385146  0  0.954912  0  0  0.395334  0  0.939696  0  0  0.288454  0.377917  0  0.965712  0
C  C36  1  0.36420132  0.74988389  0.72720410  1  0  0.672467  0  3.894516  0  0  0.63038  0  4.179108  0  0  0.664246  0  4.171366  0  0  0.201622  0.607508  0  4.183458  0
C  C37  1  0.63578651  0.24988236  0.27279277  1  0  0.672413  0  3.894004  0  0  0.630492  0  4.178585  0  0  0.664353  0  4.170836  0  0  0.201716  0.607619  0  4.182945  0
C  C38  1  0.40209442  0.74975580  0.80290455  1  0  -0.067655  0  3.744854  0  0  -0.048432  0  3.982633  0  0  -0.058069  0  4.006513  0  0  -0.016869  -0.042294  0  3.966671  0
C  C39  1  0.59788294  0.24974300  0.19709170  1  0  -0.06705  0  3.744112  0  0  -0.048342  0  3.982497  0  0  -0.057977  0  4.006377  0  0  -0.016822  -0.042206  0  3.966539  0
C  C40  1  0.47365221  0.74966942  0.94653131  1  0  0.057163  0  3.782071  0  0  0.07076  0  4.015849  0  0  0.072599  0  4.039863  0  0  -0.001494  0.069707  0  3.999388  0
C  C41  1  0.52633708  0.24966623  0.05346968  1  0  0.057184  0  3.782285  0  0  0.070674  0  4.016157  0  0  0.072514  0  4.04017  0  0  -0.001587  0.069621  0  3.999697  0
C  C42  1  0.51120508  0.74977230  0.02188325  1  0  0.06587  0  3.767685  0  0  0.077758  0  4.001822  0  0  0.079612  0  4.025035  0  0  -5.7e-05  0.076649  0  3.985951  0
C  C43  1  0.48879318  0.24976928  0.97811826  1  0  0.065789  0  3.767922  0  0  0.077748  0  4.001999  0  0  0.079601  0  4.025214  0  0  -9.2e-05  0.076642  0  3.986121  0
C  C44  1  0.58874435  0.69584940  0.83883205  1  0  -0.052564  0  3.712756  0  0  -0.075655  0  3.958797  0  0  -0.074233  0  3.979151  0  0  -0.075079  -0.076321  0  3.94494  0
C  C45  1  0.41123164  0.19583807  0.16116455  1  0  -0.052471  0  3.712631  0  0  -0.075451  0  3.958758  0  0  -0.07403  0  3.97911  0  0  -0.074942  -0.076117  0  3.944902  0
C  C46  1  0.74876577  0.30355939  0.16121339  1  0  -0.053309  0  3.712768  0  0  -0.076921  0  3.959379  0  0  -0.075437  0  3.979767  0  0  -0.076727  -0.077623  0  3.945484  0
C  C47  1  0.25121744  0.80357822  0.83878579  1  0  -0.053031  0  3.712569  0  0  -0.076837  0  3.959141  0  0  -0.075346  0  3.979522  0  0  -0.07666  -0.077542  0  3.945246  0
C  C48  1  0.62302142  0.69495505  0.90985050  1  0  -0.115135  0  3.740485  0  0  -0.133275  0  3.989713  0  0  -0.138748  0  4.01221  0  0  -0.088478  -0.129647  0  3.974364  0
C  C49  1  0.37696653  0.19495120  0.09014631  1  0  -0.115414  0  3.740726  0  0  -0.133532  0  3.989979  0  0  -0.139005  0  4.012472  0  0  -0.08857  -0.129899  0  3.974629  0
C  C50  1  0.71223416  0.30445910  0.09020454  1  0  -0.114314  0  3.742128  0  0  -0.132362  0  3.991415  0  0  -0.137859  0  4.013865  0  0  -0.087714  -0.128708  0  3.976096  0
C  C51  1  0.28775801  0.80446910  0.90979517  1  0  -0.114258  0  3.741968  0  0  -0.132403  0  3.991323  0  0  -0.137894  0  4.013771  0  0  -0.087822  -0.128747  0  3.976003  0
C  C52  1  0.58332260  0.74995204  0.16611000  1  0  -0.090256  0  3.778421  0  0  -0.070333  0  4.022958  0  0  -0.0803  0  4.048441  0  0  -0.022364  -0.063873  0  4.005719  0
C  C53  1  0.41668165  0.24994793  0.83388985  1  0  -0.090516  0  3.778619  0  0  -0.070589  0  4.023178  0  0  -0.080556  0  4.048652  0  0  -0.022462  -0.064128  0  4.005937  0
C  C54  1  0.36272860  0.69433649  0.05878294  1  0  -0.116855  0  3.741898  0  0  -0.134175  0  3.990952  0  0  -0.139149  0  4.012907  0  0  -0.08844  -0.130867  0  3.975958  0
C  C55  1  0.63726829  0.19434081  0.94121943  1  0  -0.116699  0  3.742164  0  0  -0.133983  0  3.991169  0  0  -0.138956  0  4.013127  0  0  -0.088335  -0.130677  0  3.976172  0
C  C56  1  0.30338138  0.30532853  0.94122641  1  0  -0.117512  0  3.739896  0  0  -0.134864  0  3.989386  0  0  -0.139796  0  4.011247  0  0  -0.089007  -0.131583  0  3.974442  0
C  C57  1  0.69661379  0.80533009  0.05877197  1  0  -0.117528  0  3.739967  0  0  -0.134864  0  3.989456  0  0  -0.139795  0  4.011315  0  0  -0.089014  -0.131579  0  3.974512  0
C  C58  1  0.62109811  0.75008606  0.24219417  1  0  0.672846  0  3.83379  0  0  0.612936  0  4.136085  0  0  0.647023  0  4.128895  0  0  0.229765  0.589968  0  4.140135  0
C  C59  1  0.37890016  0.25007468  0.75780533  1  0  0.672902  0  3.833679  0  0  0.612967  0  4.135976  0  0  0.647075  0  4.128776  0  0  0.229734  0.589996  0  4.140024  0
C  C60  1  0.63111352  0.68702571  0.44340601  1  0  0.059657  0  3.598003  0  0  0.033129  0  3.847131  0  0  0.034328  0  3.852477  0  0  0.004564  0.032151  0  3.843662  0
C  C61  1  0.36890580  0.18702062  0.55659768  1  0  0.059981  0  3.597768  0  0  0.033353  0  3.847146  0  0  0.034529  0  3.852548  0  0  0.004604  0.032366  0  3.84368  0
C  C62  1  0.18731585  0.31345887  0.55657019  1  0  0.058626  0  3.598526  0  0  0.034475  0  3.845814  0  0  0.035587  0  3.851215  0  0  0.003685  0.033523  0  3.842361  0
C  C63  1  0.81270022  0.81345951  0.44342944  1  0  0.058569  0  3.598661  0  0  0.034697  0  3.845528  0  0  0.035815  0  3.85089  0  0  0.003662  0.033734  0  3.842097  0
C  C64  1  0.64656396  0.58655623  0.51073801  1  0  0.707171  0  3.831181  0  0  0.656918  0  4.133536  0  0  0.691494  0  4.122106  0  0  0.235754  0.633398  0  4.140485  0
C  C65  1  0.35344513  0.08655193  0.48926395  1  0  0.706909  0  3.831359  0  0  0.65676  0  4.133613  0  0  0.691336  0  4.122191  0  0  0.235688  0.633238  0  4.140563  0
C  C66  1  0.13554417  0.41395246  0.48923057  1  0  0.709859  0  3.827893  0  0  0.657727  0  4.131829  0  0  0.692432  0  4.120186  0  0  0.235731  0.634193  0  4.138811  0
C  C67  1  0.86446270  0.91396560  0.51077015  1  0  0.709502  0  3.828043  0  0  0.657368  0  4.131912  0  0  0.692069  0  4.120277  0  0  0.235607  0.633835  0  4.138891  0
C  C68  1  0.39844259  0.69284705  0.12976708  1  0  -0.047232  0  3.735511  0  0  -0.071935  0  3.983986  0  0  -0.070749  0  4.005035  0  0  -0.077785  -0.072439  0  3.969568  0
C  C69  1  0.60156325  0.19284816  0.87023683  1  0  -0.047212  0  3.735604  0  0  -0.071957  0  3.984076  0  0  -0.07077  0  4.005122  0  0  -0.07774  -0.072459  0  3.969654  0
C  C70  1  0.26814288  0.30704129  0.87023012  1  0  -0.047081  0  3.736074  0  0  -0.072078  0  3.984493  0  0  -0.070784  0  4.005525  0  0  -0.077734  -0.072652  0  3.970083  0
C  C71  1  0.73186125  0.80703670  0.12976879  1  0  -0.047223  0  3.736102  0  0  -0.072224  0  3.984539  0  0  -0.070931  0  4.005571  0  0  -0.077773  -0.072797  0  3.970125  0
O  O72  1  0.50933422  0.73568052  0.69389599  1  0  -0.74593  0  2.000546  0  0  -0.699018  0  2.25068  0  0  -0.722868  0  2.239916  0  0  -0.446221  -0.682123  0  2.257483  0
O  O73  1  0.49065809  0.23567161  0.30610566  1  0  -0.746043  0  2.000578  0  0  -0.699129  0  2.250661  0  0  -0.722973  0  2.239888  0  0  -0.446294  -0.682232  0  2.257461  0
O  O74  1  0.81433441  0.26427122  0.30602182  1  0  -0.746184  0  1.998016  0  0  -0.699091  0  2.247795  0  0  -0.722989  0  2.237147  0  0  -0.445712  -0.682157  0  2.254503  0
O  O75  1  0.18564591  0.76426888  0.69397462  1  0  -0.746123  0  1.998233  0  0  -0.69904  0  2.248062  0  0  -0.722917  0  2.23736  0  0  -0.445677  -0.682104  0  2.254771  0
O  O76  1  0.47902085  0.70726593  0.27415103  1  0  -0.645006  0  2.018523  0  0  -0.571867  0  2.23116  0  0  -0.598083  0  2.220598  0  0  -0.301008  -0.55373  0  2.238021  0
O  O77  1  0.52097901  0.20723254  0.72585053  1  0  -0.644985  0  2.018457  0  0  -0.571787  0  2.231063  0  0  -0.598058  0  2.220533  0  0  -0.300952  -0.553657  0  2.237932  0
O  O78  1  0.20502079  0.29305833  0.72578187  1  0  -0.644784  0  2.01777  0  0  -0.571265  0  2.230928  0  0  -0.597396  0  2.220269  0  0  -0.300774  -0.553194  0  2.237838  0
O  O79  1  0.79498037  0.79305218  0.27421886  1  0  -0.644795  0  2.01788  0  0  -0.571273  0  2.231003  0  0  -0.597399  0  2.220355  0  0  -0.300766  -0.553234  0  2.237914  0
O  O80  1  0.85893915  0.48113799  0.73442987  1  0  -0.866651  0  1.767041  0  0  -0.828411  0  1.925629  0  0  -0.842983  0  1.894363  0  0  -0.653018  -0.818025  0  1.947599  0
O  O81  1  0.14105863  0.98114137  0.26556737  1  0  -0.866669  0  1.767081  0  0  -0.828435  0  1.925642  0  0  -0.843  0  1.894376  0  0  -0.653073  -0.818043  0  1.94761  0
O  O82  1  0.12400206  0.51889038  0.26541437  1  0  -0.867281  0  1.766194  0  0  -0.829105  0  1.924507  0  0  -0.843637  0  1.893261  0  0  -0.653453  -0.818737  0  1.946472  0
O  O83  1  0.87600121  0.01889499  0.73458514  1  0  -0.867269  0  1.766072  0  0  -0.829169  0  1.924327  0  0  -0.843706  0  1.893073  0  0  -0.653479  -0.818806  0  1.946303  0
O  O84  1  0.70785725  0.42713192  0.51225308  1  0  -0.664231  0  2.039395  0  0  -0.613049  0  2.288659  0  0  -0.637575  0  2.278112  0  0  -0.365667  -0.595876  0  2.295329  0
O  O85  1  0.29215407  0.92712885  0.48774993  1  0  -0.664138  0  2.039557  0  0  -0.612947  0  2.288715  0  0  -0.637469  0  2.278168  0  0  -0.365604  -0.595767  0  2.295377  0
O  O86  1  0.19558132  0.57330976  0.48773947  1  0  -0.666032  0  2.039687  0  0  -0.613341  0  2.288656  0  0  -0.637883  0  2.277951  0  0  -0.365178  -0.596162  0  2.295396  0
O  O87  1  0.80441586  0.07331126  0.51225975  1  0  -0.665745  0  2.039785  0  0  -0.613122  0  2.288806  0  0  -0.637663  0  2.278105  0  0  -0.36509  -0.595949  0  2.295542  0
O  O88  1  0.61981509  0.55692872  0.39015065  1  0  -0.666931  0  2.18383  0  0  -0.615698  0  2.436372  0  0  -0.632429  0  2.42251  0  0  -0.451792  -0.60343  0  2.445475  0
O  O89  1  0.38020752  0.05692139  0.60985105  1  0  -0.667077  0  2.1838  0  0  -0.615788  0  2.436389  0  0  -0.632509  0  2.422515  0  0  -0.451847  -0.60352  0  2.445496  0
O  O90  1  0.22938025  0.44359193  0.60980155  1  0  -0.668  0  2.185338  0  0  -0.616711  0  2.438458  0  0  -0.633425  0  2.424258  0  0  -0.451844  -0.60442  0  2.447597  0
O  O91  1  0.77062357  0.94359354  0.39019802  1  0  -0.667916  0  2.185467  0  0  -0.616712  0  2.438498  0  0  -0.633429  0  2.424322  0  0  -0.451852  -0.604439  0  2.447591  0
O  O92  1  0.59785418  0.66758651  0.56191682  1  0  -0.772343  0  2.079416  0  0  -0.728492  0  2.354517  0  0  -0.752215  0  2.339623  0  0  -0.438585  -0.711505  0  2.363993  0
O  O93  1  0.40215326  0.16758164  0.43808161  1  0  -0.772296  0  2.079345  0  0  -0.728456  0  2.354385  0  0  -0.752175  0  2.339487  0  0  -0.438594  -0.711471  0  2.363858  0
O  O94  1  0.03555730  0.33307481  0.43803442  1  0  -0.773482  0  2.078082  0  0  -0.729717  0  2.354666  0  0  -0.753533  0  2.339849  0  0  -0.43914  -0.712686  0  2.364031  0
O  O95  1  0.96444824  0.83307613  0.56196763  1  0  -0.773395  0  2.078125  0  0  -0.729612  0  2.354615  0  0  -0.753439  0  2.339807  0  0  -0.439084  -0.712579  0  2.363985  0
