# generated using pymatgen
data_ZnPH5C2N4O3
_symmetry_space_group_name_H-M   'P 1'
_cell_length_a   7.23779768
_cell_length_b   9.57838960
_cell_length_c   10.23858231
_cell_angle_alpha   110.27184156
_cell_angle_beta   90.00002210
_cell_angle_gamma   90.00001571
_symmetry_Int_Tables_number   1
_chemical_formula_structural   ZnPH5C2N4O3
_chemical_formula_sum   'Zn4 P4 H20 C8 N16 O12'
_cell_volume   665.83875342
_cell_formula_units_Z   4
loop_
 _symmetry_equiv_pos_site_id
 _symmetry_equiv_pos_as_xyz
  1  'x, y, z'
loop_
 _atom_site_type_symbol
 _atom_site_label
 _atom_site_symmetry_multiplicity
 _atom_site_fract_x
 _atom_site_fract_y
 _atom_site_fract_z
 _atom_site_occupancy
 _atom_site_hle17_bader_spin_density
 _atom_site_hle17_ddec_charge
 _atom_site_hle17_ddec_spin_density
 _atom_site_hle17_ddec_sum_bond_order
 _atom_site_hle17_magmom
 _atom_site_hse06_10hf_bader_spin_density
 _atom_site_hse06_10hf_ddec_charge
 _atom_site_hse06_10hf_ddec_spin_density
 _atom_site_hse06_10hf_ddec_sum_bond_order
 _atom_site_hse06_10hf_magmom
 _atom_site_hse06_bader_spin_density
 _atom_site_hse06_ddec_charge
 _atom_site_hse06_ddec_spin_density
 _atom_site_hse06_ddec_sum_bond_order
 _atom_site_hse06_magmom
 _atom_site_pbe_bader_spin_density
 _atom_site_pbe_cm5_charge
 _atom_site_pbe_ddec_charge
 _atom_site_pbe_ddec_spin_density
 _atom_site_pbe_ddec_sum_bond_order
 _atom_site_pbe_magmom
Zn  Zn0  1  0.38225870  0.34103634  0.33799813  1  0  1.140545  0  1.834366  0  0  0.964016  0  2.316555  0  0  1.006534  0  2.257792  0  0  0.718449  0.934443  0  2.356765  0
Zn  Zn1  1  0.88225749  0.65896327  0.16200342  1  0  1.140578  0  1.834386  0  0  0.964035  0  2.31656  0  0  1.006554  0  2.257802  0  0  0.718462  0.934463  0  2.356768  0
Zn  Zn2  1  0.61774346  0.65896504  0.66200363  1  0  1.140574  0  1.834345  0  0  0.964047  0  2.316532  0  0  1.006566  0  2.257772  0  0  0.718483  0.934471  0  2.356741  0
Zn  Zn3  1  0.11774468  0.34103589  0.83799665  1  0  1.140549  0  1.834396  0  0  0.964004  0  2.316577  0  0  1.006524  0  2.257818  0  0  0.718447  0.934429  0  2.356785  0
P  P4  1  0.77829081  0.49238019  0.36906550  1  0  1.420237  0  4.944626  0  0  1.237129  0  5.438183  0  0  1.287266  0  5.402878  0  0  0.270691  1.202308  0  5.461684  0
P  P5  1  0.27829058  0.50761938  0.13093699  1  0  1.420243  0  4.944573  0  0  1.237131  0  5.438121  0  0  1.287268  0  5.40282  0  0  0.270728  1.20231  0  5.46162  0
P  P6  1  0.22170997  0.50761897  0.63093456  1  0  1.42021  0  4.944704  0  0  1.237102  0  5.438236  0  0  1.287237  0  5.402931  0  0  0.270688  1.202279  0  5.461737  0
P  P7  1  0.72171020  0.49237977  0.86906405  1  0  1.420269  0  4.944731  0  0  1.237105  0  5.438297  0  0  1.287245  0  5.402994  0  0  0.270676  1.202278  0  5.461797  0
H  H8  1  0.17533274  0.72329502  0.96340221  1  0  0.307403  0  0.91123  0  0  0.291139  0  0.981916  0  0  0.297064  0  0.976481  0  0  0.299588  0.286878  0  0.985806  0
H  H9  1  0.67533408  0.27670592  0.53659809  1  0  0.307387  0  0.911245  0  0  0.291124  0  0.981931  0  0  0.29705  0  0.976496  0  0  0.299576  0.286862  0  0.985822  0
H  H10  1  0.82466666  0.27670747  0.03659895  1  0  0.307389  0  0.911224  0  0  0.291121  0  0.981919  0  0  0.297046  0  0.976484  0  0  0.29958  0.28686  0  0.985807  0
H  H11  1  0.32466532  0.72329435  0.46340234  1  0  0.307369  0  0.911268  0  0  0.291114  0  0.981949  0  0  0.297039  0  0.976514  0  0  0.299579  0.286855  0  0.985836  0
H  H12  1  0.25428768  0.79569318  0.84723706  1  0  0.286701  0  0.91756  0  0  0.270454  0  0.994472  0  0  0.275826  0  0.989288  0  0  0.298686  0.266699  0  0.998009  0
H  H13  1  0.75428906  0.20430556  0.65276254  1  0  0.286671  0  0.917581  0  0  0.270449  0  0.994461  0  0  0.275807  0  0.989288  0  0  0.298688  0.266692  0  0.997999  0
H  H14  1  0.74571172  0.20430597  0.15276300  1  0  0.286639  0  0.917627  0  0  0.270403  0  0.994519  0  0  0.27577  0  0.989341  0  0  0.298672  0.266651  0  0.998054  0
H  H15  1  0.24571034  0.79569249  0.34723618  1  0  0.286681  0  0.917561  0  0  0.270438  0  0.994472  0  0  0.275811  0  0.989287  0  0  0.298681  0.266685  0  0.998006  0
H  H16  1  0.10731722  0.11725388  0.08235752  1  0  0.118378  0  0.962339  0  0  0.121012  0  1.033755  0  0  0.12483  0  1.029235  0  0  0.140658  0.118024  0  1.037253  0
H  H17  1  0.60731761  0.88274563  0.41764392  1  0  0.118355  0  0.962314  0  0  0.120994  0  1.033733  0  0  0.124811  0  1.029211  0  0  0.140657  0.118004  0  1.037234  0
H  H18  1  0.89268356  0.88274638  0.91764388  1  0  0.118356  0  0.962314  0  0  0.120985  0  1.033745  0  0  0.124803  0  1.029223  0  0  0.140636  0.117996  0  1.037244  0
H  H19  1  0.39268179  0.11725240  0.58235675  1  0  0.11839  0  0.962315  0  0  0.121029  0  1.033736  0  0  0.124846  0  1.029216  0  0  0.140665  0.118039  0  1.037235  0
H  H20  1  0.51970245  0.80010458  0.07650807  1  0  0.12249  0  0.951096  0  0  0.129536  0  1.017064  0  0  0.132281  0  1.014366  0  0  0.140368  0.127529  0  1.018881  0
H  H21  1  0.01970090  0.19989492  0.42348846  1  0  0.122499  0  0.951061  0  0  0.129576  0  1.016991  0  0  0.132272  0  1.014356  0  0  0.140382  0.127564  0  1.018812  0
H  H22  1  0.48030109  0.19989793  0.92349016  1  0  0.122495  0  0.951017  0  0  0.129543  0  1.016982  0  0  0.132266  0  1.014312  0  0  0.140389  0.127537  0  1.018798  0
H  H23  1  0.98029297  0.80010536  0.57650904  1  0  0.122506  0  0.951081  0  0  0.129554  0  1.017047  0  0  0.132307  0  1.01434  0  0  0.14037  0.127549  0  1.018863  0
H  H24  1  0.95763265  0.44333450  0.38472805  1  0  -0.152476  0  0.931665  0  0  -0.11925  0  1.018491  0  0  -0.123615  0  1.014554  0  0  0.084817  -0.116436  0  1.021331  0
H  H25  1  0.45763105  0.55666737  0.11527133  1  0  -0.15246  0  0.931622  0  0  -0.119234  0  1.018454  0  0  -0.123601  0  1.01452  0  0  0.084825  -0.116422  0  1.021296  0
H  H26  1  0.04236951  0.55666467  0.61526908  1  0  -0.15248  0  0.931652  0  0  -0.119225  0  1.018454  0  0  -0.123588  0  1.014517  0  0  0.084822  -0.116414  0  1.021296  0
H  H27  1  0.54236973  0.44333402  0.88472751  1  0  -0.152488  0  0.931653  0  0  -0.119228  0  1.018454  0  0  -0.123591  0  1.014514  0  0  0.084822  -0.116416  0  1.021295  0
C  C28  1  0.23186615  0.06767735  0.10755641  1  0  0.174917  0  3.626774  0  0  0.095997  0  3.89701  0  0  0.110156  0  3.90726  0  0  0.172001  0.087068  0  3.889933  0
C  C29  1  0.73186655  0.93232556  0.39244422  1  0  0.1749  0  3.626773  0  0  0.096014  0  3.897021  0  0  0.110173  0  3.907274  0  0  0.171978  0.087079  0  3.889951  0
C  C30  1  0.76813325  0.93232404  0.89244243  1  0  0.17488  0  3.626672  0  0  0.09595  0  3.896904  0  0  0.110109  0  3.907155  0  0  0.172011  0.087022  0  3.889826  0
C  C31  1  0.26813147  0.06767582  0.60755657  1  0  0.174817  0  3.626834  0  0  0.095875  0  3.897099  0  0  0.110034  0  3.907351  0  0  0.17193  0.086951  0  3.890017  0
C  C32  1  0.44258095  0.90408476  0.10764842  1  0  0.11849  0  3.639285  0  0  0.048932  0  3.916861  0  0  0.058912  0  3.929846  0  0  0.152373  0.042819  0  3.907455  0
C  C33  1  0.94257967  0.09591266  0.39235047  1  0  0.11842  0  3.639396  0  0  0.048884  0  3.916987  0  0  0.0589  0  3.929995  0  0  0.152341  0.042771  0  3.907579  0
C  C34  1  0.55742121  0.09591663  0.89235139  1  0  0.118514  0  3.639155  0  0  0.048947  0  3.916725  0  0  0.058944  0  3.92972  0  0  0.152323  0.042832  0  3.907318  0
C  C35  1  0.05741559  0.90408538  0.60764923  1  0  0.118424  0  3.639225  0  0  0.04888  0  3.916791  0  0  0.058853  0  3.929775  0  0  0.152339  0.042765  0  3.907385  0
N  N36  1  0.35719161  0.13300050  0.20355308  1  0  -0.311415  0  3.25589  0  0  -0.238702  0  3.57898  0  0  -0.256681  0  3.58968  0  0  -0.256349  -0.226916  0  3.571399  0
N  N37  1  0.85719054  0.86700022  0.29644687  1  0  -0.311413  0  3.255928  0  0  -0.238677  0  3.578987  0  0  -0.256656  0  3.589688  0  0  -0.256314  -0.226894  0  3.571411  0
N  N38  1  0.64281055  0.86700199  0.79644710  1  0  -0.311309  0  3.255775  0  0  -0.238577  0  3.578834  0  0  -0.256554  0  3.589535  0  0  -0.256324  -0.226791  0  3.571249  0
N  N39  1  0.14280885  0.13299894  0.70355221  1  0  -0.311338  0  3.255933  0  0  -0.2386  0  3.579005  0  0  -0.256578  0  3.589706  0  0  -0.256306  -0.226814  0  3.571419  0
N  N40  1  0.49084550  0.02984067  0.20475582  1  0  -0.224344  0  2.944706  0  0  -0.209901  0  3.239958  0  0  -0.217691  0  3.256214  0  0  -0.230877  -0.204423  0  3.228709  0
N  N41  1  0.99084448  0.97015899  0.29524284  1  0  -0.22433  0  2.944852  0  0  -0.209891  0  3.240096  0  0  -0.217677  0  3.256335  0  0  -0.230873  -0.204412  0  3.228845  0
N  N42  1  0.50915666  0.97016184  0.79524241  1  0  -0.224404  0  2.944592  0  0  -0.209971  0  3.239845  0  0  -0.217758  0  3.256095  0  0  -0.230885  -0.20449  0  3.228591  0
N  N43  1  0.00915216  0.02984239  0.70475698  1  0  -0.22437  0  2.944693  0  0  -0.209933  0  3.239945  0  0  -0.217723  0  3.256203  0  0  -0.230894  -0.204454  0  3.228692  0
N  N44  1  0.28242034  0.92383251  0.04457487  1  0  0.068521  0  3.618976  0  0  0.18347  0  3.807367  0  0  0.171222  0  3.831048  0  0  -0.14504  0.189955  0  3.793665  0
N  N45  1  0.78241908  0.07616709  0.45542274  1  0  0.06864  0  3.618945  0  0  0.183446  0  3.80752  0  0  0.171201  0  3.831186  0  0  -0.145033  0.189951  0  3.793779  0
N  N46  1  0.71758320  0.07616888  0.95542397  1  0  0.06852  0  3.61894  0  0  0.183495  0  3.807291  0  0  0.171249  0  3.830965  0  0  -0.145008  0.189966  0  3.793611  0
N  N47  1  0.21757893  0.92383208  0.54457537  1  0  0.06864  0  3.618965  0  0  0.183591  0  3.807363  0  0  0.171342  0  3.831049  0  0  -0.144966  0.190043  0  3.79372  0
N  N48  1  0.18229205  0.81855446  0.93874237  1  0  -0.509999  0  2.898673  0  0  -0.516024  0  3.121984  0  0  -0.524421  0  3.120272  0  0  -0.489616  -0.509714  0  3.123214  0
N  N49  1  0.68229199  0.18144537  0.56125756  1  0  -0.510002  0  2.898665  0  0  -0.516001  0  3.121975  0  0  -0.524382  0  3.12029  0  0  -0.489614  -0.509698  0  3.12321  0
N  N50  1  0.81770873  0.18144581  0.06125708  1  0  -0.509925  0  2.898796  0  0  -0.515953  0  3.122086  0  0  -0.524348  0  3.120381  0  0  -0.489593  -0.509641  0  3.123316  0
N  N51  1  0.31770603  0.81855378  0.43874250  1  0  -0.509962  0  2.898716  0  0  -0.516004  0  3.122037  0  0  -0.524399  0  3.120321  0  0  -0.489607  -0.509687  0  3.123265  0
O  O52  1  0.64988294  0.36592888  0.37523374  1  0  -0.856625  0  2.054058  0  0  -0.754769  0  2.354091  0  0  -0.781822  0  2.327254  0  0  -0.381972  -0.735141  0  2.371865  0
O  O53  1  0.14987999  0.63407174  0.12477101  1  0  -0.856689  0  2.054049  0  0  -0.754808  0  2.354074  0  0  -0.781865  0  2.32724  0  0  -0.382032  -0.735181  0  2.371847  0
O  O54  1  0.35011922  0.63407027  0.62476632  1  0  -0.856626  0  2.054063  0  0  -0.754783  0  2.35412  0  0  -0.781835  0  2.327284  0  0  -0.381997  -0.73515  0  2.37189  0
O  O55  1  0.85011802  0.36592963  0.87523173  1  0  -0.856711  0  2.054176  0  0  -0.75481  0  2.354195  0  0  -0.781872  0  2.327361  0  0  -0.381995  -0.735178  0  2.371962  0
O  O56  1  0.74750940  0.64157386  0.48845063  1  0  -0.85002  0  2.037515  0  0  -0.752755  0  2.339977  0  0  -0.78101  0  2.315754  0  0  -0.386989  -0.732538  0  2.355737  0
O  O57  1  0.24750906  0.35842570  0.01155185  1  0  -0.850003  0  2.037498  0  0  -0.752724  0  2.339945  0  0  -0.780972  0  2.315714  0  0  -0.386973  -0.732509  0  2.355705  0
O  O58  1  0.25249276  0.35842417  0.51155102  1  0  -0.850022  0  2.037585  0  0  -0.752766  0  2.340062  0  0  -0.781009  0  2.315827  0  0  -0.38698  -0.732546  0  2.35582  0
O  O59  1  0.75249172  0.64157234  0.98844980  1  0  -0.85004  0  2.03754  0  0  -0.752743  0  2.339989  0  0  -0.780995  0  2.315764  0  0  -0.386993  -0.732528  0  2.35575  0
O  O60  1  0.77015017  0.50885138  0.22515473  1  0  -0.852803  0  2.06778  0  0  -0.750313  0  2.369935  0  0  -0.778884  0  2.344507  0  0  -0.386787  -0.730574  0  2.386977  0
O  O61  1  0.27015002  0.49114485  0.27484568  1  0  -0.852785  0  2.067809  0  0  -0.75029  0  2.36993  0  0  -0.778858  0  2.344503  0  0  -0.386796  -0.730552  0  2.386973  0
O  O62  1  0.22984923  0.49114999  0.77484704  1  0  -0.852781  0  2.067787  0  0  -0.750301  0  2.369941  0  0  -0.778873  0  2.344516  0  0  -0.386785  -0.730562  0  2.386982  0
O  O63  1  0.72985214  0.50885430  0.72515633  1  0  -0.852777  0  2.06778  0  0  -0.750288  0  2.369946  0  0  -0.778861  0  2.344521  0  0  -0.386782  -0.73055  0  2.386986  0
