# generated using pymatgen
data_ZnH9C5NO5
_symmetry_space_group_name_H-M   'P 1'
_cell_length_a   6.68601052
_cell_length_b   7.61407755
_cell_length_c   14.06241309
_cell_angle_alpha   96.48739234
_cell_angle_beta   90.00037504
_cell_angle_gamma   89.99952615
_symmetry_Int_Tables_number   1
_chemical_formula_structural   ZnH9C5NO5
_chemical_formula_sum   'Zn4 H36 C20 N4 O20'
_cell_volume   711.30254299
_cell_formula_units_Z   4
loop_
 _symmetry_equiv_pos_site_id
 _symmetry_equiv_pos_as_xyz
  1  'x, y, z'
loop_
 _atom_site_type_symbol
 _atom_site_label
 _atom_site_symmetry_multiplicity
 _atom_site_fract_x
 _atom_site_fract_y
 _atom_site_fract_z
 _atom_site_occupancy
 _atom_site_hle17_bader_spin_density
 _atom_site_hle17_ddec_charge
 _atom_site_hle17_ddec_spin_density
 _atom_site_hle17_ddec_sum_bond_order
 _atom_site_hle17_magmom
 _atom_site_hse06_10hf_bader_spin_density
 _atom_site_hse06_10hf_ddec_charge
 _atom_site_hse06_10hf_ddec_spin_density
 _atom_site_hse06_10hf_ddec_sum_bond_order
 _atom_site_hse06_10hf_magmom
 _atom_site_hse06_bader_spin_density
 _atom_site_hse06_ddec_charge
 _atom_site_hse06_ddec_spin_density
 _atom_site_hse06_ddec_sum_bond_order
 _atom_site_hse06_magmom
 _atom_site_pbe_bader_spin_density
 _atom_site_pbe_cm5_charge
 _atom_site_pbe_ddec_charge
 _atom_site_pbe_ddec_spin_density
 _atom_site_pbe_ddec_sum_bond_order
 _atom_site_pbe_magmom
Zn  Zn0  1  0.86844481  0.51993002  0.82072679  1  0  1.102232  0  1.7115  0  0  0.927174  0  2.145781  0  0  0.976123  0  2.091475  0  0  0.670491  0.892826  0  2.182985  0
Zn  Zn1  1  0.36844543  0.98007725  0.67927282  1  0  1.102326  0  1.711169  0  0  0.927256  0  2.145395  0  0  0.976208  0  2.091085  0  0  0.670635  0.892927  0  2.182603  0
Zn  Zn2  1  0.13155274  0.48006984  0.17927387  1  0  1.102184  0  1.711619  0  0  0.927112  0  2.14591  0  0  0.97607  0  2.091607  0  0  0.670479  0.892769  0  2.18311  0
Zn  Zn3  1  0.63155361  0.01992393  0.32072721  1  0  1.102302  0  1.711213  0  0  0.927216  0  2.145446  0  0  0.97617  0  2.091139  0  0  0.67063  0.892885  0  2.182653  0
H  H4  1  0.77795979  0.57934207  0.99737100  1  0  0.263788  0  0.924809  0  0  0.257069  0  0.97583  0  0  0.262359  0  0.973438  0  0  0.2932  0.253316  0  0.977563  0
H  H5  1  0.27796154  0.92065524  0.50263128  1  0  0.263792  0  0.924675  0  0  0.257081  0  0.975693  0  0  0.262372  0  0.973307  0  0  0.293204  0.253329  0  0.977433  0
H  H6  1  0.22203776  0.42066175  0.00262990  1  0  0.263809  0  0.924759  0  0  0.257134  0  0.975713  0  0  0.262427  0  0.973328  0  0  0.293203  0.253377  0  0.977452  0
H  H7  1  0.72204048  0.07934198  0.49736851  1  0  0.263802  0  0.924721  0  0  0.257118  0  0.975684  0  0  0.262417  0  0.973301  0  0  0.293228  0.253366  0  0.977424  0
H  H8  1  0.83879503  0.46732274  0.59373787  1  0  0.157836  0  0.936402  0  0  0.170716  0  0.99353  0  0  0.174589  0  0.991226  0  0  0.116615  0.167988  0  0.995258  0
H  H9  1  0.33879553  0.03267750  0.90626408  1  0  0.157871  0  0.936321  0  0  0.170742  0  0.993471  0  0  0.174624  0  0.991171  0  0  0.116631  0.168014  0  0.995196  0
H  H10  1  0.16120401  0.53267845  0.40626429  1  0  0.157856  0  0.936351  0  0  0.170712  0  0.993495  0  0  0.174588  0  0.991197  0  0  0.11662  0.167982  0  0.995225  0
H  H11  1  0.66120650  0.96732236  0.09373516  1  0  0.1579  0  0.936315  0  0  0.170775  0  0.993457  0  0  0.174657  0  0.991153  0  0  0.116641  0.168046  0  0.995182  0
H  H12  1  0.60274072  0.43060844  0.53399917  1  0  0.146564  0  0.961349  0  0  0.152296  0  1.027383  0  0  0.156807  0  1.024109  0  0  0.104471  0.149077  0  1.029821  0
H  H13  1  0.10274768  0.06938544  0.96600522  1  0  0.14672  0  0.961214  0  0  0.152447  0  1.027222  0  0  0.156975  0  1.023939  0  0  0.104517  0.149221  0  1.029663  0
H  H14  1  0.39725832  0.56939538  0.46600102  1  0  0.14658  0  0.961313  0  0  0.152274  0  1.027387  0  0  0.15679  0  1.024117  0  0  0.104458  0.149054  0  1.029826  0
H  H15  1  0.89725435  0.93061177  0.03399457  1  0  0.146704  0  0.961231  0  0  0.152427  0  1.027254  0  0  0.156958  0  1.023964  0  0  0.104511  0.149202  0  1.029695  0
H  H16  1  0.75474397  0.26998286  0.97580433  1  0  0.085394  0  0.937486  0  0  0.102487  0  0.996745  0  0  0.102896  0  0.997381  0  0  0.108951  0.102081  0  0.996437  0
H  H17  1  0.25474335  0.23001527  0.52419297  1  0  0.085412  0  0.937539  0  0  0.102534  0  0.996794  0  0  0.102941  0  0.997428  0  0  0.108988  0.102134  0  0.996484  0
H  H18  1  0.24525506  0.73001965  0.02419791  1  0  0.085376  0  0.937503  0  0  0.102554  0  0.996715  0  0  0.102965  0  0.997347  0  0  0.108972  0.102148  0  0.996407  0
H  H19  1  0.74525868  0.76998326  0.47580548  1  0  0.08544  0  0.937477  0  0  0.102579  0  0.996711  0  0  0.102988  0  0.997346  0  0  0.109009  0.102178  0  0.996402  0
H  H20  1  0.53514910  0.28533482  0.90658626  1  0  0.068581  0  0.951486  0  0  0.085756  0  1.015388  0  0  0.085645  0  1.016267  0  0  0.103325  0.085677  0  1.015017  0
H  H21  1  0.03514957  0.21466873  0.59341067  1  0  0.068712  0  0.951335  0  0  0.085837  0  1.015331  0  0  0.085729  0  1.016205  0  0  0.103345  0.085759  0  1.014958  0
H  H22  1  0.46485144  0.71466636  0.09341448  1  0  0.068588  0  0.951523  0  0  0.085789  0  1.015434  0  0  0.085675  0  1.016314  0  0  0.103331  0.085709  0  1.01506  0
H  H23  1  0.96485097  0.78532847  0.40658770  1  0  0.068587  0  0.951392  0  0  0.08581  0  1.015275  0  0  0.085701  0  1.016149  0  0  0.103344  0.085732  0  1.014901  0
H  H24  1  0.41505043  0.58934066  0.87874426  1  0  0.074116  0  0.918359  0  0  0.089961  0  0.98132  0  0  0.09056  0  0.981492  0  0  0.105119  0.089373  0  0.981436  0
H  H25  1  0.91505683  0.91066498  0.62125824  1  0  0.074189  0  0.918338  0  0  0.090022  0  0.981274  0  0  0.090623  0  0.981444  0  0  0.105163  0.089435  0  0.981386  0
H  H26  1  0.58494711  0.41065920  0.12125711  1  0  0.074094  0  0.918354  0  0  0.089948  0  0.981323  0  0  0.090547  0  0.981493  0  0  0.105108  0.089358  0  0.981437  0
H  H27  1  0.08494520  0.08933091  0.37874076  1  0  0.074165  0  0.91834  0  0  0.08998  0  0.981301  0  0  0.090581  0  0.981473  0  0  0.105134  0.089394  0  0.981408  0
H  H28  1  0.55622826  0.77372542  0.92847102  1  0  0.078028  0  0.92719  0  0  0.098253  0  0.984359  0  0  0.098163  0  0.985155  0  0  0.109422  0.098179  0  0.983928  0
H  H29  1  0.05623879  0.72627865  0.57153311  1  0  0.078149  0  0.92714  0  0  0.098336  0  0.984307  0  0  0.09825  0  0.985106  0  0  0.109433  0.098261  0  0.983877  0
H  H30  1  0.44376779  0.22627708  0.07152980  1  0  0.078047  0  0.927184  0  0  0.098279  0  0.984356  0  0  0.098189  0  0.985152  0  0  0.109437  0.098202  0  0.983925  0
H  H31  1  0.94376473  0.27371855  0.42846455  1  0  0.078106  0  0.927231  0  0  0.098292  0  0.984398  0  0  0.098202  0  0.985195  0  0  0.109408  0.098201  0  0.98399  0
H  H32  1  0.16300008  0.40194240  0.72033483  1  0  0.415371  0  0.892906  0  0  0.382307  0  0.960394  0  0  0.394011  0  0.943392  0  0  0.288194  0.37406  0  0.97235  0
H  H33  1  0.66300413  0.09805505  0.77966925  1  0  0.415377  0  0.892917  0  0  0.382296  0  0.96044  0  0  0.394005  0  0.943431  0  0  0.288161  0.374044  0  0.972401  0
H  H34  1  0.83699896  0.59805482  0.27966638  1  0  0.415367  0  0.892927  0  0  0.382288  0  0.960449  0  0  0.393996  0  0.943442  0  0  0.288162  0.374042  0  0.972404  0
H  H35  1  0.33699341  0.90194613  0.22033078  1  0  0.415384  0  0.892902  0  0  0.382302  0  0.960426  0  0  0.394009  0  0.943419  0  0  0.288159  0.374051  0  0.972386  0
H  H36  1  0.14685340  0.61987444  0.72115918  1  0  0.417447  0  0.896228  0  0  0.382996  0  0.965942  0  0  0.394818  0  0.94888  0  0  0.287289  0.374689  0  0.977906  0
H  H37  1  0.64685028  0.88012506  0.77884212  1  0  0.417432  0  0.896279  0  0  0.383031  0  0.965924  0  0  0.394864  0  0.948846  0  0  0.287293  0.374722  0  0.977888  0
H  H38  1  0.85314265  0.38012278  0.27884061  1  0  0.417402  0  0.896289  0  0  0.382954  0  0.965996  0  0  0.394781  0  0.948927  0  0  0.28727  0.374648  0  0.977959  0
H  H39  1  0.35315026  0.11987612  0.22115791  1  0  0.417428  0  0.896281  0  0  0.383029  0  0.965925  0  0  0.394863  0  0.948847  0  0  0.287299  0.374721  0  0.977888  0
C  C40  1  0.61235920  0.63122585  0.65720173  1  0  0.747921  0  3.786774  0  0  0.695642  0  4.083747  0  0  0.730621  0  4.075641  0  0  0.223814  0.671838  0  4.088631  0
C  C41  1  0.11238556  0.86878437  0.84278161  1  0  0.74769  0  3.787167  0  0  0.695367  0  4.084209  0  0  0.730332  0  4.07613  0  0  0.223489  0.67157  0  4.089082  0
C  C42  1  0.38763983  0.36877533  0.34279901  1  0  0.747902  0  3.786856  0  0  0.695596  0  4.083847  0  0  0.730585  0  4.07574  0  0  0.223803  0.67179  0  4.088731  0
C  C43  1  0.88761946  0.13121416  0.15721755  1  0  0.747519  0  3.787316  0  0  0.695302  0  4.084193  0  0  0.730286  0  4.076095  0  0  0.223504  0.671502  0  4.089073  0
C  C44  1  0.67597459  0.45509846  0.60371937  1  0  -0.456616  0  3.630418  0  0  -0.492937  0  3.872941  0  0  -0.504014  0  3.872305  0  0  -0.174892  -0.485372  0  3.87334  0
C  C45  1  0.17597036  0.04490419  0.89628648  1  0  -0.456713  0  3.630191  0  0  -0.49304  0  3.872813  0  0  -0.504164  0  3.872228  0  0  -0.174915  -0.485484  0  3.873214  0
C  C46  1  0.32402445  0.54490139  0.39628058  1  0  -0.456626  0  3.630348  0  0  -0.492858  0  3.872856  0  0  -0.503969  0  3.872261  0  0  -0.174872  -0.485293  0  3.873256  0
C  C47  1  0.82403167  0.95509831  0.10371291  1  0  -0.45666  0  3.63016  0  0  -0.493043  0  3.87279  0  0  -0.504161  0  3.872174  0  0  -0.174882  -0.485484  0  3.873188  0
C  C48  1  0.64800389  0.29469181  0.65796224  1  0  0.748065  0  3.780425  0  0  0.691274  0  4.085796  0  0  0.726823  0  4.076212  0  0  0.222224  0.667123  0  4.091699  0
C  C49  1  0.14801982  0.20528851  0.84202796  1  0  0.748549  0  3.780609  0  0  0.691692  0  4.08604  0  0  0.727256  0  4.076455  0  0  0.222502  0.667539  0  4.091945  0
C  C50  1  0.35199366  0.70530805  0.34203699  1  0  0.748084  0  3.7805  0  0  0.691241  0  4.08593  0  0  0.726793  0  4.076354  0  0  0.222229  0.667092  0  4.091828  0
C  C51  1  0.85197922  0.79471400  0.15797357  1  0  0.748518  0  3.780556  0  0  0.691685  0  4.085966  0  0  0.727256  0  4.07637  0  0  0.222477  0.667531  0  4.091869  0
C  C52  1  0.61990080  0.34894191  0.96791690  1  0  -0.005215  0  3.621937  0  0  -0.064216  0  3.884535  0  0  -0.060816  0  3.897161  0  0  -0.081964  -0.06645  0  3.875916  0
C  C53  1  0.11990253  0.15105844  0.53208153  1  0  -0.005225  0  3.621954  0  0  -0.064326  0  3.884642  0  0  -0.060922  0  3.897264  0  0  -0.081966  -0.066553  0  3.876015  0
C  C54  1  0.38009674  0.65106192  0.03208542  1  0  -0.005137  0  3.621805  0  0  -0.064344  0  3.884605  0  0  -0.060941  0  3.897225  0  0  -0.081989  -0.066576  0  3.875986  0
C  C55  1  0.88009950  0.84893877  0.46791755  1  0  -0.005084  0  3.621726  0  0  -0.064262  0  3.884459  0  0  -0.060863  0  3.897086  0  0  -0.081955  -0.06649  0  3.875836  0
C  C56  1  0.50561733  0.64107350  0.94097253  1  0  0.004351  0  3.618471  0  0  -0.053788  0  3.883464  0  0  -0.050479  0  3.896404  0  0  -0.077505  -0.055909  0  3.874579  0
C  C57  1  0.00562493  0.85892826  0.55902917  1  0  0.004074  0  3.618709  0  0  -0.053973  0  3.883593  0  0  -0.050672  0  3.896548  0  0  -0.077519  -0.056087  0  3.8747  0
C  C58  1  0.49438021  0.35892636  0.05902884  1  0  0.004446  0  3.618494  0  0  -0.053771  0  3.88349  0  0  -0.050462  0  3.896435  0  0  -0.077495  -0.055888  0  3.874599  0
C  C59  1  0.99437710  0.14106762  0.44096841  1  0  0.004217  0  3.618779  0  0  -0.053824  0  3.883638  0  0  -0.050519  0  3.896588  0  0  -0.077434  -0.055929  0  3.874745  0
N  N60  1  0.68339357  0.52523645  0.94380742  1  0  -0.417619  0  3.188689  0  0  -0.341828  0  3.447463  0  0  -0.361167  0  3.45615  0  0  -0.481337  -0.328291  0  3.441062  0
N  N61  1  0.18339704  0.97476544  0.55619484  1  0  -0.41753  0  3.188715  0  0  -0.341745  0  3.447501  0  0  -0.361097  0  3.456202  0  0  -0.48129  -0.328202  0  3.441094  0
N  N62  1  0.31660547  0.47476605  0.05619411  1  0  -0.417688  0  3.188605  0  0  -0.341861  0  3.447382  0  0  -0.361211  0  3.45608  0  0  -0.481351  -0.328322  0  3.440977  0
N  N63  1  0.81660648  0.02523441  0.44380368  1  0  -0.417712  0  3.188816  0  0  -0.341926  0  3.447585  0  0  -0.361289  0  3.456294  0  0  -0.481392  -0.32838  0  3.441173  0
O  O64  1  0.68454313  0.67442009  0.74109341  1  0  -0.662059  0  2.116783  0  0  -0.584031  0  2.369889  0  0  -0.613728  0  2.35836  0  0  -0.310667  -0.563462  0  2.377272  0
O  O65  1  0.18453435  0.82558977  0.75892000  1  0  -0.661788  0  2.117787  0  0  -0.58369  0  2.370879  0  0  -0.613307  0  2.359291  0  0  -0.310425  -0.563142  0  2.378274  0
O  O66  1  0.31545741  0.32558240  0.25890456  1  0  -0.662051  0  2.116833  0  0  -0.584025  0  2.369959  0  0  -0.613723  0  2.358429  0  0  -0.310663  -0.563452  0  2.377338  0
O  O67  1  0.81546768  0.17441140  0.24107790  1  0  -0.661685  0  2.117724  0  0  -0.583603  0  2.370745  0  0  -0.613261  0  2.359186  0  0  -0.310412  -0.563053  0  2.37814  0
O  O68  1  0.49763383  0.72970136  0.61509543  1  0  -0.625442  0  1.981876  0  0  -0.56195  0  2.235346  0  0  -0.587805  0  2.222461  0  0  -0.306094  -0.543968  0  2.243627  0
O  O69  1  0.99762573  0.77028657  0.88491124  1  0  -0.625563  0  1.981199  0  0  -0.562011  0  2.234643  0  0  -0.587921  0  2.221847  0  0  -0.30604  -0.544009  0  2.242886  0
O  O70  1  0.50236371  0.27029850  0.38490523  1  0  -0.625414  0  1.981923  0  0  -0.561901  0  2.235385  0  0  -0.587747  0  2.222486  0  0  -0.306079  -0.543928  0  2.243686  0
O  O71  1  0.00238378  0.22971064  0.11508855  1  0  -0.625504  0  1.981297  0  0  -0.562005  0  2.23471  0  0  -0.587917  0  2.221904  0  0  -0.306095  -0.544004  0  2.242956  0
O  O72  1  0.71666274  0.29702367  0.74287322  1  0  -0.649587  0  2.064646  0  0  -0.57385  0  2.313278  0  0  -0.602874  0  2.301991  0  0  -0.305854  -0.553708  0  2.320389  0
O  O73  1  0.21664911  0.20298802  0.75714681  1  0  -0.649666  0  2.066001  0  0  -0.573841  0  2.314527  0  0  -0.602876  0  2.303244  0  0  -0.305894  -0.553721  0  2.32165  0
O  O74  1  0.28333181  0.70297751  0.25712680  1  0  -0.649598  0  2.064763  0  0  -0.573822  0  2.313379  0  0  -0.602841  0  2.302087  0  0  -0.305832  -0.553676  0  2.320475  0
O  O75  1  0.78334693  0.79701184  0.24285314  1  0  -0.649642  0  2.066082  0  0  -0.57384  0  2.314643  0  0  -0.602867  0  2.303345  0  0  -0.305877  -0.553731  0  2.321789  0
O  O76  1  0.56123498  0.16120043  0.61323308  1  0  -0.644204  0  2.013295  0  0  -0.574738  0  2.265333  0  0  -0.600628  0  2.251656  0  0  -0.311318  -0.557026  0  2.274506  0
O  O77  1  0.06120838  0.33881754  0.88677832  1  0  -0.644643  0  2.012438  0  0  -0.575163  0  2.264532  0  0  -0.601027  0  2.250818  0  0  -0.311533  -0.55743  0  2.27368  0
O  O78  1  0.43876854  0.83879942  0.38676474  1  0  -0.644237  0  2.013384  0  0  -0.574748  0  2.265435  0  0  -0.600625  0  2.25174  0  0  -0.311347  -0.55704  0  2.274606  0
O  O79  1  0.93879066  0.66118100  0.11322297  1  0  -0.644631  0  2.01231  0  0  -0.575151  0  2.2644  0  0  -0.601046  0  2.250716  0  0  -0.31155  -0.557422  0  2.27355  0
O  O80  1  0.07811480  0.50295196  0.70530079  1  0  -0.849092  0  1.953582  0  0  -0.788733  0  2.165725  0  0  -0.812052  0  2.130901  0  0  -0.583644  -0.77219  0  2.189619  0
O  O81  1  0.57812125  0.99704932  0.79470324  1  0  -0.849069  0  1.953582  0  0  -0.788726  0  2.165643  0  0  -0.812054  0  2.130799  0  0  -0.583609  -0.772181  0  2.189545  0
O  O82  1  0.92188274  0.49704525  0.29469971  1  0  -0.849035  0  1.953677  0  0  -0.788673  0  2.165812  0  0  -0.811997  0  2.130981  0  0  -0.583586  -0.772129  0  2.189702  0
O  O83  1  0.42187928  0.00295053  0.20529600  1  0  -0.849055  0  1.95355  0  0  -0.788724  0  2.165624  0  0  -0.812047  0  2.130771  0  0  -0.583614  -0.772178  0  2.18952  0
