# generated using pymatgen
data_CdH30C36N4(ClO2)2
_symmetry_space_group_name_H-M   'P 1'
_cell_length_a   12.66270719
_cell_length_b   12.66273415
_cell_length_c   28.29523104
_cell_angle_alpha   88.90975323
_cell_angle_beta   88.90971003
_cell_angle_gamma   86.20300349
_symmetry_Int_Tables_number   1
_chemical_formula_structural   CdH30C36N4(ClO2)2
_chemical_formula_sum   'Cd4 H120 C144 N16 Cl8 O16'
_cell_volume   4525.48810013
_cell_formula_units_Z   4
loop_
 _symmetry_equiv_pos_site_id
 _symmetry_equiv_pos_as_xyz
  1  'x, y, z'
loop_
 _atom_site_type_symbol
 _atom_site_label
 _atom_site_symmetry_multiplicity
 _atom_site_fract_x
 _atom_site_fract_y
 _atom_site_fract_z
 _atom_site_occupancy
 _atom_site_pbe_bader_charge
 _atom_site_pbe_bader_spin_density
 _atom_site_pbe_cm5_charge
 _atom_site_pbe_ddec_charge
 _atom_site_pbe_ddec_spin_density
 _atom_site_pbe_ddec_sum_bond_order
 _atom_site_pbe_magmom
Cd  Cd0  1  0.17666815  0.70942381  0.47597403  1  1.151335  0  0.664645  0.693687  0  2.509288  0
Cd  Cd1  1  0.70941989  0.17666277  0.97597563  1  1.151437  0  0.664615  0.693638  0  2.509299  0
Cd  Cd2  1  0.29058205  0.82333471  0.02402517  1  1.151438  0  0.664636  0.693687  0  2.509211  0
Cd  Cd3  1  0.82333376  0.29057998  0.52402849  1  1.151407  0  0.664657  0.693719  0  2.50925  0
H  H4  1  0.57835946  0.25556792  0.87881709  1  0.113554  0  0.112308  0.086453  0  0.994832  0
H  H5  1  0.56931892  0.40587120  0.81993176  1  0.105782  0  0.105154  0.112692  0  1.059039  0
H  H6  1  0.83328772  0.37015341  0.94552709  1  0.132688  0  0.10788  0.090029  0  1.014069  0
H  H7  1  0.82471601  0.53580112  0.89464864  1  0.077096  0  0.110809  0.121608  0  0.98547  0
H  H8  1  0.39572661  0.58145348  0.49651501  1  0.097631  0  0.103648  0.078868  0  1.030824  0
H  H9  1  0.55688191  0.57570993  0.54806278  1  0.095162  0  0.104289  0.118434  0  1.022046  0
H  H10  1  0.39862642  0.82842904  0.62826475  1  0.090935  0  0.108265  0.119007  0  0.990146  0
H  H11  1  0.25096121  0.83161891  0.56960542  1  0.118027  0  0.114508  0.088444  0  0.990344  0
H  H12  1  0.68730831  0.70732584  0.56257724  1  0.11694  0  0.107463  0.118852  0  1.002048  0
H  H13  1  0.41848997  0.57761014  0.65395315  1  0.038812  0  0.09262  0.092638  0  1.029138  0
H  H14  1  0.34734613  0.61185460  0.70740544  1  0.048624  0  0.106004  0.117028  0  0.977237  0
H  H15  1  0.46816813  0.53050058  0.71000487  1  0.061625  0  0.093618  0.093982  0  1.03954  0
H  H16  1  0.92673565  0.82807633  0.67495634  1  0.068654  0  0.097091  0.098237  0  1.004878  0
H  H17  1  0.97436524  0.77594688  0.73064256  1  0.047965  0  0.104631  0.109936  0  0.974845  0
H  H18  1  0.84740441  0.84835938  0.72778841  1  0.055099  0  0.094818  0.096478  0  1.014004  0
H  H19  1  0.81739527  0.85725252  0.56043709  1  0.114826  0  0.103492  0.125792  0  1.007145  0
H  H20  1  0.97887051  0.86000932  0.50865823  1  0.131211  0  0.108734  0.095367  0  1.008616  0
H  H21  1  0.11562376  0.59096571  0.57367441  1  0.087253  0  0.10457  0.072611  0  1.038031  0
H  H22  1  0.96210868  0.57823667  0.63038562  1  0.064872  0  0.102461  0.109868  0  1.012877  0
H  H23  1  0.68679533  0.67585261  0.88835347  1  0.069616  0  0.108939  0.114281  0  1.003955  0
H  H24  1  0.83805733  0.49113475  0.72477817  1  0.088903  0  0.096404  0.096921  0  1.024023  0
H  H25  1  0.76990277  0.37094382  0.72550140  1  0.065811  0  0.103991  0.110856  0  0.990794  0
H  H26  1  0.81552227  0.42140245  0.77972510  1  0.050379  0  0.093025  0.08929  0  1.019921  0
H  H27  1  0.48612369  0.86349548  0.73866818  1  0.075326  0  0.095924  0.09929  0  1.021425  0
H  H28  1  0.53690853  0.99200236  0.73091901  1  0.067551  0  0.105883  0.113704  0  0.988285  0
H  H29  1  0.51024596  0.94178488  0.78937835  1  0.054525  0  0.092177  0.089542  0  1.014193  0
H  H30  1  0.76187680  0.96741955  0.80893458  1  0.060907  0  0.105867  0.115629  0  1.009754  0
H  H31  1  0.77884274  0.11117000  0.86738572  1  0.09166  0  0.112312  0.081718  0  0.995429  0
H  H32  1  0.59359096  0.96039901  0.96691579  1  0.151787  0  0.107782  0.090537  0  1.021278  0
H  H33  1  0.57790910  0.80791882  0.91589170  1  0.093865  0  0.102779  0.115265  0  1.021746  0
H  H34  1  0.25556992  0.57836017  0.37881692  1  0.11357  0  0.112326  0.086489  0  0.994826  0
H  H35  1  0.40587207  0.56932047  0.31993120  1  0.105767  0  0.105146  0.112668  0  1.059035  0
H  H36  1  0.37015419  0.83328762  0.44552766  1  0.132597  0  0.107922  0.09005  0  1.014093  0
H  H37  1  0.53580223  0.82471676  0.39464882  1  0.077076  0  0.110789  0.12161  0  0.985471  0
H  H38  1  0.58144977  0.39572843  0.99651520  1  0.097613  0  0.103655  0.078875  0  1.030811  0
H  H39  1  0.57570671  0.55688266  0.04806436  1  0.095235  0  0.104276  0.118419  0  1.022014  0
H  H40  1  0.82842964  0.39862729  0.12826446  1  0.090933  0  0.108296  0.119128  0  0.990131  0
H  H41  1  0.83161772  0.25096556  0.06960474  1  0.118148  0  0.114538  0.088455  0  0.990376  0
H  H42  1  0.70732251  0.68730797  0.06257918  1  0.117024  0  0.107436  0.118818  0  1.001971  0
H  H43  1  0.57761111  0.41849050  0.15395326  1  0.038811  0  0.092622  0.092664  0  1.029129  0
H  H44  1  0.61185331  0.34734607  0.20740520  1  0.04861  0  0.106007  0.117044  0  0.977231  0
H  H45  1  0.53050062  0.46816824  0.21000465  1  0.057578  0  0.093625  0.093999  0  1.039579  0
H  H46  1  0.82807634  0.92673448  0.17495545  1  0.068609  0  0.097071  0.098187  0  1.004909  0
H  H47  1  0.77594930  0.97436492  0.23064202  1  0.04799  0  0.104642  0.109972  0  0.974771  0
H  H48  1  0.84836749  0.84740585  0.22778813  1  0.055126  0  0.094767  0.096408  0  1.01403  0
H  H49  1  0.85724821  0.81739431  0.06043868  1  0.115247  0  0.103474  0.125761  0  1.007126  0
H  H50  1  0.86000327  0.97886820  0.00865987  1  0.130836  0  0.108771  0.09539  0  1.008651  0
H  H51  1  0.59095859  0.11562139  0.07367596  1  0.087126  0  0.104621  0.072665  0  1.037995  0
H  H52  1  0.57823243  0.96210643  0.13038835  1  0.064767  0  0.102445  0.109825  0  1.012922  0
H  H53  1  0.67585170  0.68679718  0.38835256  1  0.069632  0  0.108957  0.114296  0  1.003953  0
H  H54  1  0.49113515  0.83805520  0.22477874  1  0.088925  0  0.096407  0.096941  0  1.02406  0
H  H55  1  0.37094539  0.76990102  0.22550161  1  0.065762  0  0.104001  0.110859  0  0.99082  0
H  H56  1  0.42140270  0.81552034  0.27972532  1  0.050374  0  0.093043  0.089316  0  1.019921  0
H  H57  1  0.86349394  0.48612269  0.23866793  1  0.075296  0  0.095918  0.099281  0  1.021412  0
H  H58  1  0.99200206  0.53690828  0.23091873  1  0.06758  0  0.105891  0.113721  0  0.988274  0
H  H59  1  0.94178327  0.51024499  0.28937844  1  0.054532  0  0.092164  0.089515  0  1.014186  0
H  H60  1  0.96741881  0.76187780  0.30893434  1  0.060916  0  0.105862  0.115649  0  1.009662  0
H  H61  1  0.11117000  0.77884255  0.36738598  1  0.091663  0  0.112315  0.081701  0  0.995422  0
H  H62  1  0.96039791  0.59359138  0.46691588  1  0.151798  0  0.107791  0.090567  0  1.021246  0
H  H63  1  0.80791724  0.57790965  0.41589147  1  0.093843  0  0.102775  0.115259  0  1.021783  0
H  H64  1  0.74443203  0.42163654  0.62118141  1  0.1136  0  0.112321  0.086452  0  0.994877  0
H  H65  1  0.59413066  0.43068251  0.68006672  1  0.105846  0  0.105151  0.112704  0  1.05903  0
H  H66  1  0.62984697  0.16670676  0.55447282  1  0.132795  0  0.1079  0.090072  0  1.014133  0
H  H67  1  0.46419891  0.17528314  0.60535197  1  0.077082  0  0.110796  0.121619  0  0.985532  0
H  H68  1  0.41854740  0.60427409  0.00348666  1  0.097604  0  0.103659  0.078868  0  1.030744  0
H  H69  1  0.42429046  0.44311827  0.95193822  1  0.095143  0  0.104301  0.118471  0  1.021977  0
H  H70  1  0.17157150  0.60137419  0.87173561  1  0.090956  0  0.108278  0.119046  0  0.990164  0
H  H71  1  0.16838104  0.74903766  0.93039533  1  0.11809  0  0.114513  0.088444  0  0.99038  0
H  H72  1  0.29267625  0.31269208  0.93742233  1  0.116965  0  0.107465  0.118812  0  1.002057  0
H  H73  1  0.42238845  0.58150951  0.84604683  1  0.038818  0  0.092632  0.092659  0  1.029136  0
H  H74  1  0.38814467  0.65265325  0.79259456  1  0.048627  0  0.106003  0.117036  0  0.977249  0
H  H75  1  0.46949973  0.53183250  0.78999507  1  0.057573  0  0.093616  0.093992  0  1.039521  0
H  H76  1  0.17192480  0.07326701  0.82504391  1  0.068657  0  0.097091  0.098236  0  1.004887  0
H  H77  1  0.22405342  0.02563726  0.76935732  1  0.048004  0  0.10464  0.109996  0  0.974779  0
H  H78  1  0.15163919  0.15259766  0.77221153  1  0.055052  0  0.094815  0.096481  0  1.014026  0
H  H79  1  0.14274975  0.18260973  0.93956386  1  0.114959  0  0.103496  0.125788  0  1.007034  0
H  H80  1  0.13999311  0.02113357  0.99134200  1  0.130736  0  0.108744  0.095387  0  1.008628  0
H  H81  1  0.40903621  0.88438049  0.92632521  1  0.087193  0  0.10456  0.072624  0  1.038046  0
H  H82  1  0.42176316  0.03789303  0.86961319  1  0.064884  0  0.102451  0.109853  0  1.012848  0
H  H83  1  0.32414705  0.31321077  0.61164713  1  0.069658  0  0.108953  0.114299  0  1.004043  0
H  H84  1  0.50886600  0.16194312  0.77522171  1  0.088906  0  0.096385  0.096923  0  1.024054  0
H  H85  1  0.62905575  0.23009889  0.77449847  1  0.065775  0  0.104008  0.110851  0  0.990788  0
H  H86  1  0.57859765  0.18447882  0.72027512  1  0.050405  0  0.093043  0.089311  0  1.019903  0
H  H87  1  0.13650325  0.51387430  0.76133256  1  0.075262  0  0.09595  0.099333  0  1.021435  0
H  H88  1  0.00799910  0.46308847  0.76908137  1  0.067556  0  0.105915  0.113801  0  0.988252  0
H  H89  1  0.05821392  0.48975279  0.71062239  1  0.054545  0  0.092178  0.089575  0  1.014198  0
H  H90  1  0.03258312  0.23812680  0.69106429  1  0.060955  0  0.105866  0.115653  0  1.009789  0
H  H91  1  0.88883114  0.22115736  0.63261375  1  0.091506  0  0.112334  0.081744  0  0.995396  0
H  H92  1  0.03960165  0.40641021  0.53308385  1  0.151811  0  0.107817  0.090577  0  1.021398  0
H  H93  1  0.19208073  0.42209441  0.58410755  1  0.093811  0  0.102757  0.115244  0  1.021786  0
H  H94  1  0.42163694  0.74443150  0.12118126  1  0.11362  0  0.112339  0.086499  0  0.994857  0
H  H95  1  0.43067905  0.59413050  0.18006727  1  0.105866  0  0.10513  0.112695  0  1.059075  0
H  H96  1  0.16671027  0.62984512  0.05447091  1  0.132588  0  0.107928  0.090073  0  1.014201  0
H  H97  1  0.17528356  0.46419731  0.10534970  1  0.077068  0  0.110834  0.121648  0  0.985573  0
H  H98  1  0.60427373  0.41854805  0.50348577  1  0.097623  0  0.103646  0.078837  0  1.030757  0
H  H99  1  0.44311764  0.42429087  0.45193766  1  0.095144  0  0.104294  0.118442  0  1.022022  0
H  H100  1  0.60137235  0.17157022  0.37173606  1  0.090911  0  0.108274  0.119063  0  0.990122  0
H  H101  1  0.74903915  0.16838026  0.43039503  1  0.117996  0  0.114504  0.088444  0  0.990368  0
H  H102  1  0.31268888  0.29267432  0.43742181  1  0.116982  0  0.107463  0.118837  0  1.002005  0
H  H103  1  0.58151038  0.42238982  0.34604729  1  0.038792  0  0.092599  0.092597  0  1.029093  0
H  H104  1  0.65265501  0.38814609  0.29259464  1  0.048611  0  0.106008  0.117023  0  0.977227  0
H  H105  1  0.53183301  0.46949932  0.28999556  1  0.061646  0  0.093623  0.093996  0  1.039529  0
H  H106  1  0.07326628  0.17192511  0.32504337  1  0.068675  0  0.097108  0.098252  0  1.004915  0
H  H107  1  0.02563591  0.22405224  0.26935681  1  0.047971  0  0.104628  0.109975  0  0.974789  0
H  H108  1  0.15259675  0.15163658  0.27221099  1  0.055159  0  0.094802  0.096468  0  1.014017  0
H  H109  1  0.18260509  0.14274744  0.43956158  1  0.114836  0  0.103502  0.125813  0  1.007138  0
H  H110  1  0.02113220  0.13999444  0.49134146  1  0.130765  0  0.108765  0.095411  0  1.008606  0
H  H111  1  0.88437895  0.40903883  0.42632598  1  0.087189  0  0.104586  0.072657  0  1.037977  0
H  H112  1  0.03789168  0.42176251  0.36961235  1  0.064866  0  0.102462  0.109864  0  1.012796  0
H  H113  1  0.31320661  0.32414725  0.11164589  1  0.06959  0  0.108933  0.114269  0  1.003999  0
H  H114  1  0.16194461  0.50886432  0.27522120  1  0.088924  0  0.096405  0.096926  0  1.024076  0
H  H115  1  0.23009601  0.62905545  0.27449835  1  0.066145  0  0.103995  0.110861  0  0.990778  0
H  H116  1  0.18447809  0.57859672  0.22027464  1  0.05035  0  0.093025  0.089297  0  1.019916  0
H  H117  1  0.51387586  0.13650610  0.26133226  1  0.075202  0  0.09592  0.099324  0  1.021475  0
H  H118  1  0.46309102  0.00800001  0.26908142  1  0.067583  0  0.105904  0.113775  0  0.988248  0
H  H119  1  0.48975518  0.05821660  0.21062208  1  0.054551  0  0.092187  0.089581  0  1.014165  0
H  H120  1  0.23812355  0.03258120  0.19106444  1  0.060922  0  0.105866  0.115668  0  1.009817  0
H  H121  1  0.22115762  0.88883075  0.13261365  1  0.091668  0  0.112311  0.081696  0  0.995469  0
H  H122  1  0.40640939  0.03960174  0.03308359  1  0.151748  0  0.107785  0.090565  0  1.021259  0
H  H123  1  0.42209283  0.19208341  0.08410765  1  0.093835  0  0.102774  0.11528  0  1.02172  0
C  C124  1  0.63388210  0.31792910  0.87968023  1  0.453188  0  0.04512  0.092257  0  3.97171  0
C  C125  1  0.62769737  0.40290248  0.84771753  1  -0.071034  0  -0.090018  -0.188085  0  3.939739  0
C  C126  1  0.69510200  0.48525430  0.85327652  1  0.019111  0  0.009501  0.127854  0  4.005122  0
C  C127  1  0.77406694  0.38430830  0.91815945  1  0.460418  0  0.044766  0.101129  0  3.963501  0
C  C128  1  0.76993671  0.47439259  0.88930619  1  -0.045079  0  -0.088194  -0.188683  0  3.951003  0
C  C129  1  0.40197565  0.63621664  0.52550405  1  0.507033  0  0.040738  0.094277  0  3.97586  0
C  C130  1  0.48929291  0.63192668  0.55459794  1  -0.040573  0  -0.087101  -0.18249  0  3.932349  0
C  C131  1  0.48937734  0.70100647  0.59278989  1  -0.040904  0  0.011321  0.130591  0  4.004863  0
C  C132  1  0.40138747  0.77291626  0.59925818  1  -0.026216  0  -0.086428  -0.180309  0  3.946824  0
C  C133  1  0.31902684  0.77416091  0.56735471  1  0.493313  0  0.046087  0.094145  0  3.969407  0
C  C134  1  0.58290177  0.69957256  0.62313231  1  0.107422  0  -0.021094  -0.05031  0  4.029531  0
C  C135  1  0.68202205  0.70477378  0.60105918  1  -0.09148  0  -0.076969  -0.130394  0  3.965141  0
C  C136  1  0.77547261  0.70574382  0.62643310  1  -0.039202  0  -0.014863  -0.036589  0  4.013502  0
C  C137  1  0.76825968  0.69848843  0.67596916  1  0.492379  0  0.086823  0.174098  0  3.995802  0
C  C138  1  0.57721028  0.69405232  0.67285157  1  0.432244  0  0.086468  0.175946  0  3.999448  0
C  C139  1  0.66967013  0.69350270  0.69939995  1  0.11334  0  -0.020057  -0.100281  0  4.029658  0
C  C140  1  0.42617703  0.59704073  0.69135676  1  0.399048  0  -0.142874  -0.175767  0  3.900091  0
C  C141  1  0.90385333  0.79301248  0.70922441  1  0.37588  0  -0.136836  -0.163819  0  3.903092  0
C  C142  1  0.87524475  0.71523930  0.59926588  1  0.011107  0  0.013124  0.128953  0  3.991988  0
C  C143  1  0.88114138  0.79579346  0.56475497  1  -0.054563  0  -0.081972  -0.171118  0  3.91153  0
C  C144  1  0.97056240  0.79799442  0.53559148  1  0.490174  0  0.048384  0.105664  0  3.928575  0
C  C145  1  0.04813813  0.64906646  0.57297604  1  0.463706  0  0.038383  0.085782  0  3.986368  0
C  C146  1  0.96271863  0.64228437  0.60417499  1  0.004563  0  -0.086838  -0.173943  0  3.959346  0
C  C147  1  0.66675057  0.68841624  0.75192480  1  0.077113  0  -0.013834  -0.090359  0  4.018931  0
C  C148  1  0.65914559  0.78199170  0.77802273  1  0.459343  0  0.088984  0.177085  0  3.994682  0
C  C149  1  0.66776606  0.77913774  0.82762865  1  -0.018222  0  -0.019065  -0.045325  0  4.022442  0
C  C150  1  0.68032928  0.67975142  0.84997656  1  -0.01958  0  -0.082704  -0.141556  0  3.97435  0
C  C151  1  0.68460882  0.58491542  0.82535531  1  0.015653  0  -0.019694  -0.050878  0  4.039187  0
C  C152  1  0.67851479  0.59029793  0.77575821  1  0.475666  0  0.088909  0.175872  0  4.001905  0
C  C153  1  0.78285764  0.44301473  0.74481708  1  0.34087  0  -0.137678  -0.168832  0  3.888807  0
C  C154  1  0.53779695  0.92064924  0.75340270  1  0.346436  0  -0.138656  -0.166942  0  3.889635  0
C  C155  1  0.66884460  0.87388742  0.85724565  1  -0.048404  0  0.008327  0.124919  0  3.992782  0
C  C156  1  0.72371546  0.96286419  0.84362911  1  -0.027386  0  -0.090818  -0.185779  0  3.953864  0
C  C157  1  0.73233607  0.04340605  0.87581146  1  0.493875  0  0.042321  0.088836  0  3.984494  0
C  C158  1  0.63140360  0.95934570  0.93192394  1  0.524437  0  0.049338  0.108008  0  3.938921  0
C  C159  1  0.62176361  0.87387471  0.90256215  1  -0.043026  0  -0.086357  -0.182741  0  3.931641  0
C  C160  1  0.31793044  0.63388159  0.37968007  1  0.453194  0  0.045073  0.092105  0  3.97168  0
C  C161  1  0.40290336  0.62769915  0.34771734  1  -0.07102  0  -0.089953  -0.187911  0  3.939519  0
C  C162  1  0.48525414  0.69510232  0.35327635  1  0.019059  0  0.009549  0.127887  0  4.005069  0
C  C163  1  0.38431036  0.77406607  0.41816036  1  0.460456  0  0.044782  0.101149  0  3.963619  0
C  C164  1  0.47439307  0.76993748  0.38930673  1  -0.045083  0  -0.088242  -0.188799  0  3.951072  0
C  C165  1  0.63621340  0.40197259  0.02550562  1  0.507167  0  0.040714  0.09422  0  3.975731  0
C  C166  1  0.63192200  0.48929719  0.05460054  1  -0.040814  0  -0.087125  -0.182549  0  3.932311  0
C  C167  1  0.70100135  0.48937687  0.09279181  1  -0.040578  0  0.011364  0.130736  0  4.004924  0
C  C168  1  0.77291551  0.40138722  0.09925862  1  -0.026236  0  -0.086414  -0.180475  0  3.946751  0
C  C169  1  0.77415770  0.31902342  0.06735413  1  0.493224  0  0.046013  0.094132  0  3.969373  0
C  C170  1  0.69957044  0.58289981  0.12313423  1  0.10714  0  -0.021112  -0.050368  0  4.02959  0
C  C171  1  0.70477234  0.68202137  0.10106075  1  -0.091515  0  -0.076948  -0.13029  0  3.965122  0
C  C172  1  0.70574325  0.77547095  0.12643433  1  -0.039013  0  -0.014842  -0.036584  0  4.013607  0
C  C173  1  0.69849219  0.76826139  0.17596999  1  0.492377  0  0.086827  0.174242  0  3.995867  0
C  C174  1  0.69405284  0.57720835  0.17285171  1  0.432329  0  0.086504  0.176037  0  3.999427  0
C  C175  1  0.69350264  0.66966909  0.19940046  1  0.113415  0  -0.020075  -0.100461  0  4.02958  0
C  C176  1  0.59703976  0.42617551  0.19135690  1  0.399025  0  -0.142889  -0.175838  0  3.900079  0
C  C177  1  0.79301730  0.90385263  0.20922419  1  0.375803  0  -0.13676  -0.163673  0  3.903038  0
C  C178  1  0.71523431  0.87524271  0.09926787  1  0.010813  0  0.013176  0.128803  0  3.992267  0
C  C179  1  0.79578783  0.88113965  0.06475660  1  -0.055014  0  -0.081989  -0.171037  0  3.911447  0
C  C180  1  0.79798860  0.97056266  0.03559240  1  0.490788  0  0.048382  0.105674  0  3.928571  0
C  C181  1  0.64906136  0.04813600  0.07297791  1  0.463856  0  0.038215  0.085575  0  3.986482  0
C  C182  1  0.64228091  0.96271526  0.10417772  1  0.004475  0  -0.086704  -0.173633  0  3.959223  0
C  C183  1  0.68841786  0.66674824  0.25192566  1  0.077182  0  -0.013857  -0.090345  0  4.018973  0
C  C184  1  0.78199232  0.65914454  0.27802392  1  0.458676  0  0.08899  0.177114  0  3.994739  0
C  C185  1  0.77913799  0.66776669  0.32762878  1  -0.017655  0  -0.019079  -0.045384  0  4.022479  0
C  C186  1  0.67975282  0.68032953  0.34997669  1  -0.019621  0  -0.082696  -0.141519  0  3.974277  0
C  C187  1  0.58491730  0.68460977  0.32535510  1  0.015742  0  -0.019673  -0.050896  0  4.039194  0
C  C188  1  0.59029887  0.67851375  0.27575838  1  0.47566  0  0.088925  0.175878  0  4.001816  0
C  C189  1  0.44301471  0.78285678  0.24481694  1  0.340418  0  -0.137697  -0.168881  0  3.888815  0
C  C190  1  0.92064814  0.53779656  0.25340244  1  0.346431  0  -0.138663  -0.166957  0  3.889515  0
C  C191  1  0.87388639  0.66884303  0.35724578  1  -0.048407  0  0.008333  0.12498  0  3.992756  0
C  C192  1  0.96286327  0.72371392  0.34362959  1  -0.027365  0  -0.090846  -0.185888  0  3.953913  0
C  C193  1  0.04340494  0.73233723  0.37581137  1  0.493859  0  0.042354  0.088964  0  3.984557  0
C  C194  1  0.95934454  0.63140491  0.43192368  1  0.52439  0  0.049325  0.10798  0  3.938883  0
C  C195  1  0.87387336  0.62176420  0.40256297  1  -0.043002  0  -0.086326  -0.182699  0  3.931591  0
C  C196  1  0.68207230  0.36611664  0.62031860  1  0.453107  0  0.045116  0.092257  0  3.97162  0
C  C197  1  0.59709859  0.37230230  0.65228025  1  -0.070993  0  -0.089999  -0.188082  0  3.93981  0
C  C198  1  0.51474463  0.30489774  0.64672269  1  0.019136  0  0.009538  0.127879  0  4.005149  0
C  C199  1  0.61569079  0.22593068  0.58184010  1  0.460278  0  0.044867  0.101305  0  3.963447  0
C  C200  1  0.52560490  0.23006183  0.61069409  1  -0.04513  0  -0.088263  -0.188875  0  3.951085  0
C  C201  1  0.36378220  0.59802528  0.97449664  1  0.507067  0  0.040757  0.0943  0  3.9757  0
C  C202  1  0.36807358  0.51070621  0.94540238  1  -0.040565  0  -0.087114  -0.182567  0  3.93224  0
C  C203  1  0.29899662  0.51062244  0.90720971  1  -0.040755  0  0.011322  0.130684  0  4.004943  0
C  C204  1  0.22708484  0.59861115  0.90074218  1  -0.026321  0  -0.086407  -0.180401  0  3.946812  0
C  C205  1  0.22583869  0.68097520  0.93264635  1  0.493241  0  0.046092  0.094155  0  3.969416  0
C  C206  1  0.30042911  0.41710098  0.87686726  1  0.107329  0  -0.021174  -0.05043  0  4.029662  0
C  C207  1  0.29522720  0.31798100  0.89894038  1  -0.091477  0  -0.076952  -0.130305  0  3.965204  0
C  C208  1  0.29425551  0.22453069  0.87356646  1  -0.039154  0  -0.014856  -0.036568  0  4.013638  0
C  C209  1  0.30150815  0.23174014  0.82403185  1  0.492317  0  0.086848  0.174182  0  3.995848  0
C  C210  1  0.30594672  0.42279087  0.82714909  1  0.432368  0  0.086584  0.176152  0  3.999226  0
C  C211  1  0.30649612  0.33033096  0.80060034  1  0.11347  0  -0.020094  -0.100441  0  4.029487  0
C  C212  1  0.40295901  0.57382296  0.80864321  1  0.398961  0  -0.142897  -0.175815  0  3.900094  0
C  C213  1  0.20698701  0.09614946  0.79077514  1  0.375886  0  -0.136826  -0.163889  0  3.903108  0
C  C214  1  0.28476524  0.12475729  0.90073328  1  0.011101  0  0.013155  0.128825  0  3.992214  0
C  C215  1  0.20421092  0.11886276  0.93524595  1  -0.054757  0  -0.081997  -0.171087  0  3.911422  0
C  C216  1  0.20200936  0.02943823  0.96440946  1  0.490695  0  0.048398  0.105672  0  3.928503  0
C  C217  1  0.35093660  0.95186489  0.92702395  1  0.463828  0  0.038383  0.085681  0  3.986375  0
C  C218  1  0.35771547  0.03728652  0.89582380  1  0.004481  0  -0.086821  -0.173814  0  3.959353  0
C  C219  1  0.31158250  0.33324934  0.74807445  1  0.077061  0  -0.013884  -0.090425  0  4.019045  0
C  C220  1  0.21800882  0.34085300  0.72197724  1  0.459576  0  0.089055  0.177312  0  3.994719  0
C  C221  1  0.22086156  0.33223726  0.67237093  1  -0.018451  0  -0.019051  -0.045455  0  4.022593  0
C  C222  1  0.32024989  0.31967423  0.65002335  1  -0.019629  0  -0.082719  -0.141635  0  3.974557  0
C  C223  1  0.41508384  0.31539171  0.67464497  1  0.015625  0  -0.019667  -0.050705  0  4.039114  0
C  C224  1  0.40970148  0.32148542  0.72424136  1  0.476002  0  0.088963  0.175898  0  4.001806  0
C  C225  1  0.55698486  0.21714165  0.75518316  1  0.340837  0  -0.137685  -0.168832  0  3.888642  0
C  C226  1  0.07934984  0.46220355  0.74659766  1  0.346493  0  -0.13872  -0.167118  0  3.889641  0
C  C227  1  0.12611237  0.33115861  0.64275360  1  -0.048584  0  0.008285  0.124964  0  3.992874  0
C  C228  1  0.03713866  0.27628593  0.65637119  1  -0.027401  0  -0.090807  -0.185817  0  3.953916  0
C  C229  1  0.95659620  0.26766505  0.62418763  1  0.494131  0  0.042372  0.088932  0  3.9844  0
C  C230  1  0.04065265  0.36859921  0.56807428  1  0.524474  0  0.049338  0.108018  0  3.938781  0
C  C231  1  0.12612698  0.37823891  0.59743780  1  -0.04288  0  -0.086336  -0.182734  0  3.931379  0
C  C232  1  0.36611511  0.68207107  0.12031705  1  0.452595  0  0.044989  0.092055  0  3.971776  0
C  C233  1  0.37230063  0.59709605  0.15228011  1  -0.070476  0  -0.089968  -0.187978  0  3.939567  0
C  C234  1  0.30489442  0.51474276  0.14672149  1  0.019512  0  0.009501  0.127804  0  4.005187  0
C  C235  1  0.22593344  0.61568852  0.08183783  1  0.460118  0  0.044717  0.101137  0  3.963624  0
C  C236  1  0.23006288  0.52560190  0.11069182  1  -0.04523  0  -0.08826  -0.18878  0  3.951158  0
C  C237  1  0.59802629  0.36378243  0.47449568  1  0.50708  0  0.040755  0.094349  0  3.975795  0
C  C238  1  0.51070665  0.36807333  0.44540180  1  -0.040522  0  -0.087114  -0.182539  0  3.93229  0
C  C239  1  0.51062143  0.29899280  0.40720951  1  -0.040936  0  0.011346  0.13064  0  4.004932  0
C  C240  1  0.59861208  0.22708453  0.40074226  1  -0.02616  0  -0.086449  -0.180422  0  3.946945  0
C  C241  1  0.68097430  0.22583821  0.43264537  1  0.493313  0  0.046087  0.094158  0  3.969423  0
C  C242  1  0.41709859  0.30042660  0.37686778  1  0.107262  0  -0.021083  -0.050289  0  4.029584  0
C  C243  1  0.31797911  0.29522456  0.39893985  1  -0.091558  0  -0.076972  -0.130358  0  3.965158  0
C  C244  1  0.22452933  0.29425525  0.37356592  1  -0.038975  0  -0.014871  -0.036631  0  4.01355  0
C  C245  1  0.23174068  0.30150837  0.32403024  1  0.492446  0  0.086795  0.174182  0  3.995779  0
C  C246  1  0.42279166  0.30594516  0.32714852  1  0.432333  0  0.086542  0.176053  0  3.999363  0
C  C247  1  0.33033260  0.30649711  0.30060011  1  0.113408  0  -0.020023  -0.100304  0  4.029583  0
C  C248  1  0.57382333  0.40295764  0.30864334  1  0.399072  0  -0.142874  -0.175711  0  3.900046  0
C  C249  1  0.09614783  0.20698506  0.29077463  1  0.375744  0  -0.136809  -0.163838  0  3.903104  0
C  C250  1  0.12475482  0.28476230  0.40073243  1  0.01078  0  0.013182  0.128823  0  3.992235  0
C  C251  1  0.11885976  0.20420724  0.43524440  1  -0.05454  0  -0.081971  -0.171079  0  3.911549  0
C  C252  1  0.02943952  0.20200859  0.46440892  1  0.490703  0  0.048322  0.105544  0  3.92859  0
C  C253  1  0.95186301  0.35093502  0.42702403  1  0.463857  0  0.038347  0.085572  0  3.98643  0
C  C254  1  0.03728253  0.35771476  0.39582332  1  0.004499  0  -0.086835  -0.173751  0  3.959279  0
C  C255  1  0.33325136  0.31158442  0.24807456  1  0.077149  0  -0.013847  -0.09038  0  4.019025  0
C  C256  1  0.34085397  0.21800830  0.22197701  1  0.459333  0  0.088995  0.177115  0  3.994664  0
C  C257  1  0.33223508  0.22086216  0.17237143  1  -0.018215  0  -0.019055  -0.04534  0  4.022456  0
C  C258  1  0.31967107  0.32024854  0.15002282  1  -0.019601  0  -0.082739  -0.141607  0  3.974467  0
C  C259  1  0.31539075  0.41508380  0.17464373  1  0.015617  0  -0.019687  -0.05088  0  4.039176  0
C  C260  1  0.32148635  0.40970277  0.22424151  1  0.475817  0  0.088964  0.175957  0  4.001781  0
C  C261  1  0.21714509  0.55698350  0.25518264  1  0.340574  0  -0.13768  -0.168875  0  3.888919  0
C  C262  1  0.46220498  0.07935219  0.24659807  1  0.346498  0  -0.138708  -0.167129  0  3.889605  0
C  C263  1  0.33115734  0.12611165  0.14275443  1  -0.048355  0  0.008281  0.124928  0  3.992648  0
C  C264  1  0.27628410  0.03713424  0.15637099  1  -0.027396  0  -0.090862  -0.185955  0  3.953884  0
C  C265  1  0.26766428  0.95659390  0.12418827  1  0.493848  0  0.042434  0.089051  0  3.98463  0
C  C266  1  0.36859676  0.04065347  0.06807544  1  0.524419  0  0.049357  0.107978  0  3.938759  0
C  C267  1  0.37823754  0.12612362  0.09743723  1  -0.042986  0  -0.086304  -0.182702  0  3.931411  0
N  N268  1  0.31882807  0.70636296  0.53147934  1  -1.248847  0  -0.328639  -0.228967  0  3.512416  0
N  N269  1  0.05160644  0.72430587  0.53897259  1  -1.231531  0  -0.333412  -0.231941  0  3.518602  0
N  N270  1  0.68699265  0.04227406  0.91912661  1  -1.239634  0  -0.324606  -0.225032  0  3.49679  0
N  N271  1  0.70572513  0.30855391  0.91400792  1  -1.194136  0  -0.328985  -0.229788  0  3.521039  0
N  N272  1  0.70635986  0.31882773  0.03147980  1  -1.248954  0  -0.328627  -0.228923  0  3.51245  0
N  N273  1  0.72429878  0.05160598  0.03897480  1  -1.231495  0  -0.33341  -0.231979  0  3.518959  0
N  N274  1  0.04227269  0.68699497  0.41912686  1  -1.239607  0  -0.32465  -0.225158  0  3.496818  0
N  N275  1  0.30855662  0.70572451  0.41400847  1  -1.194026  0  -0.329065  -0.229785  0  3.521094  0
N  N276  1  0.29363416  0.68117025  0.96852141  1  -1.24889  0  -0.328729  -0.229  0  3.51257  0
N  N277  1  0.27569997  0.94839407  0.96102706  1  -1.231471  0  -0.333433  -0.231929  0  3.518718  0
N  N278  1  0.95772924  0.31300726  0.58087285  1  -1.239789  0  -0.324714  -0.2252  0  3.496896  0
N  N279  1  0.69144613  0.29427135  0.58599056  1  -1.194168  0  -0.329092  -0.229918  0  3.520931  0
N  N280  1  0.68117228  0.29363700  0.46852110  1  -1.248853  0  -0.328656  -0.228997  0  3.51243  0
N  N281  1  0.94839628  0.27569789  0.46102674  1  -1.231556  0  -0.333434  -0.231854  0  3.51867  0
N  N282  1  0.31300691  0.95772673  0.08087383  1  -1.239647  0  -0.324684  -0.225126  0  3.49687  0
N  N283  1  0.29427445  0.69144295  0.08598901  1  -1.194055  0  -0.328877  -0.229701  0  3.521064  0
Cl  Cl284  1  0.17203461  0.91346276  0.46771319  1  -0.724995  0  -0.443983  -0.631772  0  0.902866  0
Cl  Cl285  1  0.20214163  0.50079608  0.48201555  1  -0.725181  0  -0.407246  -0.607959  0  0.943319  0
Cl  Cl286  1  0.91346303  0.17203779  0.96771113  1  -0.724992  0  -0.443992  -0.631779  0  0.902804  0
Cl  Cl287  1  0.50079294  0.20215057  0.98201390  1  -0.725194  0  -0.40722  -0.60794  0  0.943385  0
Cl  Cl288  1  0.08653496  0.82795916  0.03228758  1  -0.725012  0  -0.444012  -0.631817  0  0.902767  0
Cl  Cl289  1  0.49920345  0.79784963  0.01798692  1  -0.725186  0  -0.407221  -0.60793  0  0.943393  0
Cl  Cl290  1  0.82796415  0.08653650  0.53228833  1  -0.724997  0  -0.444002  -0.631802  0  0.902835  0
Cl  Cl291  1  0.79785635  0.49920086  0.51798634  1  -0.725171  0  -0.40722  -0.607929  0  0.943371  0
O  O292  1  0.48104603  0.69208248  0.69683404  1  -1.079894  0  -0.208394  -0.206376  0  2.567233  0
O  O293  1  0.85838225  0.69299633  0.70308203  1  -1.077847  0  -0.21183  -0.209253  0  2.558525  0
O  O294  1  0.64606194  0.87732758  0.75358822  1  -1.073584  0  -0.209618  -0.205189  0  2.551231  0
O  O295  1  0.68086593  0.49966506  0.74931324  1  -1.081525  0  -0.201921  -0.191978  0  2.581731  0
O  O296  1  0.69208326  0.48104414  0.19683522  1  -1.079931  0  -0.208422  -0.2064  0  2.567239  0
O  O297  1  0.69300201  0.85837788  0.20308432  1  -1.077806  0  -0.211867  -0.209401  0  2.558729  0
O  O298  1  0.87732775  0.64606272  0.25358832  1  -1.073575  0  -0.209607  -0.205141  0  2.551091  0
O  O299  1  0.49966539  0.68086360  0.24931307  1  -1.081088  0  -0.201945  -0.191968  0  2.581598  0
O  O300  1  0.30791710  0.51895345  0.80316488  1  -1.079997  0  -0.208429  -0.206443  0  2.567187  0
O  O301  1  0.30700230  0.14162103  0.79691681  1  -1.077804  0  -0.211865  -0.209262  0  2.558569  0
O  O302  1  0.12267260  0.35393566  0.74641178  1  -1.073589  0  -0.209607  -0.205219  0  2.55115  0
O  O303  1  0.50033181  0.31913497  0.75068669  1  -1.081654  0  -0.201999  -0.192056  0  2.581568  0
O  O304  1  0.51895512  0.30791664  0.30316640  1  -1.079938  0  -0.208438  -0.206474  0  2.567252  0
O  O305  1  0.14162129  0.30700186  0.29691557  1  -1.077798  0  -0.21187  -0.20933  0  2.558568  0
O  O306  1  0.35393604  0.12267252  0.24641224  1  -1.073574  0  -0.209596  -0.205139  0  2.551113  0
O  O307  1  0.31913363  0.50033495  0.25068579  1  -1.081502  0  -0.201964  -0.19198  0  2.581764  0
