# generated using pymatgen
data_ZnH12C18N5O2
_symmetry_space_group_name_H-M   'P 1'
_cell_length_a   7.09225976
_cell_length_b   15.04593951
_cell_length_c   17.16086135
_cell_angle_alpha   90.00007512
_cell_angle_beta   89.99892974
_cell_angle_gamma   96.56931432
_symmetry_Int_Tables_number   1
_chemical_formula_structural   ZnH12C18N5O2
_chemical_formula_sum   'Zn4 H48 C72 N20 O8'
_cell_volume   1819.20703056
_cell_formula_units_Z   4
loop_
 _symmetry_equiv_pos_site_id
 _symmetry_equiv_pos_as_xyz
  1  'x, y, z'
loop_
 _atom_site_type_symbol
 _atom_site_label
 _atom_site_symmetry_multiplicity
 _atom_site_fract_x
 _atom_site_fract_y
 _atom_site_fract_z
 _atom_site_occupancy
 _atom_site_pbe_bader_charge
 _atom_site_pbe_bader_spin_density
 _atom_site_pbe_cm5_charge
 _atom_site_pbe_ddec_charge
 _atom_site_pbe_ddec_spin_density
 _atom_site_pbe_ddec_sum_bond_order
 _atom_site_pbe_magmom
Zn  Zn0  1  0.78437555  0.76247951  0.75192004  1  1.367785  0  0.741968  0.919668  0  2.457895  0
Zn  Zn1  1  0.71564029  0.73753387  0.25192849  1  1.36774  0  0.74191  0.91952  0  2.457816  0
Zn  Zn2  1  0.21561625  0.23752225  0.24806669  1  1.367631  0  0.741951  0.919646  0  2.457738  0
Zn  Zn3  1  0.28437266  0.26247474  0.74806640  1  1.36768  0  0.74193  0.919592  0  2.45795  0
H  H4  1  0.15362930  0.77225339  0.72214602  1  0.627393  0  0.320687  0.354964  0  0.893611  0
H  H5  1  0.34635978  0.72773003  0.22215403  1  0.627697  0  0.320763  0.354999  0  0.893388  0
H  H6  1  0.84634098  0.22773282  0.27784945  1  0.627554  0  0.320704  0.354989  0  0.893451  0
H  H7  1  0.65364254  0.27226112  0.77785252  1  0.627545  0  0.32073  0.355043  0  0.893376  0
H  H8  1  0.44839800  0.14083258  0.56793487  1  0.059589  0  0.093189  0.10018  0  1.032554  0
H  H9  1  0.05163664  0.35918294  0.06794765  1  0.059497  0  0.093157  0.100056  0  1.032496  0
H  H10  1  0.55157457  0.85917168  0.43206119  1  0.05974  0  0.093134  0.100052  0  1.032601  0
H  H11  1  0.94839609  0.64082584  0.93205830  1  0.059336  0  0.093162  0.100083  0  1.032562  0
H  H12  1  0.95371293  0.57634449  0.62561966  1  0.078481  0  0.0909  0.096451  0  1.045666  0
H  H13  1  0.54628809  0.92365148  0.12561625  1  0.078168  0  0.090861  0.096416  0  1.045563  0
H  H14  1  0.04624042  0.42366228  0.37436590  1  0.078434  0  0.090735  0.096287  0  1.045693  0
H  H15  1  0.45368456  0.07633943  0.87437106  1  0.07835  0  0.090839  0.096327  0  1.045735  0
H  H16  1  0.40362653  0.64443543  0.02264337  1  0.080243  0  0.116742  0.126593  0  0.993483  0
H  H17  1  0.09638650  0.85555233  0.52264291  1  0.079892  0  0.116767  0.126646  0  0.993486  0
H  H18  1  0.59637787  0.35553838  0.97735560  1  0.080438  0  0.116777  0.126568  0  0.993586  0
H  H19  1  0.90362075  0.14444220  0.47736830  1  0.080049  0  0.116787  0.126724  0  0.993423  0
H  H20  1  0.87270095  0.55583529  0.37689294  1  0.060522  0  0.091879  0.096886  0  1.044482  0
H  H21  1  0.62723712  0.94417000  0.87687486  1  0.059701  0  0.091944  0.096882  0  1.044454  0
H  H22  1  0.12724657  0.44417744  0.62310894  1  0.060281  0  0.091944  0.096931  0  1.04432  0
H  H23  1  0.37276606  0.05581849  0.12311303  1  0.060262  0  0.091995  0.096974  0  1.044317  0
H  H24  1  0.58222546  0.86815051  0.57437794  1  0.09428  0  0.095302  0.105712  0  1.024788  0
H  H25  1  0.91777875  0.63186355  0.07437070  1  0.094022  0  0.095289  0.105642  0  1.024947  0
H  H26  1  0.41775199  0.13186381  0.42562045  1  0.094139  0  0.095304  0.105734  0  1.024724  0
H  H27  1  0.08225485  0.36814256  0.92563759  1  0.094216  0  0.095251  0.105643  0  1.024831  0
H  H28  1  0.40681649  0.73530144  0.90167388  1  0.141622  0  0.13455  0.120847  0  0.993493  0
H  H29  1  0.09319143  0.76468937  0.40167050  1  0.14157  0  0.134577  0.12094  0  0.993226  0
H  H30  1  0.59319362  0.26468644  0.09832800  1  0.141351  0  0.134665  0.121116  0  0.993426  0
H  H31  1  0.90680596  0.23529840  0.59833779  1  0.141709  0  0.13462  0.121034  0  0.993455  0
H  H32  1  0.14918435  0.92566173  0.81957481  1  0.057497  0  0.10094  0.108544  0  0.984824  0
H  H33  1  0.35084354  0.57432596  0.31958201  1  0.057212  0  0.100881  0.108531  0  0.984645  0
H  H34  1  0.85082886  0.07432751  0.18042358  1  0.057336  0  0.100888  0.108503  0  0.984824  0
H  H35  1  0.64915305  0.42567850  0.68043735  1  0.057075  0  0.100897  0.10854  0  0.984751  0
H  H36  1  0.35578496  0.87334363  0.79385498  1  0.052793  0  0.087221  0.081989  0  1.069639  0
H  H37  1  0.14422116  0.62662855  0.29387085  1  0.052612  0  0.087129  0.081712  0  1.069687  0
H  H38  1  0.64421293  0.12663280  0.20613932  1  0.052584  0  0.087239  0.081967  0  1.069576  0
H  H39  1  0.85577268  0.37336254  0.70614910  1  0.052789  0  0.087165  0.081762  0  1.069606  0
H  H40  1  0.17230347  0.81626136  0.85388354  1  0.043877  0  0.088419  0.085235  0  1.026477  0
H  H41  1  0.32769694  0.68371674  0.35389280  1  0.04415  0  0.088375  0.085252  0  1.026579  0
H  H42  1  0.82767578  0.18371358  0.14610902  1  0.044144  0  0.088428  0.085314  0  1.026497  0
H  H43  1  0.67230799  0.31628712  0.64611724  1  0.044307  0  0.088427  0.085335  0  1.02659  0
H  H44  1  0.57084480  0.52976929  0.76714607  1  0.140052  0  0.136158  0.125877  0  0.98155  0
H  H45  1  0.92915039  0.97022921  0.26714615  1  0.140264  0  0.136141  0.125868  0  0.981407  0
H  H46  1  0.42915428  0.47021984  0.23285464  1  0.140298  0  0.136121  0.125887  0  0.98156  0
H  H47  1  0.07082687  0.02977041  0.73286214  1  0.139909  0  0.13612  0.125886  0  0.9815  0
H  H48  1  0.57265572  0.42837918  0.88002262  1  0.117088  0  0.114141  0.125038  0  1.019664  0
H  H49  1  0.92735217  0.07161156  0.38004263  1  0.117362  0  0.114058  0.125013  0  1.019726  0
H  H50  1  0.42734978  0.57159998  0.11996352  1  0.117429  0  0.114015  0.124965  0  1.01978  0
H  H51  1  0.07263702  0.92837748  0.61998023  1  0.117267  0  0.11414  0.125081  0  1.019706  0
C  C52  1  0.90007095  0.57663851  0.50145128  1  -0.013247  0  -0.018078  0.093491  0  4.076306  0
C  C53  1  0.59990751  0.92336468  0.00144046  1  -0.013462  0  -0.018196  0.093585  0  4.076545  0
C  C54  1  0.09987023  0.42337082  0.49854827  1  -0.013963  0  -0.018176  0.093779  0  4.076507  0
C  C55  1  0.40005945  0.07663285  0.99854685  1  -0.01345  0  -0.018105  0.093589  0  4.076625  0
C  C56  1  0.79929020  0.65720754  0.50271506  1  0.289124  0  -0.062909  -0.23209  0  4.247599  0
C  C57  1  0.70069501  0.84281508  0.00270161  1  0.289532  0  -0.062875  -0.231989  0  4.248026  0
C  C58  1  0.20067363  0.34281602  0.49728740  1  0.289146  0  -0.063079  -0.232549  0  4.247899  0
C  C59  1  0.29930929  0.15719946  0.99728687  1  0.289104  0  -0.062829  -0.231938  0  4.247417  0
C  C60  1  0.48562704  0.08445181  0.70679602  1  0.773712  0  0.191095  0.312327  0  4.122123  0
C  C61  1  0.01442330  0.41557443  0.20680100  1  0.773512  0  0.191  0.312324  0  4.122662  0
C  C62  1  0.51438118  0.91556810  0.29319771  1  0.773603  0  0.191147  0.312387  0  4.121845  0
C  C63  1  0.98563995  0.58443193  0.79319680  1  0.773034  0  0.191026  0.31228  0  4.121758  0
C  C64  1  0.51701707  0.00518983  0.58220187  1  -0.023881  0  -0.019942  0.089254  0  4.08219  0
C  C65  1  0.98301863  0.49483005  0.08220622  1  -0.023449  0  -0.019784  0.089447  0  4.082223  0
C  C66  1  0.48298996  0.99481740  0.41779535  1  -0.023628  0  -0.019928  0.08925  0  4.082339  0
C  C67  1  0.01701861  0.50518009  0.91780673  1  -0.02382  0  -0.019906  0.089242  0  4.082234  0
C  C68  1  0.61942102  0.94478723  0.70697957  1  0.761851  0  0.195671  0.310731  0  4.116672  0
C  C69  1  0.88063779  0.55525391  0.20698652  1  0.760888  0  0.195878  0.310977  0  4.117051  0
C  C70  1  0.38057800  0.05523595  0.29301706  1  0.761033  0  0.195612  0.31086  0  4.117062  0
C  C71  1  0.11942069  0.44477044  0.79301944  1  0.760565  0  0.19559  0.310823  0  4.116602  0
C  C72  1  0.47102291  0.07868007  0.53847002  1  -0.05653  0  -0.109032  -0.150656  0  4.022849  0
C  C73  1  0.02899372  0.42133063  0.03847840  1  -0.056848  0  -0.109127  -0.150714  0  4.022799  0
C  C74  1  0.52898411  0.92132715  0.46152662  1  -0.057016  0  -0.109072  -0.150605  0  4.022885  0
C  C75  1  0.97101713  0.57867462  0.96152581  1  -0.056376  0  -0.109098  -0.15066  0  4.02265  0
C  C76  1  0.73097560  0.68898617  0.43378699  1  0.765799  0  0.191372  0.3042  0  4.127101  0
C  C77  1  0.76900515  0.81101277  0.93379445  1  0.765625  0  0.191306  0.304172  0  4.126741  0
C  C78  1  0.26900792  0.31103020  0.56620615  1  0.767326  0  0.19143  0.304457  0  4.126963  0
C  C79  1  0.23098928  0.18897431  0.06621734  1  0.766119  0  0.191312  0.304191  0  4.127228  0
C  C80  1  0.97370857  0.54320067  0.57020976  1  -0.059681  0  -0.109245  -0.145501  0  4.00889  0
C  C81  1  0.52631151  0.95681419  0.07020421  1  -0.058937  0  -0.109164  -0.145495  0  4.008685  0
C  C82  1  0.02626004  0.45680489  0.42978921  1  -0.058931  0  -0.109165  -0.145537  0  4.008214  0
C  C83  1  0.47371074  0.04319850  0.92979184  1  -0.06013  0  -0.109253  -0.145544  0  4.008863  0
C  C84  1  0.49607052  0.52762255  0.96484273  1  -0.021805  0  0.011097  0.089108  0  3.965069  0
C  C85  1  0.00392526  0.97236412  0.46485719  1  -0.023097  0  0.011392  0.089503  0  3.965117  0
C  C86  1  0.50394332  0.47235601  0.03515390  1  0.020332  0  0.011451  0.089604  0  3.964892  0
C  C87  1  0.99606845  0.02762630  0.53515926  1  0.020863  0  0.011191  0.089276  0  3.965436  0
C  C88  1  0.78549339  0.70416017  0.57160155  1  0.780736  0  0.192734  0.314226  0  4.113645  0
C  C89  1  0.71449914  0.79584444  0.07157802  1  0.780829  0  0.192512  0.313766  0  4.113106  0
C  C90  1  0.21452148  0.29585780  0.42840325  1  0.781548  0  0.192685  0.314153  0  4.112991  0
C  C91  1  0.28549006  0.20414460  0.92840230  1  0.780832  0  0.192538  0.31392  0  4.113255  0
C  C92  1  0.53920926  0.01119856  0.66741779  1  0.267006  0  -0.061969  -0.229321  0  4.244754  0
C  C93  1  0.96086972  0.48883098  0.16742755  1  0.266986  0  -0.061853  -0.229506  0  4.244654  0
C  C94  1  0.46082831  0.98882695  0.33257710  1  0.267171  0  -0.061782  -0.229162  0  4.244454  0
C  C95  1  0.03918392  0.51117664  0.83258366  1  0.267436  0  -0.061938  -0.229403  0  4.244502  0
C  C96  1  0.44442176  0.61501859  0.96822452  1  0.063331  0  -0.068205  -0.134161  0  3.959131  0
C  C97  1  0.05559123  0.88497023  0.46822041  1  0.064061  0  -0.068401  -0.134614  0  3.959112  0
C  C98  1  0.55560972  0.38496346  0.03178202  1  0.063184  0  -0.068339  -0.134509  0  3.959398  0
C  C99  1  0.94440744  0.11501689  0.53178206  1  0.063118  0  -0.068278  -0.134362  0  3.958871  0
C  C100  1  0.92830369  0.53173216  0.43123614  1  -0.061689  0  -0.10748  -0.144927  0  4.007364  0
C  C101  1  0.57167007  0.96827340  0.93123134  1  -0.060374  0  -0.107503  -0.144907  0  4.007767  0
C  C102  1  0.07164173  0.46827721  0.56875875  1  -0.061201  0  -0.107507  -0.145022  0  4.007956  0
C  C103  1  0.42833613  0.03172981  0.06875364  1  -0.061068  0  -0.10777  -0.145251  0  4.008165  0
C  C104  1  0.54527835  0.92624709  0.54214197  1  -0.039644  0  -0.106929  -0.14798  0  3.998952  0
C  C105  1  0.95471509  0.57375554  0.04214370  1  -0.039893  0  -0.106963  -0.147937  0  3.999121  0
C  C106  1  0.45471810  0.07375670  0.45785175  1  -0.039723  0  -0.107038  -0.14818  0  3.999072  0
C  C107  1  0.04527502  0.42624486  0.95786051  1  -0.039456  0  -0.106872  -0.147777  0  3.999164  0
C  C108  1  0.44392417  0.66730201  0.90224360  1  0.379044  0  0.04267  -0.032588  0  3.877295  0
C  C109  1  0.05607622  0.83269342  0.40224058  1  0.378722  0  0.042674  -0.032601  0  3.876895  0
C  C110  1  0.55607737  0.33267845  0.09775945  1  0.37874  0  0.04257  -0.032821  0  3.877384  0
C  C111  1  0.94391900  0.16730436  0.59776829  1  0.378989  0  0.042733  -0.032689  0  3.877035  0
C  C112  1  0.20277957  0.86237290  0.80465631  1  0.380197  0  -0.158202  -0.132712  0  3.927946  0
C  C113  1  0.29724731  0.63761347  0.30466342  1  0.380488  0  -0.158073  -0.132558  0  3.928016  0
C  C114  1  0.79722248  0.13761692  0.19533799  1  0.380315  0  -0.158238  -0.132809  0  3.927963  0
C  C115  1  0.70274746  0.36238898  0.69534836  1  0.380341  0  -0.158157  -0.132576  0  3.92788  0
C  C116  1  0.53751943  0.55033223  0.82565843  1  0.355547  0  0.044879  -0.02558  0  3.858631  0
C  C117  1  0.96248890  0.94967435  0.32567570  1  0.355567  0  0.04492  -0.02561  0  3.859061  0
C  C118  1  0.46250673  0.44966513  0.17433471  1  0.354438  0  0.044823  -0.025814  0  3.858748  0
C  C119  1  0.03753745  0.05033771  0.67434832  1  0.355441  0  0.044873  -0.025702  0  3.858514  0
C  C120  1  0.53787663  0.49598959  0.89035678  1  0.057496  0  -0.066678  -0.129153  0  3.934459  0
C  C121  1  0.96210865  0.00399628  0.39037293  1  0.057449  0  -0.066829  -0.129377  0  3.934912  0
C  C122  1  0.46210217  0.50399002  0.10963228  1  0.057107  0  -0.066669  -0.129094  0  3.934738  0
C  C123  1  0.03790625  0.99599431  0.60964643  1  0.057514  0  -0.06667  -0.129186  0  3.934174  0
N  N124  1  0.69118836  0.88588929  0.73520278  1  -1.280375  0  -0.354406  -0.443888  0  3.190441  0
N  N125  1  0.80882793  0.61412943  0.23520278  1  -1.279558  0  -0.354552  -0.443886  0  3.191219  0
N  N126  1  0.30879766  0.11411174  0.26478045  1  -1.280011  0  -0.354421  -0.444042  0  3.190985  0
N  N127  1  0.19120821  0.38587536  0.76479210  1  -1.27954  0  -0.354401  -0.443986  0  3.190522  0
N  N128  1  0.78455946  0.74052782  0.63228559  1  -1.277448  0  -0.359557  -0.45451  0  3.179416  0
N  N129  1  0.71545130  0.75948959  0.13226901  1  -1.276946  0  -0.359344  -0.454131  0  3.178499  0
N  N130  1  0.21545341  0.25949414  0.36771571  1  -1.277661  0  -0.359461  -0.454371  0  3.178736  0
N  N131  1  0.28453850  0.24051615  0.86771306  1  -1.277103  0  -0.359393  -0.454293  0  3.17876  0
N  N132  1  0.49589857  0.63620891  0.83185647  1  -0.645291  0  -0.115674  0.320278  0  3.974691  0
N  N133  1  0.00411424  0.86379735  0.33185798  1  -0.645144  0  -0.11558  0.320516  0  3.974877  0
N  N134  1  0.50412466  0.36378108  0.16813959  1  -0.644271  0  -0.115589  0.320535  0  3.974692  0
N  N135  1  0.99589588  0.13621124  0.66814740  1  -0.645155  0  -0.115709  0.320419  0  3.974955  0
N  N136  1  0.68152514  0.71127148  0.37193482  1  -1.285275  0  -0.359529  -0.465872  0  3.197408  0
N  N137  1  0.81848361  0.78874042  0.87193371  1  -1.285846  0  -0.359474  -0.465923  0  3.196639  0
N  N138  1  0.31846170  0.28873357  0.62805249  1  -1.286913  0  -0.359512  -0.466024  0  3.197392  0
N  N139  1  0.18151908  0.21125942  0.12806467  1  -1.285712  0  -0.359454  -0.465828  0  3.197804  0
N  N140  1  0.43566670  0.14927177  0.73482223  1  -1.280086  0  -0.358933  -0.476446  0  3.185489  0
N  N141  1  0.06433726  0.35074071  0.23482967  1  -1.279689  0  -0.358917  -0.476451  0  3.185276  0
N  N142  1  0.56431955  0.85073728  0.26517324  1  -1.279703  0  -0.358963  -0.476556  0  3.185091  0
N  N143  1  0.93567094  0.64925851  0.76516522  1  -1.279251  0  -0.35884  -0.476447  0  3.184802  0
O  O144  1  0.10366362  0.82821280  0.73546784  1  -1.136731  0  -0.395935  -0.438604  0  2.378035  0
O  O145  1  0.39633812  0.67177339  0.23547539  1  -1.13718  0  -0.395968  -0.438521  0  2.378036  0
O  O146  1  0.89633219  0.17178097  0.26452763  1  -1.13684  0  -0.395891  -0.438546  0  2.377813  0
O  O147  1  0.60365417  0.32821701  0.76453407  1  -1.137041  0  -0.39593  -0.43869  0  2.377805  0
O  O148  1  0.50703585  0.68923822  0.77012354  1  -0.634487  0  -0.24883  -0.497442  0  2.013886  0
O  O149  1  0.99298090  0.81076980  0.27012876  1  -0.634351  0  -0.248829  -0.497466  0  2.014013  0
O  O150  1  0.49298132  0.31074972  0.22987076  1  -0.634355  0  -0.248841  -0.497522  0  2.013925  0
O  O151  1  0.00700676  0.18923926  0.72987662  1  -0.634506  0  -0.248857  -0.497495  0  2.014034  0
