# generated using pymatgen
data_CdH4C3O5
_symmetry_space_group_name_H-M   'P 1'
_cell_length_a   10.61015721
_cell_length_b   10.61033078
_cell_length_c   10.61025113
_cell_angle_alpha   108.95331553
_cell_angle_beta   108.95448263
_cell_angle_gamma   108.95388623
_symmetry_Int_Tables_number   1
_chemical_formula_structural   CdH4C3O5
_chemical_formula_sum   'Cd6 H24 C18 O30'
_cell_volume   936.70364041
_cell_formula_units_Z   6
loop_
 _symmetry_equiv_pos_site_id
 _symmetry_equiv_pos_as_xyz
  1  'x, y, z'
loop_
 _atom_site_type_symbol
 _atom_site_label
 _atom_site_symmetry_multiplicity
 _atom_site_fract_x
 _atom_site_fract_y
 _atom_site_fract_z
 _atom_site_occupancy
 _atom_site_pbe_bader_spin_density
 _atom_site_pbe_cm5_charge
 _atom_site_pbe_ddec_charge
 _atom_site_pbe_ddec_spin_density
 _atom_site_pbe_ddec_sum_bond_order
 _atom_site_pbe_magmom
Cd  Cd0  1  0.74950676  0.26892219  0.04315865  1  0  0.776999  1.04829  0  2.027183  0
Cd  Cd1  1  0.04315724  0.74950621  0.26892549  1  0  0.776987  1.048312  0  2.027178  0
Cd  Cd2  1  0.26891228  0.04315810  0.74951160  1  0  0.776976  1.048251  0  2.027153  0
Cd  Cd3  1  0.25048903  0.73108302  0.95683943  1  0  0.777008  1.048311  0  2.027227  0
Cd  Cd4  1  0.95684235  0.25048703  0.73106919  1  0  0.776959  1.048232  0  2.027154  0
Cd  Cd5  1  0.73108322  0.95684615  0.25048988  1  0  0.77697  1.048283  0  2.027221  0
H  H6  1  0.20134732  0.33991571  0.42674791  1  0  0.110706  0.15114  0  0.964871  0
H  H7  1  0.42675331  0.20132978  0.33992624  1  0  0.110697  0.151126  0  0.964902  0
H  H8  1  0.33993850  0.42676376  0.20133577  1  0  0.110721  0.151119  0  0.964906  0
H  H9  1  0.79865339  0.66007159  0.57323494  1  0  0.110752  0.151152  0  0.965075  0
H  H10  1  0.57323962  0.79866805  0.66008008  1  0  0.1107  0.151112  0  0.964852  0
H  H11  1  0.66008470  0.57325027  0.79866098  1  0  0.110697  0.151107  0  0.96482  0
H  H12  1  0.09280034  0.13600720  0.33207348  1  0  0.114876  0.165298  0  0.985873  0
H  H13  1  0.33206849  0.09280050  0.13602236  1  0  0.11491  0.165317  0  0.985884  0
H  H14  1  0.13602892  0.33207558  0.09280364  1  0  0.11491  0.165302  0  0.985868  0
H  H15  1  0.90718741  0.86398126  0.66792373  1  0  0.114939  0.165333  0  0.985872  0
H  H16  1  0.66792636  0.90721083  0.86399144  1  0  0.114887  0.165244  0  0.98598  0
H  H17  1  0.86400113  0.66794113  0.90722051  1  0  0.114908  0.165276  0  0.98585  0
H  H18  1  0.72103671  0.45676644  0.26751179  1  0  0.287948  0.39183  0  0.944274  0
H  H19  1  0.26750326  0.72102969  0.45677901  1  0  0.287915  0.391701  0  0.944433  0
H  H20  1  0.45676925  0.26750249  0.72103217  1  0  0.287987  0.391846  0  0.944247  0
H  H21  1  0.27896975  0.54323531  0.73249507  1  0  0.287958  0.391831  0  0.944273  0
H  H22  1  0.73248561  0.27895668  0.54321886  1  0  0.287904  0.391703  0  0.944454  0
H  H23  1  0.54322634  0.73250411  0.27897288  1  0  0.287949  0.391768  0  0.944352  0
H  H24  1  0.54871965  0.32637307  0.13688660  1  0  0.290472  0.390455  0  0.943519  0
H  H25  1  0.13688029  0.54871232  0.32638488  1  0  0.290518  0.390445  0  0.94356  0
H  H26  1  0.32638502  0.13686158  0.54871461  1  0  0.290512  0.390444  0  0.943566  0
H  H27  1  0.45129133  0.67362710  0.86312870  1  0  0.290529  0.390503  0  0.943476  0
H  H28  1  0.86310653  0.45126941  0.67360909  1  0  0.290484  0.390484  0  0.94348  0
H  H29  1  0.67361748  0.86313330  0.45128899  1  0  0.290499  0.390423  0  0.943579  0
C  C30  1  0.96870441  0.24579265  0.25998150  1  0  0.214667  0.660966  0  4.124855  0
C  C31  1  0.25998380  0.96868907  0.24578452  1  0  0.214651  0.661035  0  4.125306  0
C  C32  1  0.24580296  0.25999724  0.96871387  1  0  0.21469  0.661128  0  4.125386  0
C  C33  1  0.03128118  0.75418786  0.73998719  1  0  0.2146  0.660861  0  4.125647  0
C  C34  1  0.74000677  0.03130897  0.75420512  1  0  0.214638  0.660932  0  4.125311  0
C  C35  1  0.75421101  0.74002232  0.03129402  1  0  0.214753  0.661174  0  4.125357  0
C  C36  1  0.09072992  0.24323312  0.38206145  1  0  -0.164271  -0.453899  0  3.875725  0
C  C37  1  0.38206126  0.09072074  0.24323797  1  0  -0.164396  -0.454019  0  3.875956  0
C  C38  1  0.24324811  0.38205246  0.09072156  1  0  -0.164305  -0.453892  0  3.876021  0
C  C39  1  0.90925935  0.75675654  0.61793659  1  0  -0.164366  -0.453861  0  3.876026  0
C  C40  1  0.61793647  0.90928609  0.75676968  1  0  -0.16438  -0.453922  0  3.875793  0
C  C41  1  0.75677291  0.61795552  0.90928780  1  0  -0.164387  -0.453941  0  3.8757  0
C  C42  1  0.05418961  0.24948255  0.51064587  1  0  0.21585  0.672258  0  4.119533  0
C  C43  1  0.51064352  0.05418786  0.24948216  1  0  0.215778  0.672322  0  4.119546  0
C  C44  1  0.24948801  0.51063866  0.05418298  1  0  0.215886  0.67237  0  4.118804  0
C  C45  1  0.94581178  0.75051893  0.48936033  1  0  0.215838  0.672337  0  4.119491  0
C  C46  1  0.48935199  0.94582607  0.75051658  1  0  0.215892  0.672528  0  4.119068  0
C  C47  1  0.75050480  0.48935391  0.94582739  1  0  0.215863  0.672187  0  4.119106  0
O  O48  1  0.83502808  0.13159976  0.17784519  1  0  -0.322895  -0.582082  0  2.296469  0
O  O49  1  0.17784982  0.83501926  0.13159533  1  0  -0.322809  -0.582001  0  2.296366  0
O  O50  1  0.13161587  0.17785527  0.83502584  1  0  -0.32296  -0.582222  0  2.296568  0
O  O51  1  0.16495140  0.86837623  0.82214955  1  0  -0.322902  -0.582055  0  2.296829  0
O  O52  1  0.82214648  0.16498324  0.86839077  1  0  -0.322863  -0.582021  0  2.296577  0
O  O53  1  0.86839846  0.82215115  0.16498009  1  0  -0.322888  -0.582113  0  2.296283  0
O  O54  1  0.00108637  0.36195610  0.24058371  1  0  -0.304964  -0.550827  0  2.237245  0
O  O55  1  0.24059811  0.00106071  0.36195124  1  0  -0.30498  -0.550901  0  2.237806  0
O  O56  1  0.36195555  0.24058546  0.00108658  1  0  -0.304956  -0.55082  0  2.237313  0
O  O57  1  0.99892149  0.63804962  0.75941345  1  0  -0.30496  -0.550787  0  2.237554  0
O  O58  1  0.75941687  0.99892385  0.63805206  1  0  -0.304924  -0.550814  0  2.23756  0
O  O59  1  0.63804661  0.75940843  0.99891945  1  0  -0.305016  -0.550929  0  2.237702  0
O  O60  1  0.86808494  0.51415299  0.05710321  1  0  -0.32558  -0.579081  0  2.308987  0
O  O61  1  0.05708021  0.86808075  0.51414437  1  0  -0.325565  -0.57913  0  2.309234  0
O  O62  1  0.51414711  0.05709691  0.86807637  1  0  -0.325567  -0.579175  0  2.309248  0
O  O63  1  0.13192481  0.48585431  0.94290254  1  0  -0.325592  -0.579144  0  2.30886  0
O  O64  1  0.94290363  0.13191793  0.48584248  1  0  -0.325603  -0.579102  0  2.309102  0
O  O65  1  0.48585222  0.94291924  0.13191948  1  0  -0.325504  -0.579092  0  2.309249  0
O  O66  1  0.63098546  0.36268518  0.87032575  1  0  -0.306708  -0.560513  0  2.232163  0
O  O67  1  0.87032858  0.63099705  0.36268354  1  0  -0.30673  -0.560682  0  2.23209  0
O  O68  1  0.36266954  0.87032330  0.63098742  1  0  -0.30674  -0.560692  0  2.231842  0
O  O69  1  0.36900385  0.63732157  0.12966519  1  0  -0.306716  -0.560628  0  2.231909  0
O  O70  1  0.12968374  0.36901508  0.63730652  1  0  -0.306735  -0.560557  0  2.232253  0
O  O71  1  0.63732184  0.12967395  0.36900788  1  0  -0.30674  -0.560634  0  2.232086  0
O  O72  1  0.65258380  0.34533993  0.19870851  1  0  -0.58702  -0.753745  0  2.033711  0
O  O73  1  0.19869861  0.65257417  0.34535214  1  0  -0.587075  -0.753632  0  2.033935  0
O  O74  1  0.34534148  0.19868880  0.65256663  1  0  -0.5871  -0.753735  0  2.033783  0
O  O75  1  0.34742411  0.65465780  0.80130419  1  0  -0.587097  -0.753778  0  2.033725  0
O  O76  1  0.80128894  0.34741118  0.65464880  1  0  -0.587018  -0.753655  0  2.033694  0
O  O77  1  0.65465431  0.80131415  0.34742983  1  0  -0.587072  -0.753658  0  2.03388  0
