# generated using pymatgen
data_TbZnH20C24N4ClO12
_symmetry_space_group_name_H-M   'P 1'
_cell_length_a   13.07567809
_cell_length_b   15.72004976
_cell_length_c   23.22875282
_cell_angle_alpha   100.19244097
_cell_angle_beta   89.97964390
_cell_angle_gamma   114.57280365
_symmetry_Int_Tables_number   1
_chemical_formula_structural   TbZnH20C24N4ClO12
_chemical_formula_sum   'Tb4 Zn4 H80 C96 N16 Cl4 O48'
_cell_volume   4259.39918376
_cell_formula_units_Z   4
loop_
 _symmetry_equiv_pos_site_id
 _symmetry_equiv_pos_as_xyz
  1  'x, y, z'
loop_
 _atom_site_type_symbol
 _atom_site_label
 _atom_site_symmetry_multiplicity
 _atom_site_fract_x
 _atom_site_fract_y
 _atom_site_fract_z
 _atom_site_occupancy
 _atom_site_pbe_bader_charge
 _atom_site_pbe_bader_spin_density
 _atom_site_pbe_cm5_charge
 _atom_site_pbe_ddec_charge
 _atom_site_pbe_ddec_spin_density
 _atom_site_pbe_ddec_sum_bond_order
 _atom_site_pbe_magmom
Tb  Tb0  1  0.09524759  0.93916410  0.95330423  1  2.194228  0  1.486385  2.12993  0  2.103235  0
Tb  Tb1  1  0.15611240  0.06130239  0.54664786  1  2.194464  0  1.48703  2.130077  0  2.104536  0
Tb  Tb2  1  0.90474342  0.06085312  0.04667992  1  2.193945  0  1.486407  2.130237  0  2.102942  0
Tb  Tb3  1  0.84388826  0.93870509  0.45337568  1  2.194313  0  1.486825  2.129889  0  2.104359  0
Zn  Zn4  1  0.87286300  0.50035525  0.64119330  1  1.186707  0  0.641508  0.614718  0  2.539164  0
Zn  Zn5  1  0.37206046  0.49942847  0.85892516  1  1.184489  0  0.64142  0.614971  0  2.538691  0
Zn  Zn6  1  0.12716541  0.49965726  0.35883251  1  1.186824  0  0.641544  0.614887  0  2.539082  0
Zn  Zn7  1  0.62794511  0.50058727  0.14105667  1  1.184601  0  0.641488  0.615148  0  2.538593  0
H  H8  1  0.61616179  0.59453930  0.78029813  1  0.140446  0  0.09985  0.125536  0  1.054095  0
H  H9  1  0.02234231  0.40614287  0.71922940  1  0.13687  0  0.099749  0.125994  0  1.053776  0
H  H10  1  0.38384500  0.40550643  0.21968875  1  0.140447  0  0.099885  0.125549  0  1.053875  0
H  H11  1  0.97763296  0.59380615  0.28075793  1  0.136662  0  0.099597  0.12589  0  1.053841  0
H  H12  1  0.76786913  0.74801590  0.83626696  1  0.163111  0  0.115452  0.125569  0  1.001177  0
H  H13  1  0.02027832  0.25233573  0.66345831  1  0.117889  0  0.115502  0.12535  0  1.001522  0
H  H14  1  0.23213670  0.25203250  0.16371247  1  0.16253  0  0.115374  0.125414  0  1.00126  0
H  H15  1  0.97970482  0.74760458  0.33655173  1  0.118812  0  0.11549  0.125279  0  1.001527  0
H  H16  1  0.84211211  0.65487985  0.42989876  1  0.123434  0  0.121176  0.127637  0  0.975869  0
H  H17  1  0.18610778  0.34467184  0.07010016  1  0.127523  0  0.12122  0.127918  0  0.974314  0
H  H18  1  0.15786840  0.34511639  0.57013084  1  0.122671  0  0.121354  0.127937  0  0.975336  0
H  H19  1  0.81388892  0.65530017  0.92986648  1  0.127547  0  0.121195  0.127783  0  0.974332  0
H  H20  1  0.74966892  0.34760170  0.72010477  1  0.626689  0  0.304445  0.379813  0  0.930912  0
H  H21  1  0.40264549  0.65301944  0.78016925  1  0.605074  0  0.303883  0.37868  0  0.932664  0
H  H22  1  0.25033801  0.65242291  0.27989096  1  0.626585  0  0.304483  0.379965  0  0.930691  0
H  H23  1  0.59734322  0.34697634  0.21981079  1  0.605221  0  0.303912  0.378755  0  0.932501  0
H  H24  1  0.81733899  0.30188740  0.74740990  1  0.598731  0  0.322923  0.399543  0  0.884607  0
H  H25  1  0.51548236  0.69967437  0.75256390  1  0.603031  0  0.322488  0.399082  0  0.885497  0
H  H26  1  0.18263194  0.69811107  0.25259370  1  0.599307  0  0.323001  0.399615  0  0.88451  0
H  H27  1  0.48449932  0.30034559  0.24741581  1  0.60363  0  0.322356  0.398866  0  0.885729  0
H  H28  1  0.20217659  0.06131513  0.86588262  1  0.605702  0  0.32646  0.413475  0  0.874  0
H  H29  1  0.14110412  0.93883083  0.63378543  1  0.59919  0  0.326465  0.413368  0  0.874365  0
H  H30  1  0.79783349  0.93868975  0.13409068  1  0.605532  0  0.32657  0.413511  0  0.873993  0
H  H31  1  0.85898702  0.06118475  0.36621962  1  0.598902  0  0.326329  0.413199  0  0.874512  0
H  H32  1  0.15959330  0.95056043  0.83551746  1  0.653222  0  0.288698  0.393344  0  0.947252  0
H  H33  1  0.20902343  0.04947795  0.66440801  1  0.657026  0  0.288417  0.393068  0  0.947544  0
H  H34  1  0.84043053  0.04943983  0.16447125  1  0.653539  0  0.288853  0.393534  0  0.946977  0
H  H35  1  0.79103602  0.95053086  0.33561222  1  0.657074  0  0.288448  0.393024  0  0.947601  0
H  H36  1  0.86635021  0.21530788  0.43110715  1  0.096275  0  0.122615  0.126094  0  0.972606  0
H  H37  1  0.65089681  0.78391217  0.06908601  1  0.155102  0  0.122674  0.126438  0  0.972094  0
H  H38  1  0.13363020  0.78468512  0.56893587  1  0.134149  0  0.122608  0.126068  0  0.972473  0
H  H39  1  0.34911716  0.21604849  0.93091251  1  0.154861  0  0.12264  0.126423  0  0.97216  0
H  H40  1  0.26881164  0.99276139  0.05532326  1  0.621357  0  0.319945  0.419104  0  0.876485  0
H  H41  1  0.27612511  0.00797347  0.44456466  1  0.634885  0  0.319442  0.418739  0  0.877055  0
H  H42  1  0.73117338  0.00720102  0.94465867  1  0.620779  0  0.319903  0.419219  0  0.876393  0
H  H43  1  0.72383297  0.99199780  0.55546131  1  0.634304  0  0.319553  0.418873  0  0.876862  0
H  H44  1  0.26671166  0.89779687  0.00986624  1  0.652954  0  0.293376  0.402544  0  0.930884  0
H  H45  1  0.36894687  0.10276802  0.49006020  1  0.66138  0  0.293311  0.40192  0  0.931865  0
H  H46  1  0.73328176  0.10219915  0.99009316  1  0.653418  0  0.293278  0.402382  0  0.931079  0
H  H47  1  0.63103565  0.89720163  0.50995784  1  0.661126  0  0.293189  0.401763  0  0.932088  0
H  H48  1  0.66206806  0.30214479  0.58693622  1  0.138901  0  0.118046  0.09159  0  1.02473  0
H  H49  1  0.35994677  0.69766009  0.91313324  1  0.145067  0  0.118381  0.091933  0  1.024256  0
H  H50  1  0.33793530  0.69784209  0.41308847  1  0.138083  0  0.118108  0.091549  0  1.024722  0
H  H51  1  0.64003734  0.30236166  0.08683204  1  0.144461  0  0.118317  0.091887  0  1.024271  0
H  H52  1  0.86374440  0.68503461  0.61720852  1  0.153594  0  0.121825  0.096482  0  1.001963  0
H  H53  1  0.17795076  0.31489624  0.88281469  1  0.089785  0  0.121768  0.096533  0  1.001526  0
H  H54  1  0.13626482  0.31498082  0.38282063  1  0.14852  0  0.12188  0.096611  0  1.001944  0
H  H55  1  0.82209394  0.68507998  0.11714982  1  0.090149  0  0.121766  0.09649  0  1.001803  0
H  H56  1  0.00649502  0.69441544  0.72503909  1  0.148464  0  0.114008  0.093869  0  1.021075  0
H  H57  1  0.31146737  0.30528964  0.77512431  1  0.141925  0  0.113999  0.093957  0  1.020391  0
H  H58  1  0.99352050  0.30557893  0.27497136  1  0.148417  0  0.114017  0.093867  0  1.020968  0
H  H59  1  0.68858345  0.69474624  0.22486750  1  0.141569  0  0.114091  0.094139  0  1.02014  0
H  H60  1  0.87256756  0.29403518  0.61835867  1  0.141027  0  0.118798  0.091556  0  1.01727  0
H  H61  1  0.57817421  0.70566660  0.88185038  1  0.140315  0  0.118514  0.091615  0  1.017349  0
H  H62  1  0.12743334  0.70599268  0.38168521  1  0.142008  0  0.118699  0.09147  0  1.017707  0
H  H63  1  0.42181915  0.29436450  0.11814952  1  0.140719  0  0.118644  0.091834  0  1.017224  0
H  H64  1  0.84702777  0.49548270  0.42170555  1  0.12977  0  0.098668  0.122056  0  1.045991  0
H  H65  1  0.35065691  0.50398140  0.07840016  1  0.12065  0  0.099478  0.121843  0  1.04536  0
H  H66  1  0.15297538  0.50452211  0.57832544  1  0.128785  0  0.098708  0.122014  0  1.04618  0
H  H67  1  0.64933284  0.49599506  0.92157429  1  0.12083  0  0.099335  0.121589  0  1.045451  0
H  H68  1  0.85902071  0.36893850  0.42221125  1  0.122185  0  0.099866  0.119848  0  1.044868  0
H  H69  1  0.48985296  0.63033416  0.07793269  1  0.11927  0  0.099611  0.119729  0  1.044077  0
H  H70  1  0.14098136  0.63106567  0.57782311  1  0.122112  0  0.099808  0.119542  0  1.045018  0
H  H71  1  0.51016184  0.36962050  0.92205268  1  0.118384  0  0.099656  0.119715  0  1.044097  0
H  H72  1  0.49900409  0.48856718  0.71561790  1  0.140742  0  0.106743  0.123162  0  1.022541  0
H  H73  1  0.01084760  0.51218589  0.78414619  1  0.12284  0  0.106858  0.123362  0  1.022616  0
H  H74  1  0.50100374  0.51146840  0.28436053  1  0.132208  0  0.106787  0.122955  0  1.022573  0
H  H75  1  0.98911243  0.48777242  0.21584260  1  0.124286  0  0.106805  0.12317  0  1.022756  0
H  H76  1  0.36994093  0.33326801  0.65109282  1  0.11562  0  0.11852  0.120184  0  0.990966  0
H  H77  1  0.03739094  0.66756064  0.84876864  1  0.123514  0  0.118671  0.120511  0  0.990385  0
H  H78  1  0.63006844  0.66676145  0.34889785  1  0.115689  0  0.118518  0.120144  0  0.990849  0
H  H79  1  0.96254184  0.33238906  0.15121705  1  0.123411  0  0.118774  0.120517  0  0.990116  0
H  H80  1  0.98493707  0.06549453  0.92815146  1  0.648166  0  0.29946  0.399004  0  0.94191  0
H  H81  1  0.91975252  0.93422628  0.57178654  1  0.649606  0  0.299736  0.399583  0  0.9413  0
H  H82  1  0.01505692  0.93449041  0.07182091  1  0.648867  0  0.299468  0.399041  0  0.941875  0
H  H83  1  0.08023725  0.06577164  0.42822344  1  0.649906  0  0.299707  0.399579  0  0.941208  0
H  H84  1  0.88219380  0.95639236  0.92542277  1  0.656206  0  0.308776  0.412118  0  0.911553  0
H  H85  1  0.92555182  0.04320945  0.57457573  1  0.653489  0  0.308708  0.411226  0  0.912805  0
H  H86  1  0.11779245  0.04360159  0.07456955  1  0.656149  0  0.308707  0.412063  0  0.911636  0
H  H87  1  0.07445244  0.95679451  0.42544957  1  0.653839  0  0.308711  0.411263  0  0.912783  0
C  C88  1  0.70280520  0.61947052  0.76842577  1  -0.010894  0  -0.080643  -0.151663  0  3.924011  0
C  C89  1  0.08361619  0.38090261  0.73130337  1  -0.059031  0  -0.081114  -0.15377  0  3.925295  0
C  C90  1  0.29720137  0.38056100  0.23156169  1  -0.010894  0  -0.080928  -0.152067  0  3.924277  0
C  C91  1  0.91637509  0.61906927  0.26868822  1  -0.061873  0  -0.081049  -0.153656  0  3.924995  0
C  C92  1  0.78652805  0.70392172  0.79968035  1  -0.119967  0  -0.053943  -0.03163  0  3.891852  0
C  C93  1  0.08278041  0.29635428  0.70014359  1  0.002567  0  -0.054559  -0.031409  0  3.893052  0
C  C94  1  0.21348644  0.29612259  0.20030637  1  -0.119406  0  -0.053854  -0.031125  0  3.891696  0
C  C95  1  0.91720700  0.70361293  0.29986082  1  0.004582  0  -0.054657  -0.031419  0  3.893676  0
C  C96  1  0.85229779  0.68152119  0.52412525  1  -0.020197  0  -0.002168  -0.064075  0  3.931055  0
C  C97  1  0.16982746  0.31822766  0.97589018  1  -0.063921  0  -0.002886  -0.065175  0  3.930954  0
C  C98  1  0.14768789  0.31847927  0.47590268  1  -0.020068  0  -0.001892  -0.063797  0  3.931349  0
C  C99  1  0.83019128  0.68174865  0.02407822  1  -0.065196  0  -0.003021  -0.065582  0  3.931278  0
C  C100  1  0.85409694  0.50443209  0.51613396  1  0.466779  0  0.12213  0.169544  0  3.963706  0
C  C101  1  0.34909906  0.49514745  0.98398481  1  0.521858  0  0.121901  0.167827  0  3.963745  0
C  C102  1  0.14591646  0.49558406  0.48389527  1  0.466233  0  0.122052  0.16916  0  3.96392  0
C  C103  1  0.65091213  0.50482904  0.01599093  1  0.522065  0  0.121832  0.16804  0  3.96388  0
C  C104  1  0.85922698  0.41208373  0.51649395  1  0.467423  0  0.122538  0.165692  0  3.965603  0
C  C105  1  0.44672815  0.58744924  0.98367360  1  0.482142  0  0.122453  0.166071  0  3.964774  0
C  C106  1  0.14077919  0.58793325  0.48354053  1  0.469054  0  0.122645  0.165917  0  3.965629  0
C  C107  1  0.55328210  0.41254528  0.01631319  1  0.481773  0  0.122407  0.165912  0  3.964698  0
C  C108  1  0.84585284  0.62615015  0.46887903  1  -0.013448  0  -0.050879  -0.026644  0  3.901282  0
C  C109  1  0.21875152  0.37346606  0.03115716  1  0.030738  0  -0.050208  -0.026308  0  3.898016  0
C  C110  1  0.15413706  0.37384959  0.53114795  1  -0.01467  0  -0.051214  -0.027216  0  3.900821  0
C  C111  1  0.78126145  0.62651094  0.96881046  1  0.029808  0  -0.050206  -0.026012  0  3.897315  0
C  C112  1  0.86545466  0.26525706  0.46991016  1  -0.002937  0  -0.048667  -0.020187  0  3.897817  0
C  C113  1  0.60002685  0.73411148  0.03025988  1  -0.04563  0  -0.04851  -0.020888  0  3.896841  0
C  C114  1  0.13452753  0.73473949  0.53013283  1  -0.041708  0  -0.048659  -0.02045  0  3.898577  0
C  C115  1  0.39998252  0.26586904  0.96973655  1  -0.044927  0  -0.048558  -0.021076  0  3.897498  0
C  C116  1  0.85987651  0.78108858  0.53109451  1  1.618583  0  0.221831  0.608368  0  4.214912  0
C  C117  1  0.07773224  0.21867696  0.96881863  1  1.623226  0  0.222867  0.61054  0  4.211725  0
C  C118  1  0.14011105  0.21891871  0.46892082  1  1.618664  0  0.221892  0.608829  0  4.214125  0
C  C119  1  0.92225358  0.78130692  0.03113856  1  1.623806  0  0.222787  0.610295  0  4.212099  0
C  C120  1  0.87602616  0.15088247  0.53153665  1  1.625608  0  0.221603  0.599013  0  4.223963  0
C  C121  1  0.72502676  0.84851334  0.96858563  1  1.607975  0  0.221455  0.599213  0  4.220377  0
C  C122  1  0.12396378  0.84913263  0.46850883  1  1.625711  0  0.221397  0.59893  0  4.22337  0
C  C123  1  0.27496962  0.15148864  0.03141576  1  1.607974  0  0.221545  0.599351  0  4.220024  0
C  C124  1  0.43320826  0.21498520  0.57343778  1  1.641848  0  0.221743  0.609558  0  4.211663  0
C  C125  1  0.21869056  0.78543640  0.92649979  1  1.625955  0  0.22129  0.609324  0  4.214854  0
C  C126  1  0.56679125  0.78500926  0.42657655  1  1.641537  0  0.221713  0.609385  0  4.212328  0
C  C127  1  0.78127060  0.21455628  0.07346914  1  1.627035  0  0.221599  0.609635  0  4.214678  0
C  C128  1  0.62425106  0.34159273  0.61577538  1  0.453953  0  0.054627  0.077417  0  3.923303  0
C  C129  1  0.28276656  0.65847731  0.88423043  1  0.447244  0  0.054058  0.077167  0  3.923975  0
C  C130  1  0.37575184  0.65840393  0.38424178  1  0.456206  0  0.054596  0.07741  0  3.923198  0
C  C131  1  0.71720672  0.34152893  0.11574001  1  0.447167  0  0.054038  0.077133  0  3.924205  0
C  C132  1  0.87023194  0.24274631  0.52519342  1  0.027244  0  -0.001758  -0.063753  0  3.922968  0
C  C133  1  0.62727888  0.75671788  0.97498979  1  0.037974  0  -0.001549  -0.0632  0  3.921532  0
C  C134  1  0.12975225  0.75725728  0.47484647  1  0.0265  0  -0.001668  -0.063319  0  3.922674  0
C  C135  1  0.37272306  0.24327683  0.02500520  1  0.037973  0  -0.001559  -0.063034  0  3.921574  0
C  C136  1  0.85786028  0.64373287  0.57337066  1  0.478522  0  0.061298  0.087619  0  3.910056  0
C  C137  1  0.21337600  0.35606189  0.92667342  1  0.556734  0  0.061641  0.087614  0  3.910181  0
C  C138  1  0.14214486  0.35627899  0.42665809  1  0.485089  0  0.061112  0.08735  0  3.910414  0
C  C139  1  0.78666239  0.64392007  0.07329302  1  0.558177  0  0.061698  0.087924  0  3.910475  0
C  C140  1  0.92080560  0.67523672  0.73811771  1  0.440871  0  0.057654  0.080476  0  3.912125  0
C  C141  1  0.24516943  0.32465190  0.76197225  1  0.455157  0  0.058344  0.0812  0  3.910619  0
C  C142  1  0.07921152  0.32477461  0.26188817  1  0.441072  0  0.057626  0.080508  0  3.91223  0
C  C143  1  0.75485467  0.67536268  0.23802107  1  0.455709  0  0.058281  0.080961  0  3.910511  0
C  C144  1  0.86958824  0.30821882  0.57423731  1  0.470932  0  0.061292  0.083991  0  3.909587  0
C  C145  1  0.56100810  0.69137051  0.92595581  1  0.45933  0  0.061301  0.083228  0  3.912033  0
C  C146  1  0.13040775  0.69179616  0.42580298  1  0.471468  0  0.061445  0.08392  0  3.910077  0
C  C147  1  0.43898168  0.30864274  0.07404081  1  0.458212  0  0.061032  0.082719  0  3.911715  0
C  C148  1  0.84735894  0.53721700  0.46459924  1  0.014357  0  -0.075239  -0.146229  0  3.912935  0
C  C149  1  0.30935636  0.46231555  0.03548921  1  -0.052916  0  -0.075838  -0.145086  0  3.911876  0
C  C150  1  0.15264174  0.46279205  0.53543049  1  0.015032  0  -0.07526  -0.145899  0  3.912896  0
C  C151  1  0.69065042  0.53765519  0.96448417  1  -0.05381  0  -0.075787  -0.145122  0  3.911424  0
C  C152  1  0.99134366  0.82410769  0.81613835  1  1.628946  0  0.215375  0.597111  0  4.237086  0
C  C153  1  0.16705147  0.17586925  0.68391144  1  1.635682  0  0.215496  0.597212  0  4.234963  0
C  C154  1  0.00867259  0.17590955  0.18384665  1  1.630097  0  0.215482  0.597061  0  4.236878  0
C  C155  1  0.83296298  0.82410768  0.31611386  1  1.635987  0  0.21535  0.597222  0  4.235068  0
C  C156  1  0.64977872  0.47505262  0.68669989  1  0.484432  0  0.118251  0.166661  0  3.97576  0
C  C157  1  0.17484801  0.52523046  0.81318088  1  0.482586  0  0.118445  0.165847  0  3.976586  0
C  C158  1  0.35022198  0.52495646  0.31330100  1  0.484248  0  0.118371  0.166797  0  3.975017  0
C  C159  1  0.82513288  0.47475887  0.18679672  1  0.481754  0  0.118518  0.16594  0  3.975901  0
C  C160  1  0.89750275  0.73355557  0.78387186  1  0.045222  0  -0.001545  -0.056427  0  3.927256  0
C  C161  1  0.16374544  0.26645927  0.71613490  1  0.023364  0  -0.001464  -0.056277  0  3.927746  0
C  C162  1  0.10251318  0.26647172  0.21611727  1  0.045461  0  -0.001551  -0.056681  0  3.926577  0
C  C163  1  0.83626230  0.73352871  0.28387613  1  0.022546  0  -0.001274  -0.056104  0  3.928206  0
C  C164  1  0.86008254  0.35027193  0.46518922  1  -0.032591  0  -0.073369  -0.140408  0  3.908679  0
C  C165  1  0.50955918  0.64910881  0.03496665  1  -0.062106  0  -0.073684  -0.140655  0  3.906348  0
C  C166  1  0.13991067  0.64973442  0.53484711  1  -0.033622  0  -0.073559  -0.140118  0  3.909367  0
C  C167  1  0.49045232  0.35086221  0.96501838  1  -0.061532  0  -0.073575  -0.140451  0  3.906233  0
C  C168  1  0.73242509  0.56509817  0.72275390  1  0.473619  0  0.117965  0.167717  0  3.979527  0
C  C169  1  0.16732826  0.43509795  0.77712420  1  0.485933  0  0.118605  0.170051  0  3.978582  0
C  C170  1  0.26757996  0.43491655  0.27724504  1  0.473405  0  0.118014  0.167863  0  3.979127  0
C  C171  1  0.83266296  0.56489216  0.22285607  1  0.485854  0  0.118609  0.169973  0  3.978343  0
C  C172  1  0.50710320  0.30660914  0.61454922  1  0.034197  0  -0.001498  -0.057461  0  3.924202  0
C  C173  1  0.20087795  0.69376119  0.88541149  1  0.049931  0  -0.000377  -0.056747  0  3.924606  0
C  C174  1  0.49290556  0.69340230  0.38546140  1  0.033587  0  -0.001544  -0.057314  0  3.924266  0
C  C175  1  0.79907841  0.30622956  0.11456584  1  0.048999  0  -0.000445  -0.057159  0  3.925495  0
C  C176  1  0.53289498  0.44524551  0.68737809  1  -0.03859  0  -0.073951  -0.140287  0  3.927831  0
C  C177  1  0.08800246  0.55529628  0.81246424  1  0.025878  0  -0.07468  -0.141013  0  3.928134  0
C  C178  1  0.46711247  0.55478471  0.31261439  1  -0.029115  0  -0.073763  -0.13973  0  3.927492  0
C  C179  1  0.91196244  0.44467331  0.18752064  1  0.02582  0  -0.074716  -0.140928  0  3.927938  0
C  C180  1  0.46134893  0.35974685  0.65151434  1  -0.040654  0  -0.049772  -0.021691  0  3.89638  0
C  C181  1  0.10209834  0.64083781  0.84836778  1  -0.098877  0  -0.049804  -0.021833  0  3.893916  0
C  C182  1  0.53865202  0.64027496  0.34848366  1  -0.040749  0  -0.049931  -0.021965  0  3.896491  0
C  C183  1  0.89784864  0.35912958  0.15161428  1  -0.098456  0  -0.049873  -0.021548  0  3.894035  0
N  N184  1  0.85804157  0.55790467  0.56938959  1  -1.259696  0  -0.328153  -0.251339  0  3.575596  0
N  N185  1  0.29957908  0.44179591  0.93070061  1  -1.265601  0  -0.327809  -0.250406  0  3.575664  0
N  N186  1  0.14197497  0.44211009  0.43064120  1  -1.259351  0  -0.328023  -0.251254  0  3.575838  0
N  N187  1  0.70044838  0.55818407  0.06927251  1  -1.264327  0  -0.327667  -0.25049  0  3.575363  0
N  N188  1  0.84071205  0.59289398  0.70901599  1  -1.244094  0  -0.32569  -0.254885  0  3.558951  0
N  N189  1  0.24747320  0.40705211  0.79102630  1  -1.26571  0  -0.326292  -0.256915  0  3.560463  0
N  N190  1  0.15930041  0.40711110  0.29099608  1  -1.245201  0  -0.325614  -0.25491  0  3.559117  0
N  N191  1  0.75254269  0.59296285  0.20895242  1  -1.265307  0  -0.326375  -0.257072  0  3.560783  0
N  N192  1  0.86422393  0.39010151  0.56990365  1  -1.258396  0  -0.321835  -0.256223  0  3.553672  0
N  N193  1  0.47367311  0.60954039  0.93027558  1  -1.234297  0  -0.32189  -0.255936  0  3.555647  0
N  N194  1  0.13578530  0.60991546  0.43013084  1  -1.257865  0  -0.321813  -0.256312  0  3.553614  0
N  N195  1  0.52632534  0.39047183  0.06970757  1  -1.233113  0  -0.321766  -0.255709  0  3.55546  0
N  N196  1  0.69393125  0.42273511  0.65128737  1  -1.251788  0  -0.323857  -0.272346  0  3.531036  0
N  N197  1  0.27120850  0.57732208  0.84868665  1  -1.267062  0  -0.324035  -0.272602  0  3.532506  0
N  N198  1  0.30607473  0.57727075  0.34872823  1  -1.253154  0  -0.323977  -0.272465  0  3.531193  0
N  N199  1  0.72877483  0.42268284  0.15128838  1  -1.267234  0  -0.323887  -0.272444  0  3.53194  0
Cl  Cl200  1  0.06117693  0.55356820  0.66751487  1  -0.67111  0  -0.315953  -0.510243  0  1.18033  0
Cl  Cl201  1  0.50738827  0.44664478  0.83229827  1  -0.670764  0  -0.316504  -0.510439  0  1.178412  0
Cl  Cl202  1  0.93885876  0.44645429  0.33251205  1  -0.671132  0  -0.31601  -0.510298  0  1.18033  0
Cl  Cl203  1  0.49262648  0.55337404  0.16769337  1  -0.670744  0  -0.316487  -0.510492  0  1.178443  0
O  O204  1  0.97305974  0.85454077  0.86793893  1  -1.187681  0  -0.402907  -0.664116  0  2.297305  0
O  O205  1  0.11837379  0.14545020  0.63211402  1  -1.195888  0  -0.403008  -0.663929  0  2.296843  0
O  O206  1  0.02695268  0.14551316  0.13203379  1  -1.188042  0  -0.402922  -0.664125  0  2.297129  0
O  O207  1  0.88162095  0.85451177  0.36791005  1  -1.196678  0  -0.402785  -0.663787  0  2.296766  0
O  O208  1  0.88282342  0.83162572  0.58227989  1  -1.16156  0  -0.312227  -0.542443  0  2.110327  0
O  O209  1  0.05029766  0.16819192  0.91763221  1  -1.164425  0  -0.312456  -0.542784  0  2.110092  0
O  O210  1  0.11715532  0.16838380  0.41774000  1  -1.161543  0  -0.312132  -0.542591  0  2.110071  0
O  O211  1  0.94974629  0.83178279  0.08232869  1  -1.16394  0  -0.312471  -0.542678  0  2.109943  0
O  O212  1  0.95642310  0.00453289  0.94586548  1  -1.297949  0  -0.662321  -0.939848  0  2.21178  0
O  O213  1  0.95193209  0.99524763  0.55410934  1  -1.29654  0  -0.663047  -0.940121  0  2.213188  0
O  O214  1  0.04355942  0.99546735  0.05412238  1  -1.298644  0  -0.662236  -0.94002  0  2.212038  0
O  O215  1  0.04805774  0.00475043  0.44590669  1  -1.297427  0  -0.66306  -0.940233  0  2.213108  0
O  O216  1  0.86929704  0.12967002  0.58193151  1  -1.171789  0  -0.31461  -0.561625  0  2.10248  0
O  O217  1  0.73930997  0.86971890  0.91818531  1  -1.171573  0  -0.314202  -0.56144  0  2.101407  0
O  O218  1  0.13071792  0.87035078  0.41811417  1  -1.171074  0  -0.314341  -0.561346  0  2.102169  0
O  O219  1  0.26068472  0.13027662  0.08181364  1  -1.171576  0  -0.314215  -0.561439  0  2.101243  0
O  O220  1  0.07913673  0.86082025  0.78983833  1  -1.154184  0  -0.316175  -0.537481  0  2.09663  0
O  O221  1  0.21807989  0.13914557  0.71020947  1  -1.153645  0  -0.316781  -0.537707  0  2.094735  0
O  O222  1  0.92090549  0.13917092  0.21015712  1  -1.154447  0  -0.316218  -0.537502  0  2.096789  0
O  O223  1  0.78193257  0.86084421  0.28981769  1  -1.152688  0  -0.316886  -0.5379  0  2.094604  0
O  O224  1  0.47714388  0.18505968  0.53071678  1  -1.165743  0  -0.321716  -0.548153  0  2.073759  0
O  O225  1  0.29226406  0.81519699  0.96931770  1  -1.156354  0  -0.321758  -0.548163  0  2.074414  0
O  O226  1  0.52285658  0.81492138  0.46930252  1  -1.165407  0  -0.321567  -0.547974  0  2.074065  0
O  O227  1  0.70773673  0.18483364  0.03063220  1  -1.156792  0  -0.321879  -0.548149  0  2.07427  0
O  O228  1  0.88645916  0.10118499  0.48404939  1  -1.195629  0  -0.398495  -0.666671  0  2.316904  0
O  O229  1  0.78540994  0.89816630  0.01599836  1  -1.194322  0  -0.398362  -0.666915  0  2.313663  0
O  O230  1  0.11352942  0.89882588  0.51599734  1  -1.196385  0  -0.398521  -0.666889  0  2.31701  0
O  O231  1  0.21458819  0.10183916  0.98399998  1  -1.194635  0  -0.398463  -0.667053  0  2.31372  0
O  O232  1  0.82595532  0.35387565  0.72769157  1  -1.226053  0  -0.58165  -0.756512  0  1.935918  0
O  O233  1  0.47307020  0.64757097  0.77239577  1  -1.208231  0  -0.581035  -0.75506  0  1.936502  0
O  O234  1  0.17403699  0.64611969  0.27229962  1  -1.226497  0  -0.581805  -0.75677  0  1.935617  0
O  O235  1  0.52694293  0.35246144  0.22759910  1  -1.208981  0  -0.580945  -0.754922  0  1.936475  0
O  O236  1  0.19834276  0.00089165  0.87275542  1  -1.252897  0  -0.640694  -0.858648  0  2.015307  0
O  O237  1  0.19767043  0.99938948  0.62708602  1  -1.248695  0  -0.640227  -0.858096  0  2.01595  0
O  O238  1  0.80166725  0.99911922  0.12723103  1  -1.252941  0  -0.641002  -0.858923  0  2.015294  0
O  O239  1  0.80240896  0.00063627  0.37292877  1  -1.248577  0  -0.640123  -0.857889  0  2.016098  0
O  O240  1  0.22457489  0.93786937  0.02487730  1  -1.26849  0  -0.649957  -0.87915  0  2.059505  0
O  O241  1  0.28680524  0.06295027  0.47494702  1  -1.291241  0  -0.649423  -0.878006  0  2.060134  0
O  O242  1  0.77542236  0.06211137  0.97509762  1  -1.268157  0  -0.649856  -0.879216  0  2.059588  0
O  O243  1  0.71318013  0.93703582  0.52507413  1  -1.290555  0  -0.64932  -0.877936  0  2.060098  0
O  O244  1  0.33097833  0.17677012  0.58585994  1  -1.194351  0  -0.410032  -0.658126  0  2.302817  0
O  O245  1  0.15505792  0.82391062  0.91395465  1  -1.184523  0  -0.409494  -0.657448  0  2.303032  0
O  O246  1  0.66902096  0.82324075  0.41415665  1  -1.194396  0  -0.41009  -0.658102  0  2.302907  0
O  O247  1  0.84485792  0.17605261  0.08603212  1  -1.184439  0  -0.409537  -0.657556  0  2.303403  0
O  O248  1  0.84505667  0.80620692  0.48375247  1  -1.188827  0  -0.403714  -0.661661  0  2.29126  0
O  O249  1  0.03756217  0.19352634  0.01613333  1  -1.186585  0  -0.404501  -0.66302  0  2.289501  0
O  O250  1  0.15493971  0.19378892  0.51626030  1  -1.188893  0  -0.404  -0.662126  0  2.290773  0
O  O251  1  0.96235188  0.80649449  0.98382238  1  -1.187882  0  -0.404409  -0.662797  0  2.289907  0
