# generated using pymatgen
data_Zn6H82C73O35
_symmetry_space_group_name_H-M   'P 1'
_cell_length_a   18.57619225
_cell_length_b   18.74649732
_cell_length_c   18.89362277
_cell_angle_alpha   109.06379668
_cell_angle_beta   109.51574304
_cell_angle_gamma   109.16796199
_symmetry_Int_Tables_number   1
_chemical_formula_structural   Zn6H82C73O35
_chemical_formula_sum   'Zn6 H82 C73 O35'
_cell_volume   5106.04184477
_cell_formula_units_Z   1
loop_
 _symmetry_equiv_pos_site_id
 _symmetry_equiv_pos_as_xyz
  1  'x, y, z'
loop_
 _atom_site_type_symbol
 _atom_site_label
 _atom_site_symmetry_multiplicity
 _atom_site_fract_x
 _atom_site_fract_y
 _atom_site_fract_z
 _atom_site_occupancy
 _atom_site_pbe_bader_charge
 _atom_site_pbe_bader_spin_density
 _atom_site_pbe_cm5_charge
 _atom_site_pbe_ddec_charge
 _atom_site_pbe_ddec_spin_density
 _atom_site_pbe_ddec_sum_bond_order
 _atom_site_pbe_magmom
Zn  Zn0  1  0.00221387  0.06481727  0.56522117  1  1.310255  0  0.725867  0.962697  0  2.122878  0
Zn  Zn1  1  0.00412652  0.93936740  0.44536271  1  1.304327  0  0.715812  0.949915  0  2.136995  0
Zn  Zn2  1  0.43835080  0.93505493  0.99882064  1  1.296786  0  0.713465  0.939629  0  2.169105  0
Zn  Zn3  1  0.56442088  0.06711982  0.00992370  1  1.289755  0  0.711326  0.932369  0  2.16423  0
Zn  Zn4  1  0.41838123  0.48938830  0.42745234  1  1.300553  0  0.714143  0.941631  0  2.159018  0
Zn  Zn5  1  0.54885475  0.49460996  0.55115242  1  1.290933  0  0.709894  0.938028  0  2.177669  0
H  H6  1  0.74848002  0.68017075  0.53595014  1  0.096643  0  0.104563  0.136661  0  1.055728  0
H  H7  1  0.55233228  0.32172543  0.35030480  1  0.099407  0  0.114581  0.11813  0  0.972366  0
H  H8  1  0.36179767  0.24611848  0.21178979  1  0.09839  0  0.110287  0.128873  0  0.988072  0
H  H9  1  0.56039733  0.23033518  0.22480764  1  0.088118  0  0.115796  0.118075  0  0.967135  0
H  H10  1  0.37806974  0.09641447  0.17709015  1  0.093188  0  0.109214  0.127253  0  0.989468  0
H  H11  1  0.59423375  0.77486962  0.70629628  1  0.072565  0  0.104761  0.120437  0  0.992224  0
H  H12  1  0.56278021  0.89020079  0.79150653  1  0.0824  0  0.107578  0.117727  0  0.993842  0
H  H13  1  0.61087622  0.09178716  0.23083433  1  0.066093  0  0.098598  0.10951  0  1.034308  0
H  H14  1  0.58730569  0.11079147  0.35414236  1  0.05611  0  0.101626  0.109205  0  1.025321  0
H  H15  1  0.56379067  0.03023657  0.50221981  1  0.043997  0  0.106954  0.073195  0  0.957463  0
H  H16  1  0.53029516  0.03683632  0.40580154  1  0.056809  0  0.099699  0.058841  0  0.990937  0
H  H17  1  0.75890831  0.71582961  0.35994876  1  0.092493  0  0.110837  0.13386  0  1.019138  0
H  H18  1  0.65459362  0.19067912  0.58997428  1  0.057096  0  0.097372  0.094301  0  0.963794  0
H  H19  1  0.62208510  0.20071971  0.49625512  1  0.037025  0  0.093501  0.087851  0  0.978789  0
H  H20  1  0.46382170  0.13058301  0.46153650  1  0.005369  0  0.083857  0.104629  0  1.009361  0
H  H21  1  0.53100528  0.22429929  0.56525748  1  0.028847  0  0.092554  0.124288  0  0.998859  0
H  H22  1  0.49577188  0.11961953  0.55534776  1  0.030765  0  0.087593  0.111581  0  1.001045  0
H  H23  1  0.89138687  0.90036049  0.69607982  1  0.057815  0  0.109383  0.079618  0  0.953317  0
H  H24  1  0.95513009  0.91167646  0.64415223  1  0.08523  0  0.100657  0.07336  0  1.016874  0
H  H25  1  0.87388021  0.75424032  0.66661445  1  0.019406  0  0.097385  0.094653  0  0.970261  0
H  H26  1  0.93148761  0.76025248  0.60880463  1  0.043489  0  0.09657  0.094238  0  0.963857  0
H  H27  1  0.06786025  0.88753349  0.74390368  1  0.013372  0  0.083392  0.108211  0  1.026031  0
H  H28  1  0.36080842  0.07650128  0.80486935  1  0.103407  0  0.112717  0.151555  0  0.993084  0
H  H29  1  0.03006739  0.79726318  0.76003756  1  0.038446  0  0.09391  0.12426  0  0.989533  0
H  H30  1  0.01009637  0.88361943  0.80237006  1  0.020819  0  0.08263  0.099644  0  1.017374  0
H  H31  1  0.15096649  0.00624634  0.88945946  1  0.081339  0  0.099693  0.098404  0  1.029329  0
H  H32  1  0.19783039  0.12088380  0.95656544  1  0.037172  0  0.100325  0.096518  0  0.986424  0
H  H33  1  0.21840276  0.05597568  0.00373931  1  0.061232  0  0.110748  0.117451  0  0.972246  0
H  H34  1  0.09728729  0.18663259  0.43214859  1  0.056784  0  0.099687  0.072459  0  0.995784  0
H  H35  1  0.00246752  0.18186313  0.36048835  1  0.056423  0  0.096828  0.06145  0  0.980656  0
H  H36  1  0.13888555  0.14940334  0.31840631  1  0.011224  0  0.087496  0.084366  0  0.984302  0
H  H37  1  0.04084484  0.13414556  0.24222838  1  0.027078  0  0.087064  0.080012  0  1.005246  0
H  H38  1  0.08724707  0.29197652  0.32678069  1  0.02912  0  0.083832  0.107809  0  1.005165  0
H  H39  1  0.19134467  0.11908204  0.82946366  1  0.097474  0  0.114761  0.123702  0  0.982014  0
H  H40  1  0.16468892  0.27907035  0.29597890  1  0.028793  0  0.086923  0.120053  0  0.997029  0
H  H41  1  0.18773619  0.30993498  0.40305363  1  0.038622  0  0.079759  0.105851  0  1.045258  0
H  H42  1  0.32548655  0.58217000  0.67950487  1  0.057386  0  0.100625  0.067842  0  0.983375  0
H  H43  1  0.35107233  0.53219007  0.60049437  1  0.026389  0  0.098336  0.06701  0  1.001631  0
H  H44  1  0.21389354  0.59112922  0.56422290  1  0.031169  0  0.095144  0.090472  0  0.965349  0
H  H45  1  0.23549592  0.53071045  0.48807444  1  0.046294  0  0.091254  0.088297  0  0.977135  0
H  H46  1  0.18838517  0.40791561  0.52314280  1  0.008959  0  0.081804  0.105051  0  1.024403  0
H  H47  1  0.10253794  0.43032426  0.48269371  1  0.014733  0  0.088095  0.114979  0  1.002091  0
H  H48  1  0.16249571  0.46869085  0.59489886  1  0.031903  0  0.085154  0.108112  0  1.005188  0
H  H49  1  0.57164055  0.73995475  0.91146623  1  0.062048  0  0.09664  0.098532  0  0.987486  0
H  H50  1  0.20404163  0.98208850  0.69725857  1  0.093996  0  0.112871  0.131058  0  0.982582  0
H  H51  1  0.46736800  0.65086079  0.87422050  1  0.032643  0  0.104011  0.107267  0  0.980586  0
H  H52  1  0.49695950  0.75926951  0.94540380  1  0.052229  0  0.09555  0.104103  0  1.010225  0
H  H53  1  0.02033874  0.87302540  0.14682674  1  0.03804  0  0.104135  0.071144  0  0.960784  0
H  H54  1  0.90455298  0.83168684  0.10000856  1  0.049795  0  0.097291  0.059259  0  0.989586  0
H  H55  1  0.03380405  0.90461136  0.29032341  1  0.049675  0  0.090386  0.096966  0  1.001591  0
H  H56  1  0.92015294  0.86876334  0.24720652  1  0.037  0  0.089902  0.090229  0  0.995761  0
H  H57  1  0.88507043  0.71775397  0.15038575  1  0.033403  0  0.08489  0.108691  0  1.004245  0
H  H58  1  0.95104621  0.75126561  0.26014016  1  0.03456  0  0.087843  0.117253  0  1.000823  0
H  H59  1  0.99886127  0.75241733  0.19320416  1  0.01392  0  0.084319  0.107273  0  1.005614  0
H  H60  1  0.95430421  0.91996235  0.03219137  1  0.06217  0  0.096508  0.094417  0  1.018711  0
H  H61  1  0.40155288  0.22297289  0.49683538  1  0.091252  0  0.108102  0.103742  0  1.017786  0
H  H62  1  0.93980379  0.01202536  0.04353373  1  0.046659  0  0.098932  0.098802  0  1.000005  0
H  H63  1  0.87636174  0.91502357  0.94072979  1  0.021248  0  0.102214  0.104162  0  0.98136  0
H  H64  1  0.68302400  0.99912952  0.94790893  1  0.060305  0  0.100329  0.075575  0  1.017197  0
H  H65  1  0.75914288  0.96095872  0.94770687  1  0.03176  0  0.093808  0.05576  0  1.010074  0
H  H66  1  0.79999627  0.13015216  0.09172897  1  0.048408  0  0.092073  0.101168  0  0.990886  0
H  H67  1  0.87664417  0.09486964  0.08917813  1  -0.001629  0  0.08347  0.069429  0  1.018221  0
H  H68  1  0.85681374  0.10246442  0.95281579  1  0.000333  0  0.080733  0.101007  0  1.013079  0
H  H69  1  0.89301230  0.20418923  0.03938789  1  0.027029  0  0.088033  0.115688  0  0.998605  0
H  H70  1  0.78152231  0.14030866  0.95684358  1  0.022718  0  0.085377  0.110662  0  1.000592  0
H  H71  1  0.72688183  0.88718251  0.42187130  1  0.027523  0  0.090429  0.05373  0  1.006179  0
H  H72  1  0.27818206  0.29803292  0.50586566  1  0.087953  0  0.110211  0.121202  0  1.012045  0
H  H73  1  0.64686577  0.92168172  0.40952846  1  0.030925  0  0.096762  0.053685  0  1.003136  0
H  H74  1  0.79566789  0.96792389  0.57972498  1  0.025102  0  0.086848  0.088143  0  0.996006  0
H  H75  1  0.72432458  0.01248871  0.57166824  1  0.030777  0  0.087663  0.081618  0  1.000206  0
H  H76  1  0.59417178  0.86179326  0.49622012  1  0.00437  0  0.079992  0.101862  0  1.009061  0
H  H77  1  0.67159645  0.88683326  0.59884588  1  0.0107  0  0.083984  0.111356  0  1.002396  0
H  H78  1  0.66582544  0.81741462  0.50499775  1  0.051759  0  0.081846  0.1132  0  1.032307  0
H  H79  1  0.53545560  0.55505218  0.20592493  1  0.069539  0  0.111611  0.080904  0  0.952688  0
H  H80  1  0.64967146  0.61837803  0.24858134  1  0.036011  0  0.100729  0.061462  0  0.982885  0
H  H81  1  0.52789564  0.68859515  0.27742233  1  0.045512  0  0.097108  0.094335  0  0.962707  0
H  H82  1  0.64100172  0.75324677  0.31806345  1  0.013339  0  0.087808  0.076794  0  1.025301  0
H  H83  1  0.25731301  0.08316836  0.43351704  1  0.100234  0  0.115119  0.112832  0  0.967732  0
H  H84  1  0.61684580  0.70111014  0.16609791  1  0.030361  0  0.087378  0.112032  0  1.000371  0
H  H85  1  0.55375722  0.75138198  0.18273617  1  0.034862  0  0.093011  0.124885  0  0.991788  0
H  H86  1  0.50275232  0.63664063  0.12471985  1  0.012345  0  0.085531  0.106856  0  1.006088  0
H  H87  1  0.23941440  0.21557452  0.56479931  1  0.074919  0  0.110146  0.125973  0  0.990515  0
C  C88  1  0.88736471  0.86432974  0.48581353  1  1.558764  0  0.214219  0.544042  0  4.187479  0
C  C89  1  0.73886810  0.04318311  0.40276586  1  0.570203  0  0.068446  0.092692  0  4.023648  0
C  C90  1  0.67973076  0.65705285  0.41043415  1  0.444254  0  0.099311  0.335627  0  4.044313  0
C  C91  1  0.89918018  0.03250370  0.40900342  1  1.559092  0  0.221576  0.618165  0  4.147406  0
C  C92  1  0.68465191  0.64393818  0.47864580  1  0.086349  0  -0.135482  -0.411008  0  3.902532  0
C  C93  1  0.75501747  0.72282083  0.41781905  1  -0.016383  0  -0.107537  -0.306302  0  3.980954  0
C  C94  1  0.82082013  0.79742225  0.49117587  1  0.546875  0  0.090183  0.137742  0  4.003468  0
C  C95  1  0.28624493  0.07319990  0.86838892  1  0.448645  0  0.088964  0.274246  0  4.070588  0
C  C96  1  0.35191500  0.06628802  0.85548518  1  0.06008  0  -0.119738  -0.384563  0  3.871573  0
C  C97  1  0.21699134  0.07717134  0.80646490  1  -0.093606  0  -0.072193  -0.121908  0  3.971551  0
C  C98  1  0.18233951  0.02759975  0.72115039  1  0.010817  0  -0.085994  -0.202936  0  3.905202  0
C  C99  1  0.84676033  0.02304925  0.26417011  1  0.044196  0  -0.008662  -0.019113  0  4.004672  0
C  C100  1  0.34383609  0.22481843  0.49807285  1  -0.044639  0  -0.071833  -0.04077  0  3.971066  0
C  C101  1  0.33905666  0.29814337  0.51337044  1  -0.023814  0  -0.084084  -0.209916  0  3.878979  0
C  C102  1  0.27140390  0.14657645  0.47877886  1  -0.077981  0  -0.063981  -0.014678  0  3.959294  0
C  C103  1  0.14119336  0.08240851  0.49825569  1  1.520953  0  0.209475  0.635803  0  4.165855  0
C  C104  1  0.22176265  0.15225434  0.51622922  1  0.013106  0  -0.088917  -0.229062  0  3.912616  0
C  C105  1  0.45430404  0.06712174  0.11536500  1  1.497611  0  0.20558  0.629187  0  4.170217  0
C  C106  1  0.64500271  0.02541979  0.12009319  1  1.575976  0  0.224943  0.61813  0  4.151841  0
C  C107  1  0.48920029  0.87273992  0.88707475  1  1.523991  0  0.215975  0.556377  0  4.162285  0
C  C108  1  0.41610121  0.05043796  0.90969955  1  1.525099  0  0.213584  0.682324  0  4.120758  0
C  C109  1  0.42875240  0.35747400  0.34302845  1  1.542835  0  0.20595  0.632389  0  4.162389  0
C  C110  1  0.71453115  0.03010268  0.19393028  1  0.015119  0  -0.001256  -0.074111  0  3.865411  0
C  C111  1  0.61566016  0.58576848  0.48450222  1  1.462878  0  0.203084  0.670131  0  4.140449  0
C  C112  1  0.46826418  0.61438536  0.58254913  1  1.553449  0  0.216059  0.556927  0  4.181997  0
C  C113  1  0.40553718  0.37789477  0.52609371  1  1.534094  0  0.209326  0.635088  0  4.165905  0
C  C114  1  0.49278637  0.27414533  0.28815323  1  -0.058597  0  -0.067725  -0.025329  0  3.989827  0
C  C115  1  0.11303847  0.02646069  0.65276837  1  1.510198  0  0.203713  0.626476  0  4.17085  0
C  C116  1  0.42197681  0.28495117  0.27397886  1  -0.017655  0  -0.089098  -0.22691  0  3.881205  0
C  C117  1  0.49919568  0.20947357  0.22707880  1  -0.078835  0  -0.063011  -0.009423  0  3.97712  0
C  C118  1  0.43837486  0.12501403  0.17515079  1  0.012066  0  -0.091477  -0.235932  0  3.895499  0
C  C119  1  0.53437447  0.75855967  0.71074365  1  0.042506  0  -0.110529  -0.187048  0  4.027542  0
C  C120  1  0.46309168  0.68040002  0.64898759  1  0.478792  0  0.08099  0.111983  0  4.033476  0
C  C121  1  0.71000816  0.05404527  0.27077012  1  0.043836  0  -0.010988  0.051067  0  3.996168  0
C  C122  1  0.53278794  0.82292300  0.77739520  1  0.051001  0  -0.085826  -0.120853  0  3.986019  0
C  C123  1  0.49674600  0.80564326  0.82561651  1  0.49561  0  0.073258  0.088621  0  3.997059  0
C  C124  1  0.92275358  0.02175865  0.26199730  1  0.534956  0  0.068321  0.101597  0  4.049602  0
C  C125  1  0.91765342  0.97855665  0.18384615  1  0.510969  0  0.063889  0.056586  0  4.099261  0
C  C126  1  0.84348188  0.95126819  0.10500386  1  0.489729  0  0.058123  0.034265  0  4.098367  0
C  C127  1  0.77882551  0.97212463  0.10740792  1  0.567567  0  0.068795  0.10594  0  4.07242  0
C  C128  1  0.77784038  0.00737860  0.18661656  1  -0.019539  0  -0.013045  -0.030239  0  4.013288  0
C  C129  1  0.58349746  0.06963646  0.47285148  1  0.407285  0  -0.061788  0.03294  0  3.897296  0
C  C130  1  0.60021272  0.16065530  0.52424964  1  -0.045311  0  -0.168299  -0.140666  0  3.987124  0
C  C131  1  0.51823852  0.15872835  0.52678051  1  -0.054714  0  -0.240816  -0.351605  0  3.978923  0
C  C132  1  0.76454451  0.04576142  0.33954319  1  -0.002188  0  -0.006332  -0.011076  0  3.966334  0
C  C133  1  0.90304114  0.86438756  0.64616797  1  0.372887  0  -0.063662  0.023943  0  3.865757  0
C  C134  1  0.92693771  0.79921148  0.66347818  1  -0.019384  0  -0.167519  -0.139612  0  3.982838  0
C  C135  1  0.01357399  0.84440305  0.74702534  1  -0.050308  0  -0.241257  -0.346997  0  3.979  0
C  C136  1  0.20842726  0.06483685  0.94735274  1  0.377941  0  -0.133124  -0.177269  0  3.917357  0
C  C137  1  0.04831034  0.15598225  0.36397296  1  0.373058  0  -0.067913  0.031977  0  3.855838  0
C  C138  1  0.09118659  0.17285927  0.31083123  1  0.011257  0  -0.175078  -0.140561  0  3.987475  0
C  C139  1  0.13494922  0.26854147  0.33562449  1  -0.093855  0  -0.245522  -0.34967  0  3.968155  0
C  C140  1  0.32499624  0.57578270  0.61927416  1  0.412683  0  -0.065618  0.030799  0  3.866746  0
C  C141  1  0.23353297  0.54125327  0.54804884  1  0.00317  0  -0.167803  -0.130372  0  3.988391  0
C  C142  1  0.16813970  0.45753038  0.53657952  1  -0.067938  0  -0.243148  -0.351126  0  3.986952  0
C  C143  1  0.83668639  0.03641002  0.33770517  1  -0.019546  0  -0.017111  -0.104113  0  3.890003  0
C  C144  1  0.50213318  0.71917052  0.89201842  1  0.401792  0  -0.139815  -0.176018  0  3.904877  0
C  C145  1  0.96814387  0.87759495  0.15993551  1  0.396456  0  -0.065937  0.034528  0  3.87563  0
C  C146  1  0.96939799  0.85795481  0.23225613  1  -0.021661  0  -0.177221  -0.152308  0  3.972294  0
C  C147  1  0.95009863  0.76485656  0.20759713  1  -0.086221  0  -0.243184  -0.347418  0  3.985866  0
C  C148  1  0.90626585  0.94082375  0.01069767  1  0.418582  0  -0.138061  -0.173561  0  3.918579  0
C  C149  1  0.74234811  0.00114518  0.98919317  1  0.420124  0  -0.073592  0.02466  0  3.856275  0
C  C150  1  0.81769370  0.09396054  0.04816914  1  -0.004717  0  -0.177897  -0.149394  0  3.984529  0
C  C151  1  0.83831378  0.13748729  0.99642044  1  -0.052946  0  -0.24206  -0.343055  0  3.986779  0
C  C152  1  0.71461447  0.93975512  0.45209889  1  0.414189  0  -0.068633  0.044006  0  3.867979  0
C  C153  1  0.72886928  0.95452082  0.54070097  1  0.018679  0  -0.176082  -0.141496  0  3.989188  0
C  C154  1  0.64790206  0.07976367  0.27952026  1  -0.014269  0  -0.102039  -0.123585  0  4.013854  0
C  C155  1  0.66145969  0.87582008  0.53465542  1  -0.067153  0  -0.24706  -0.348839  0  3.976354  0
C  C156  1  0.59439007  0.61572471  0.25959893  1  0.402582  0  -0.060743  0.029934  0  3.90147  0
C  C157  1  0.58189904  0.69298526  0.26381506  1  -0.021519  0  -0.170239  -0.140579  0  3.985624  0
C  C158  1  0.56272675  0.69564204  0.17974666  1  -0.0493  0  -0.240125  -0.349727  0  3.977842  0
C  C159  1  0.63370422  0.08916364  0.34796620  1  -0.042527  0  -0.112309  -0.201927  0  4.080116  0
C  C160  1  0.67685300  0.06772513  0.40860094  1  0.455642  0  0.070548  0.140523  0  4.091443  0
O  O161  1  0.90968865  0.94244332  0.53279124  1  -1.161232  0  -0.299048  -0.546961  0  2.386657  0
O  O162  1  0.48947014  0.39051255  0.41934153  1  -1.182391  0  -0.312447  -0.580324  0  2.315703  0
O  O163  1  0.53509528  0.56137144  0.43774829  1  -1.164269  0  -0.323744  -0.576756  0  2.299267  0
O  O164  1  0.91504768  0.83745054  0.43424823  1  -1.125331  0  -0.316373  -0.513125  0  2.255882  0
O  O165  1  0.64380971  0.56442266  0.54333707  1  -1.122753  0  -0.343921  -0.558452  0  2.224525  0
O  O166  1  0.40937455  0.58039539  0.50350053  1  -1.12573  0  -0.313637  -0.514203  0  2.276486  0
O  O167  1  0.52826369  0.59584299  0.60895784  1  -1.163069  0  -0.310649  -0.552708  0  2.316413  0
O  O168  1  0.37608642  0.41606123  0.48959591  1  -1.168131  0  -0.308897  -0.574919  0  2.277901  0
O  O169  1  0.48784335  0.40370105  0.57111736  1  -1.125039  0  -0.324005  -0.531133  0  2.206641  0
O  O170  1  0.93794556  0.09480104  0.48658380  1  -1.118714  0  -0.312921  -0.522228  0  2.286789  0
O  O171  1  0.90932795  0.96596651  0.38796621  1  -1.166605  0  -0.317247  -0.581762  0  2.376391  0
O  O172  1  0.51664411  0.10020605  0.10212744  1  -1.175999  0  -0.311702  -0.583229  0  2.306693  0
O  O173  1  0.10406043  0.10842924  0.53842950  1  -1.17012  0  -0.314384  -0.57604  0  2.326709  0
O  O174  1  0.11123248  0.00227436  0.44498877  1  -1.134557  0  -0.315361  -0.536273  0  2.241261  0
O  O175  1  0.08439073  0.08006898  0.67343924  1  -1.133673  0  -0.329251  -0.546905  0  2.206749  0
O  O176  1  0.08560502  0.97041192  0.57638734  1  -1.164184  0  -0.314801  -0.570312  0  2.272111  0
O  O177  1  0.40314341  0.98437662  0.07951665  1  -1.112515  0  -0.328595  -0.533393  0  2.182787  0
O  O178  1  0.66107464  0.06854444  0.47450326  1  -1.065625  0  -0.179594  -0.190703  0  2.581764  0
O  O179  1  0.82061600  0.82074334  0.56687372  1  -1.06855  0  -0.170199  -0.17192  0  2.585638  0
O  O180  1  0.28713438  0.07960642  0.94278120  1  -1.051985  0  -0.183079  -0.14787  0  2.538552  0
O  O181  1  0.00120928  0.06437691  0.33757917  1  -1.053587  0  -0.198662  -0.220783  0  2.53947  0
O  O182  1  0.38220631  0.66206339  0.63857620  1  -1.045901  0  -0.178433  -0.178866  0  2.560758  0
O  O183  1  0.56751140  0.96437146  0.08405835  1  -1.174335  0  -0.305956  -0.564813  0  2.303719  0
O  O184  1  0.46048798  0.72410243  0.81556875  1  -1.059383  0  -0.19613  -0.160709  0  2.591618  0
O  O185  1  0.98596827  0.96573255  0.18163871  1  -1.058434  0  -0.204175  -0.221031  0  2.523594  0
O  O186  1  0.83470250  0.90657665  0.02593363  1  -1.068997  0  -0.200774  -0.159362  0  2.580388  0
O  O187  1  0.71390760  0.95936241  0.03521213  1  -1.057041  0  -0.188429  -0.201625  0  2.542669  0
O  O188  1  0.77551064  0.01652376  0.45771094  1  -1.066674  0  -0.193442  -0.205064  0  2.560753  0
O  O189  1  0.60393265  0.60477182  0.33371138  1  -1.064532  0  -0.172807  -0.187879  0  2.514926  0
O  O190  1  0.66758165  0.08801534  0.10305413  1  -1.121942  0  -0.312482  -0.527196  0  2.283382  0
O  O191  1  0.43285532  0.84335824  0.91008696  1  -1.124599  0  -0.3167  -0.514818  0  2.30701  0
O  O192  1  0.53589784  0.95237037  0.91190302  1  -1.178902  0  -0.311979  -0.563047  0  2.359348  0
O  O193  1  0.38798526  0.98728747  0.92284371  1  -1.158473  0  -0.311226  -0.569504  0  2.277871  0
O  O194  1  0.49826010  0.10132626  0.93871174  1  -1.121388  0  -0.331494  -0.542483  0  2.19165  0
O  O195  1  0.37311410  0.38434544  0.32145569  1  -1.134474  0  -0.328048  -0.538361  0  2.179564  0
