# generated using pymatgen
data_NiH34C32(NO)4
_symmetry_space_group_name_H-M   'P 1'
_cell_length_a   11.29646568
_cell_length_b   14.49344994
_cell_length_c   20.75063450
_cell_angle_alpha   110.40117013
_cell_angle_beta   100.65788261
_cell_angle_gamma   89.94318815
_symmetry_Int_Tables_number   1
_chemical_formula_structural   NiH34C32(NO)4
_chemical_formula_sum   'Ni4 H136 C128 N16 O16'
_cell_volume   3121.91856751
_cell_formula_units_Z   4
loop_
 _symmetry_equiv_pos_site_id
 _symmetry_equiv_pos_as_xyz
  1  'x, y, z'
loop_
 _atom_site_type_symbol
 _atom_site_label
 _atom_site_symmetry_multiplicity
 _atom_site_fract_x
 _atom_site_fract_y
 _atom_site_fract_z
 _atom_site_occupancy
 _atom_site_pbe_bader_charge
 _atom_site_pbe_bader_spin_density
 _atom_site_pbe_cm5_charge
 _atom_site_pbe_ddec_charge
 _atom_site_pbe_ddec_spin_density
 _atom_site_pbe_ddec_sum_bond_order
 _atom_site_pbe_magmom
Ni  Ni0  1  0.33381020  0.12464024  0.73942282  1  1.128666  1.552964  0.634277  0.717821  1.762508  2.495579  1.534
Ni  Ni1  1  0.16574832  0.38590976  0.26088081  1  1.125159  1.55301  0.634506  0.718004  1.762547  2.496742  1.534
Ni  Ni2  1  0.66617784  0.87534595  0.26057434  1  1.128438  1.552963  0.634332  0.717936  1.762507  2.495527  1.534
Ni  Ni3  1  0.83424153  0.61409551  0.73911546  1  1.12539  1.553017  0.63447  0.71806  1.762561  2.496615  1.534
H  H4  1  0.82997876  0.79007481  0.69106268  1  0.152123  0.000543  0.140784  0.113211  5.9e-05  0.999959  0.001
H  H5  1  0.67026702  0.09925209  0.30886700  1  0.162808  0.000546  0.1409  0.113306  6.2e-05  0.999479  0.001
H  H6  1  0.17002565  0.20992940  0.30893400  1  0.152174  0.000543  0.140713  0.113174  5.9e-05  0.999864  0.001
H  H7  1  0.32974098  0.90074041  0.69112760  1  0.162757  0.000546  0.140914  0.113312  6.2e-05  0.999455  0.001
H  H8  1  0.01043774  0.82930784  0.41695270  1  0.106875  0.000413  0.103646  0.105645  0.000275  1.025249  0.0
H  H9  1  0.49041358  0.41235695  0.58324150  1  0.086044  0.000429  0.104154  0.1064  0.000278  1.025188  0.0
H  H10  1  0.98956297  0.17070042  0.58304726  1  0.106895  0.000413  0.103658  0.105691  0.000275  1.025163  0.0
H  H11  1  0.50957566  0.58764362  0.41675303  1  0.085846  0.000429  0.104174  0.106456  0.000278  1.025216  0.0
H  H12  1  0.10492837  0.67621552  0.86391524  1  0.054214  0.000291  0.100474  0.113287  6e-05  1.032545  0.0
H  H13  1  0.39518947  0.81328264  0.13616233  1  0.068026  0.000289  0.100471  0.113783  5.9e-05  1.031768  0.0
H  H14  1  0.89507145  0.32378485  0.13608719  1  0.054165  0.000291  0.100465  0.113288  6e-05  1.032574  0.0
H  H15  1  0.60481713  0.18671078  0.86382731  1  0.067986  0.000289  0.100419  0.113725  5.9e-05  1.031822  0.0
H  H16  1  0.15267177  0.89278730  0.53407765  1  0.077917  0.000647  0.104803  0.111067  0.000423  1.00419  0.0
H  H17  1  0.34761731  0.35895406  0.46631036  1  0.083924  0.000642  0.104743  0.111088  0.000425  1.003701  0.0
H  H18  1  0.84732238  0.10721569  0.46592443  1  0.078083  0.000646  0.10479  0.111034  0.000423  1.004159  0.0
H  H19  1  0.65237194  0.64104457  0.53368225  1  0.083885  0.000643  0.104791  0.111301  0.000425  1.003367  0.0
H  H20  1  0.21505608  0.99157305  0.83167691  1  0.150148  0.000468  0.102675  0.128438  0.000154  1.058432  0.0
H  H21  1  0.28445086  0.16094811  0.16888723  1  0.14453  0.000474  0.102569  0.127792  0.000153  1.059532  0.0
H  H22  1  0.78493427  0.00843218  0.16832520  1  0.150011  0.000468  0.102722  0.128468  0.000154  1.058416  0.0
H  H23  1  0.71555789  0.83904801  0.83110950  1  0.14444  0.000474  0.102586  0.127765  0.000152  1.05961  0.0
H  H24  1  0.08359189  0.98164336  0.72444951  1  0.094651  0.000219  0.116503  0.109413  -1e-05  0.987151  0.0
H  H25  1  0.41628351  0.25789181  0.27566741  1  0.094481  0.000218  0.116624  0.109761  -1.2e-05  0.986913  0.0
H  H26  1  0.91641854  0.01835258  0.27554558  1  0.094644  0.000219  0.116589  0.109521  -1e-05  0.987175  0.0
H  H27  1  0.58371707  0.74210305  0.72432734  1  0.094382  0.000218  0.116594  0.109662  -1.2e-05  0.986989  0.0
H  H28  1  0.94777003  0.92511307  0.66532834  1  0.079224  -3.2e-05  0.107759  0.081114  -3e-05  0.997724  0.0
H  H29  1  0.55207490  0.26031361  0.33489635  1  0.075908  -3.3e-05  0.107343  0.080713  -3.1e-05  0.997714  0.0
H  H30  1  0.05224237  0.07488335  0.33466942  1  0.079192  -3.2e-05  0.10774  0.081136  -3e-05  0.997691  0.0
H  H31  1  0.44792750  0.73968669  0.66510453  1  0.075935  -3.3e-05  0.107334  0.080653  -3.1e-05  0.99769  0.0
H  H32  1  0.54783771  0.27822686  0.79763085  1  0.161568  0.000519  0.140849  0.109788  5e-06  1.00283  0.001
H  H33  1  0.95113829  0.48106954  0.20236090  1  0.105619  0.000511  0.140845  0.109603  8e-06  1.002566  0.001
H  H34  1  0.45215572  0.72176134  0.20236830  1  0.16157  0.00052  0.140849  0.109837  5e-06  1.002721  0.001
H  H35  1  0.04885655  0.51893615  0.79764167  1  0.105539  0.000511  0.140827  0.109579  8e-06  1.002679  0.001
H  H36  1  0.96392216  0.06982165  0.81564997  1  0.021606  0.000123  0.091325  0.08658  7.8e-05  1.004417  0.0
H  H37  1  0.53602882  0.25451372  0.18444193  1  0.021744  0.000122  0.091416  0.086364  7.8e-05  1.003978  0.0
H  H38  1  0.03608101  0.93017314  0.18434324  1  0.021457  0.000123  0.091344  0.086571  7.8e-05  1.004465  0.0
H  H39  1  0.46398033  0.74549117  0.81555836  1  0.021696  0.000122  0.091401  0.086385  7.8e-05  1.004025  0.0
H  H40  1  0.82848438  0.01369462  0.75624114  1  0.035925  2.7e-05  0.08764  0.080402  9e-06  1.005725  0.0
H  H41  1  0.67145116  0.25784218  0.24394330  1  0.025736  2.7e-05  0.087891  0.080817  9e-06  1.00537  0.0
H  H42  1  0.17152395  0.98630098  0.24374994  1  0.036208  2.7e-05  0.087664  0.080379  9e-06  1.0059  0.0
H  H43  1  0.32855187  0.74216186  0.75605837  1  0.025749  2.7e-05  0.087885  0.080809  9e-06  1.005418  0.0
H  H44  1  0.89079179  0.09093664  0.67168525  1  -0.040093  6e-06  0.083668  0.073129  -1.1e-05  1.001046  0.0
H  H45  1  0.60859103  0.41973703  0.32819235  1  0.01089  6e-06  0.083499  0.073038  -1.1e-05  1.000203  0.0
H  H46  1  0.10921538  0.90906874  0.32831334  1  -0.040087  6e-06  0.08365  0.073197  -1.1e-05  1.001011  0.0
H  H47  1  0.39139746  0.58026614  0.67180698  1  0.010785  6e-06  0.083571  0.073077  -1.1e-05  1.000132  0.0
H  H48  1  0.01101862  0.15690418  0.73958785  1  0.068158  5.5e-05  0.090335  0.099657  -6.3e-05  1.001374  0.0
H  H49  1  0.48855727  0.41763115  0.26006923  1  0.066431  5.6e-05  0.090519  0.099538  -6e-05  1.001717  0.0
H  H50  1  0.98898391  0.84310281  0.26041086  1  0.068496  5.4e-05  0.090343  0.099688  -6.3e-05  1.001409  0.0
H  H51  1  0.51144129  0.58236759  0.73992717  1  0.066485  5.6e-05  0.090512  0.099462  -6e-05  1.001753  0.0
H  H52  1  0.31600303  0.06648565  0.56040109  1  0.086547  0.000136  0.102141  0.116524  -7e-05  1.04784  0.0
H  H53  1  0.18297828  0.50624989  0.43960467  1  0.085192  0.000137  0.102065  0.115884  -7.1e-05  1.048169  0.0
H  H54  1  0.68399880  0.93351863  0.43959713  1  0.086909  0.000136  0.102152  0.116579  -7e-05  1.047665  0.0
H  H55  1  0.81702960  0.49376346  0.56040036  1  0.084935  0.000137  0.102042  0.115851  -7.1e-05  1.048132  0.0
H  H56  1  0.07626949  0.22807760  0.89931565  1  0.061588  0.000349  0.102414  0.102013  0.000191  1.025412  0.0
H  H57  1  0.42377869  0.32957461  0.10107346  1  0.059842  0.000349  0.102365  0.101365  0.000192  1.026253  0.0
H  H58  1  0.92373393  0.77192266  0.10068667  1  0.061499  0.000349  0.102439  0.102056  0.000191  1.025336  0.0
H  H59  1  0.57621900  0.67042833  0.89892784  1  0.059861  0.000349  0.102373  0.101376  0.000192  1.026213  0.0
H  H60  1  0.04087121  0.29541952  0.02302508  1  0.065988  0.000284  0.10274  0.106189  0.00017  1.014632  0.0
H  H61  1  0.45908149  0.27302588  0.97732045  1  0.068939  0.000293  0.103018  0.105805  0.000175  1.01594  0.0
H  H62  1  0.95912702  0.70457661  0.97697533  1  0.065794  0.000284  0.102653  0.10613  0.00017  1.014562  0.0
H  H63  1  0.54091291  0.72698270  0.02267983  1  0.068721  0.000293  0.103039  0.105823  0.000175  1.015871  0.0
H  H64  1  0.29201266  0.69123553  0.94167333  1  -0.002144  2.9e-05  0.088811  0.121835  2e-05  0.999397  0.0
H  H65  1  0.20797246  0.75092227  0.05870439  1  0.003956  2.8e-05  0.089289  0.122501  2e-05  0.999299  0.0
H  H66  1  0.70798195  0.30876227  0.05831772  1  -0.002143  2.9e-05  0.088815  0.121855  2e-05  0.999445  0.0
H  H67  1  0.79202453  0.24907029  0.94128807  1  0.003786  2.8e-05  0.089274  0.122461  2e-05  0.999333  0.0
H  H68  1  0.35554169  0.81341096  0.99178049  1  0.060909  -4.8e-05  0.089958  0.126002  -4.5e-05  1.028578  0.0
H  H69  1  0.14451515  0.82295995  0.00843720  1  0.072107  -4.9e-05  0.090113  0.126217  -4.6e-05  1.027831  0.0
H  H70  1  0.64445802  0.18658139  0.00821177  1  0.060635  -4.8e-05  0.089963  0.126062  -4.5e-05  1.028577  0.0
H  H71  1  0.85548043  0.17702913  0.99155621  1  0.072207  -4.9e-05  0.090146  0.126303  -4.6e-05  1.027763  0.0
H  H72  1  0.41131485  0.74284654  0.91718122  1  0.050198  -4.8e-05  0.087088  0.112222  -6.1e-05  1.04957  0.0
H  H73  1  0.08849248  0.82704630  0.08298282  1  0.043558  -4.8e-05  0.087135  0.112111  -6e-05  1.050077  0.0
H  H74  1  0.58868083  0.25715115  0.08281193  1  0.050174  -4.8e-05  0.087094  0.112277  -6.1e-05  1.049367  0.0
H  H75  1  0.91150983  0.17294977  0.91701240  1  0.04321  -4.8e-05  0.087116  0.112084  -6e-05  1.050132  0.0
H  H76  1  0.82480868  0.24802321  0.66852645  1  -0.020154  1e-05  0.09127  0.084686  -2e-06  0.996383  0.0
H  H77  1  0.67435269  0.57965116  0.33122639  1  0.025895  9e-06  0.09117  0.084934  -2e-06  0.996574  0.0
H  H78  1  0.17519276  0.75199204  0.33147899  1  -0.020344  1e-05  0.091258  0.084732  -2e-06  0.996546  0.0
H  H79  1  0.32564757  0.42035364  0.66877529  1  0.025912  9e-06  0.091193  0.085  -2e-06  0.996522  0.0
H  H80  1  0.90992959  0.33150661  0.74707829  1  0.033994  7.8e-05  0.093806  0.094431  9e-06  0.989893  0.0
H  H81  1  0.58907126  0.58446152  0.25259557  1  0.019125  7.5e-05  0.093408  0.093999  8e-06  0.990575  0.0
H  H82  1  0.09006354  0.66849630  0.25293328  1  0.033994  7.8e-05  0.093826  0.09447  9e-06  0.989791  0.0
H  H83  1  0.41092992  0.41553998  0.74740283  1  0.019143  7.5e-05  0.093414  0.093975  8e-06  0.990513  0.0
H  H84  1  0.38477899  0.97157226  0.98350856  1  0.060079  1.3e-05  0.092849  0.130896  7e-06  1.003784  0.0
H  H85  1  0.11517143  0.98952227  0.01687424  1  0.010955  1.4e-05  0.092772  0.130781  7e-06  1.004312  0.0
H  H86  1  0.61521150  0.02842945  0.01649152  1  0.060053  1.3e-05  0.092841  0.130892  7e-06  1.003894  0.0
H  H87  1  0.88482519  0.01047251  0.98312703  1  0.010936  1.4e-05  0.092755  0.130742  7e-06  1.00435  0.0
H  H88  1  0.39462270  0.01508931  0.91434177  1  0.021636  -1.1e-05  0.090985  0.131628  -2.7e-05  0.999967  0.0
H  H89  1  0.10488479  0.10204461  0.08598777  1  0.024436  -1.1e-05  0.091497  0.132323  -2.7e-05  0.999612  0.0
H  H90  1  0.60537574  0.98491676  0.08566117  1  0.021805  -1.1e-05  0.090973  0.13159  -2.7e-05  0.999929  0.0
H  H91  1  0.89511035  0.89794723  0.91401427  1  0.024047  -1.1e-05  0.09145  0.132219  -2.7e-05  0.999583  0.0
H  H92  1  0.46442454  0.90667006  0.91776070  1  0.015243  1.3e-05  0.08888  0.120885  4e-06  1.014898  0.0
H  H93  1  0.03533371  0.99018094  0.08251787  1  0.045958  1.3e-05  0.08876  0.120693  4e-06  1.015244  0.0
H  H94  1  0.53558008  0.09333726  0.08224202  1  0.01488  1.3e-05  0.088855  0.12082  4e-06  1.015025  0.0
H  H95  1  0.96466676  0.00981297  0.91748549  1  0.04592  1.3e-05  0.088775  0.120746  4e-06  1.015169  0.0
H  H96  1  0.74178388  0.16418203  0.74587124  1  0.011359  -1.4e-05  0.084871  0.073645  -3.9e-05  1.013407  0.0
H  H97  1  0.75793487  0.41859548  0.25402416  1  0.012495  -1.5e-05  0.084958  0.074365  -4e-05  1.012643  0.0
H  H98  1  0.25821779  0.83581127  0.25412416  1  0.011411  -1.4e-05  0.084852  0.073637  -3.9e-05  1.013387  0.0
H  H99  1  0.24206648  0.58140824  0.74597865  1  0.01243  -1.5e-05  0.084967  0.074378  -4e-05  1.012643  0.0
H  H100  1  0.85727965  0.23492625  0.81489725  1  -0.023836  8e-06  0.085259  0.076961  2e-06  0.9925  0.0
H  H101  1  0.64233823  0.42034180  0.18492770  1  -0.026478  8e-06  0.085131  0.077352  2e-06  0.993426  0.0
H  H102  1  0.14271653  0.76506410  0.18510477  1  -0.023752  8e-06  0.085283  0.076976  2e-06  0.992477  0.0
H  H103  1  0.35766173  0.57965603  0.81507366  1  -0.026448  8e-06  0.085132  0.077337  2e-06  0.993434  0.0
H  H104  1  0.67678321  0.28277947  0.57832181  1  0.072961  0.000499  0.106071  0.121424  0.00022  1.00939  0.0
H  H105  1  0.82294791  0.70598481  0.42162695  1  0.088162  0.0005  0.106552  0.122833  0.00022  1.008841  0.0
H  H106  1  0.32321767  0.71722419  0.42168608  1  0.07294  0.000499  0.106122  0.121532  0.00022  1.009275  0.0
H  H107  1  0.17705674  0.29401376  0.57837737  1  0.088315  0.0005  0.10652  0.122761  0.00022  1.008751  0.0
H  H108  1  0.71944853  0.38050706  0.79323317  1  0.053124  8e-05  0.113241  0.094952  2.3e-05  0.955321  0.0
H  H109  1  0.77953667  0.58789633  0.20656985  1  0.051553  7.9e-05  0.112713  0.093825  2.2e-05  0.95596  0.0
H  H110  1  0.28054395  0.61949453  0.20678002  1  0.053516  8e-05  0.113183  0.094834  2.3e-05  0.95539  0.0
H  H111  1  0.22046856  0.41210412  0.79343265  1  0.051701  7.9e-05  0.112738  0.093921  2.2e-05  0.955896  0.0
H  H112  1  0.71881455  0.40197187  0.71413018  1  0.144993  -0.000138  0.114068  0.115688  -0.000214  1.036745  0.0
H  H113  1  0.77954246  0.68829383  0.28559942  1  0.116854  -0.00013  0.113787  0.114762  -0.000206  1.037104  0.0
H  H114  1  0.28118018  0.59803385  0.28588196  1  0.145417  -0.000138  0.114065  0.115692  -0.000213  1.036659  0.0
H  H115  1  0.22045502  0.31170598  0.71439584  1  0.116983  -0.00013  0.113775  0.114786  -0.000206  1.037128  0.0
H  H116  1  0.49944277  0.19836795  0.40984802  1  0.021126  4.9e-05  0.087753  0.116641  2.1e-05  1.029677  0.0
H  H117  1  0.00047587  0.78941364  0.59001814  1  0.022956  4.9e-05  0.08768  0.116009  2.2e-05  1.030585  0.0
H  H118  1  0.50056565  0.80163810  0.59015564  1  0.02102  4.9e-05  0.087818  0.116719  2.1e-05  1.02971  0.0
H  H119  1  0.99951399  0.21058530  0.40998212  1  0.022856  4.9e-05  0.087623  0.11597  2.2e-05  1.030527  0.0
H  H120  1  0.59431956  0.10217413  0.41301306  1  0.072126  1.2e-05  0.092463  0.134056  -5.3e-05  1.018204  0.0
H  H121  1  0.90535434  0.69047142  0.58704250  1  0.058328  1.4e-05  0.092294  0.13384  -5.1e-05  1.019182  0.0
H  H122  1  0.40568774  0.89782919  0.58698494  1  0.072027  1.2e-05  0.092446  0.133977  -5.3e-05  1.018304  0.0
H  H123  1  0.09463956  0.30952501  0.41296042  1  0.058475  1.4e-05  0.092319  0.13383  -5.1e-05  1.019172  0.0
H  H124  1  0.65117046  0.22748186  0.45672389  1  0.02858  2.3e-05  0.089596  0.125857  1.2e-05  1.003966  0.0
H  H125  1  0.84871843  0.77220171  0.54326390  1  0.039491  2.3e-05  0.089841  0.126049  1.2e-05  1.004717  0.0
H  H126  1  0.34883898  0.77251793  0.54327428  1  0.02872  2.3e-05  0.089574  0.125877  1.2e-05  1.004002  0.0
H  H127  1  0.15126998  0.22779043  0.45673328  1  0.03958  2.3e-05  0.089786  0.126002  1.2e-05  1.004648  0.0
H  H128  1  0.40437278  0.98996955  0.40822141  1  0.064933  -4.2e-05  0.089518  0.129021  -4.1e-05  1.02083  0.0
H  H129  1  0.09479091  0.58178577  0.59165332  1  0.055603  -4.4e-05  0.089794  0.129409  -4.3e-05  1.020426  0.0
H  H130  1  0.59564008  0.01003849  0.59178348  1  0.065078  -4.2e-05  0.089515  0.128988  -4.1e-05  1.02078  0.0
H  H131  1  0.90522011  0.41822595  0.40835523  1  0.055463  -4.4e-05  0.089882  0.129575  -4.3e-05  1.020432  0.0
H  H132  1  0.33823061  0.09538195  0.39742990  1  0.009026  -2.2e-05  0.086776  0.119701  -1.9e-05  1.00362  0.0
H  H133  1  0.16091766  0.69801185  0.60266672  1  0.020501  -2.2e-05  0.086729  0.119433  -1.9e-05  1.004232  0.0
H  H134  1  0.66177796  0.90462106  0.60257221  1  0.009533  -2.2e-05  0.086736  0.119627  -1.9e-05  1.003719  0.0
H  H135  1  0.83908023  0.30200344  0.39733951  1  0.020607  -2.2e-05  0.086779  0.119617  -1.9e-05  1.004356  0.0
H  H136  1  0.26873588  0.02690017  0.43859511  1  0.03716  -2e-06  0.088172  0.121903  -4e-06  1.01256  0.0
H  H137  1  0.23044576  0.58841590  0.56138933  1  0.039123  -2e-06  0.087747  0.121023  -4e-06  1.013088  0.0
H  H138  1  0.73127777  0.97309933  0.56141012  1  0.037101  -2e-06  0.088189  0.121866  -4e-06  1.012576  0.0
H  H139  1  0.76955972  0.41159732  0.43861925  1  0.038749  -2e-06  0.087744  0.121071  -4e-06  1.01304  0.0
C  C140  1  0.05264357  0.77684189  0.80892245  1  0.3818  0.001072  0.081152  0.141404  0.000527  4.074572  0.001
C  C141  1  0.44724080  0.96873096  0.19131498  1  0.376072  0.001081  0.081214  0.140514  0.000548  4.075326  0.001
C  C142  1  0.94735537  0.22315598  0.19107749  1  0.382009  0.001072  0.08112  0.141398  0.000527  4.074757  0.001
C  C143  1  0.55275817  0.03126352  0.80868159  1  0.376463  0.001079  0.081205  0.140545  0.000547  4.075198  0.001
C  C144  1  0.07854886  0.03513712  0.56517571  1  -0.02863  0.002524  -0.017322  -0.035405  0.00159  3.991156  0.002
C  C145  1  0.42118946  0.47005350  0.43495526  1  -0.039967  0.002507  -0.017184  -0.035519  0.001566  3.992683  0.002
C  C146  1  0.92145626  0.96486883  0.43482049  1  -0.028528  0.002525  -0.01719  -0.035374  0.00159  3.991027  0.002
C  C147  1  0.57881754  0.52993566  0.56503456  1  -0.040504  0.002507  -0.017075  -0.0354  0.001567  3.992553  0.002
C  C148  1  0.91140177  0.80014170  0.73045911  1  1.011438  -0.00406  0.156872  0.124396  -0.004843  3.922504  -0.002
C  C149  1  0.58867928  0.07014736  0.26959498  1  1.009302  -0.004146  0.157567  0.125372  -0.004899  3.920927  -0.002
C  C150  1  0.08859876  0.19986675  0.26953885  1  1.01143  -0.004061  0.15708  0.12467  -0.004845  3.922029  -0.002
C  C151  1  0.41132550  0.92984147  0.73040039  1  1.009717  -0.004144  0.157453  0.12525  -0.004899  3.920945  -0.002
C  C152  1  0.29072499  0.20375627  0.85822937  1  1.540767  -0.002667  0.196133  0.549251  -0.004142  4.194846  -0.005
C  C153  1  0.20958845  0.34629080  0.14222705  1  1.533489  -0.002667  0.196297  0.548706  -0.004147  4.196843  -0.005
C  C154  1  0.70926746  0.79623481  0.14177190  1  1.540827  -0.002666  0.1961  0.549399  -0.004142  4.194814  -0.005
C  C155  1  0.79040719  0.65370588  0.85777539  1  1.533515  -0.002668  0.196247  0.548802  -0.004147  4.196704  -0.005
C  C156  1  0.08688302  0.86462017  0.79972641  1  0.28463  0.003703  0.087193  0.08407  0.002047  4.049939  0.003
C  C157  1  0.41281306  0.06573933  0.20066192  1  0.276565  0.003732  0.087102  0.08473  0.002066  4.049983  0.003
C  C158  1  0.91310923  0.13538657  0.20027866  1  0.284143  0.003703  0.087237  0.084148  0.002047  4.049908  0.003
C  C159  1  0.58719146  0.93425986  0.79934153  1  0.276629  0.003732  0.087208  0.084806  0.002066  4.049778  0.003
C  C160  1  0.26964400  0.24640334  0.93130482  1  0.005871  0.003413  -0.013789  -0.017808  0.002171  3.979019  0.002
C  C161  1  0.23042069  0.31551498  0.06907981  1  0.022007  0.003364  -0.015133  -0.018066  0.002153  3.977188  0.002
C  C162  1  0.73035770  0.75358744  0.06869909  1  0.005862  0.00341  -0.013747  -0.017758  0.002169  3.979006  0.002
C  C163  1  0.76957316  0.68446021  0.93092111  1  0.021872  0.003365  -0.015244  -0.018385  0.002154  3.977561  0.002
C  C164  1  0.16595588  0.07371256  0.63328276  1  1.521666  -0.003611  0.193453  0.533626  -0.005118  4.228283  -0.005
C  C165  1  0.33331770  0.44075580  0.36704785  1  1.520325  -0.003642  0.192908  0.534557  -0.005135  4.231894  -0.005
C  C166  1  0.83404981  0.92628989  0.36671658  1  1.521381  -0.00361  0.193353  0.533594  -0.005118  4.228329  -0.005
C  C167  1  0.66668152  0.55924379  0.63294644  1  1.5202  -0.003644  0.192949  0.534416  -0.005136  4.232048  -0.005
C  C168  1  0.00718525  0.90394578  0.45364134  1  -0.017136  0.000622  -0.082447  -0.096447  0.000116  3.974228  0.001
C  C169  1  0.49331742  0.45028951  0.54646712  1  0.020977  0.000607  -0.082978  -0.097804  0.000113  3.978114  0.001
C  C170  1  0.99281296  0.09605909  0.54635748  1  -0.017361  0.000623  -0.082449  -0.096604  0.000116  3.974395  0.001
C  C171  1  0.50669576  0.54969946  0.45352103  1  0.020641  0.000607  -0.08301  -0.097961  0.000113  3.978442  0.001
C  C172  1  0.12987354  0.74337868  0.85586695  1  0.007563  0.001051  -0.099537  -0.230967  0.000387  3.985268  0.001
C  C173  1  0.37009562  0.88851028  0.14431717  1  0.001405  0.001056  -0.099627  -0.231692  0.000391  3.984506  0.001
C  C174  1  0.87012525  0.25662270  0.14413501  1  0.007548  0.001051  -0.09949  -0.230997  0.000388  3.985252  0.001
C  C175  1  0.62991310  0.11148825  0.85568196  1  0.00188  0.001056  -0.099598  -0.231643  0.000391  3.984315  0.001
C  C176  1  0.08523180  0.93889828  0.51856134  1  -0.071624  0.001034  -0.08459  -0.097258  0.000497  3.96463  0.001
C  C177  1  0.41493305  0.42047777  0.48168556  1  -0.088638  0.00103  -0.084178  -0.096288  0.000492  3.966591  0.001
C  C178  1  0.91476853  0.06110452  0.48143908  1  -0.072112  0.001035  -0.084531  -0.097083  0.000497  3.964583  0.001
C  C179  1  0.58508488  0.57949691  0.51830090  1  -0.088236  0.001028  -0.084238  -0.096493  0.000491  3.96667  0.001
C  C180  1  0.23888979  0.79774478  0.89225217  1  -0.001316  -0.0008  -0.019684  0.092535  -0.000851  3.971672  -0.001
C  C181  1  0.26092728  0.90668796  0.10806350  1  -0.033601  -0.000805  -0.01933  0.093948  -0.000857  3.971644  -0.001
C  C182  1  0.76111542  0.20225674  0.10774038  1  -0.002055  -0.0008  -0.019579  0.09272  -0.000851  3.971726  -0.001
C  C183  1  0.73907975  0.09330355  0.89192938  1  -0.034056  -0.000804  -0.019309  0.093834  -0.000856  3.971484  -0.001
C  C184  1  0.19290269  0.92210764  0.83769124  1  -0.007317  0.00025  -0.105224  -0.244375  6.8e-05  3.995056  0.0
C  C185  1  0.30666905  0.08544976  0.16280403  1  -0.018509  0.00024  -0.105106  -0.243072  6.5e-05  3.994972  0.0
C  C186  1  0.80709356  0.07789434  0.16230250  1  -0.007076  0.00025  -0.105344  -0.244517  6.7e-05  3.994974  0.0
C  C187  1  0.69334152  0.91454412  0.83719048  1  -0.018787  0.000241  -0.105106  -0.242995  6.5e-05  3.994905  0.0
C  C188  1  0.99045078  0.95615506  0.72117596  1  0.275976  0.000769  -0.051896  -0.060973  0.000446  3.890624  0.001
C  C189  1  0.50942996  0.23555888  0.27903223  1  0.296587  0.000763  -0.051792  -0.060843  0.000446  3.891153  0.001
C  C190  1  0.00955647  0.04384687  0.27881993  1  0.275888  0.000769  -0.052016  -0.06117  0.000445  3.890872  0.001
C  C191  1  0.49057227  0.76443335  0.72096872  1  0.296813  0.000763  -0.05177  -0.060721  0.000447  3.890902  0.001
C  C192  1  0.53456291  0.25099604  0.74089271  1  1.006065  -0.002582  0.155831  0.107928  -0.003223  3.955795  -0.001
C  C193  1  0.96445906  0.51067430  0.25910611  1  1.036283  -0.002635  0.155635  0.108012  -0.003364  3.958399  -0.001
C  C194  1  0.46543609  0.74900225  0.25910837  1  1.006039  -0.002585  0.155864  0.107939  -0.003226  3.955399  -0.001
C  C195  1  0.03554222  0.48932997  0.74089652  1  1.03627  -0.002634  0.15568  0.10809  -0.003363  3.958383  -0.001
C  C196  1  0.46003230  0.17273849  0.63047060  1  0.35244  0.000645  0.082705  0.141012  3.9e-05  4.071413  0.0
C  C197  1  0.03913195  0.54290355  0.36954712  1  0.354422  0.000694  0.082984  0.14073  5.6e-05  4.071032  0.0
C  C198  1  0.53995965  0.82726857  0.36953113  1  0.352496  0.000646  0.082636  0.141002  4e-05  4.071197  0.0
C  C199  1  0.96086337  0.45709540  0.63045388  1  0.35445  0.000693  0.082969  0.140556  5.5e-05  4.071117  0.0
C  C200  1  0.26923153  0.88837524  0.88446467  1  -0.064382  0.000326  -0.014978  0.111375  0.000177  3.957483  0.0
C  C201  1  0.23045656  0.00511953  0.11594712  1  0.012265  0.00033  -0.015855  0.109447  0.000179  3.95928  0.0
C  C202  1  0.73076245  0.11163331  0.11553045  1  -0.064362  0.000326  -0.015068  0.111328  0.000177  3.957634  0.0
C  C203  1  0.76954231  0.99487256  0.88405662  1  0.012497  0.00033  -0.015895  0.109401  0.000179  3.959199  0.0
C  C204  1  0.56106612  0.23377293  0.63464145  1  0.34496  0.003249  0.08988  0.084821  0.001853  4.031738  0.003
C  C205  1  0.93821074  0.60006413  0.36531348  1  0.260085  0.003309  0.089837  0.086148  0.001865  4.031118  0.003
C  C206  1  0.43893425  0.76623319  0.36536301  1  0.344823  0.00325  0.089905  0.084856  0.001853  4.031774  0.003
C  C207  1  0.06179281  0.39994282  0.63468666  1  0.259957  0.003308  0.089837  0.086288  0.001864  4.030969  0.003
C  C208  1  0.92113810  0.04135463  0.75968293  1  -0.016828  -6e-05  -0.165142  -0.162596  -7.8e-05  3.948833  0.0
C  C209  1  0.57873778  0.28205848  0.24041711  1  0.016123  -6.1e-05  -0.165664  -0.163362  -7.9e-05  3.948233  0.0
C  C210  1  0.07886993  0.95864753  0.24031171  1  -0.017179  -6.1e-05  -0.165146  -0.162485  -7.8e-05  3.948866  0.0
C  C211  1  0.42126121  0.71794029  0.75958445  1  0.016101  -6.1e-05  -0.165644  -0.163437  -7.9e-05  3.948354  0.0
C  C212  1  0.91902847  0.12324491  0.72931131  1  0.021434  0.000103  -0.168931  -0.14433  7e-05  3.936938  0.0
C  C213  1  0.58061272  0.39430159  0.27054220  1  -0.061909  0.000105  -0.169117  -0.144021  7.1e-05  3.934238  0.0
C  C214  1  0.08097530  0.87675749  0.27068652  1  0.021258  0.000103  -0.168903  -0.144453  7e-05  3.936998  0.0
C  C215  1  0.41938506  0.60569790  0.72945640  1  -0.061833  0.000105  -0.169151  -0.143876  7.1e-05  3.934117  0.0
C  C216  1  0.39313475  0.11456242  0.56475897  1  -0.058609  0.001088  -0.097591  -0.221293  0.000417  3.963109  0.001
C  C217  1  0.10599008  0.55024275  0.43526333  1  -0.055335  0.001091  -0.097603  -0.22057  0.000419  3.962245  0.001
C  C218  1  0.60687757  0.88543746  0.43524149  1  -0.059179  0.001088  -0.097521  -0.221284  0.000417  3.96278  0.001
C  C219  1  0.89401538  0.44976522  0.56473929  1  -0.05511  0.00109  -0.097563  -0.220378  0.000419  3.962029  0.001
C  C220  1  0.15165966  0.25242643  0.94397453  1  -0.018298  0.002022  -0.086664  -0.104935  0.001089  3.981125  0.001
C  C221  1  0.34837552  0.30901180  0.05641443  1  -0.016898  0.002075  -0.08591  -0.103965  0.001118  3.980735  0.001
C  C222  1  0.84834422  0.74756999  0.05602911  1  -0.018165  0.002023  -0.086632  -0.104846  0.00109  3.980823  0.001
C  C223  1  0.65161979  0.69098956  0.94358898  1  -0.016721  0.002073  -0.085855  -0.10372  0.001117  3.980929  0.001
C  C224  1  0.13206804  0.28917503  0.01240450  1  -0.076371  0.00202  -0.085149  -0.099474  0.001107  3.972395  0.001
C  C225  1  0.36794394  0.27716144  0.98797972  1  -0.069742  0.001998  -0.085497  -0.098471  0.001091  3.973144  0.001
C  C226  1  0.86792905  0.71081445  0.98759665  1  -0.076106  0.002018  -0.085044  -0.09944  0.001105  3.972202  0.001
C  C227  1  0.63205696  0.72283932  0.01202529  1  -0.069785  0.002  -0.085642  -0.09879  0.001092  3.973411  0.001
C  C228  1  0.32823128  0.75927669  0.93832944  1  -0.085225  -1.1e-05  -0.241207  -0.408398  -3.8e-05  3.990247  0.0
C  C229  1  0.17170753  0.82232146  0.06195202  1  -0.085288  -1.1e-05  -0.241939  -0.409498  -3.8e-05  3.990435  0.0
C  C230  1  0.67176720  0.24071831  0.06166177  1  -0.084551  -1.1e-05  -0.241228  -0.408592  -3.8e-05  3.990184  0.0
C  C231  1  0.82829679  0.17767171  0.93804251  1  -0.084818  -1.1e-05  -0.241912  -0.40943  -3.8e-05  3.99032  0.0
C  C232  1  0.82749890  0.28174334  0.72532370  1  0.01528  4.5e-05  -0.162248  -0.161316  1.4e-05  3.941088  0.0
C  C233  1  0.67172779  0.55664888  0.27442827  1  -0.023677  3.2e-05  -0.162066  -0.161882  6e-06  3.942159  0.0
C  C234  1  0.17249535  0.71826242  0.27468260  1  0.015969  4.5e-05  -0.16226  -0.161416  1.4e-05  3.941059  0.0
C  C235  1  0.32827172  0.44335134  0.72557033  1  -0.02376  3.2e-05  -0.162079  -0.161813  6e-06  3.942084  0.0
C  C236  1  0.38394225  0.94848838  0.92694883  1  -0.0334  -1.2e-05  -0.238281  -0.398411  -2.5e-05  3.955779  0.0
C  C237  1  0.11577076  0.02286889  0.07340427  1  -0.043721  -1.2e-05  -0.238715  -0.398841  -2.5e-05  3.956202  0.0
C  C238  1  0.61605493  0.05151896  0.07305095  1  -0.033102  -1.2e-05  -0.238224  -0.398309  -2.5e-05  3.955967  0.0
C  C239  1  0.88422586  0.97712637  0.92659748  1  -0.04336  -1.2e-05  -0.238659  -0.398712  -2.4e-05  3.956152  0.0
C  C240  1  0.83240726  0.20124159  0.75724315  1  0.022398  1.4e-05  -0.169866  -0.141503  3e-06  3.959562  0.0
C  C241  1  0.66722988  0.44428205  0.24259230  1  0.053787  1.3e-05  -0.169486  -0.142527  2e-06  3.959254  0.0
C  C242  1  0.16759056  0.79876025  0.24275852  1  0.022159  1.4e-05  -0.169861  -0.141467  3e-06  3.959541  0.0
C  C243  1  0.33276898  0.55571782  0.75740889  1  0.053772  1.3e-05  -0.169521  -0.142658  2e-06  3.959286  0.0
C  C244  1  0.59865247  0.23579248  0.57470988  1  -0.029686  0.00017  -0.097887  -0.229055  1.3e-05  3.998771  0.0
C  C245  1  0.90086901  0.66228034  0.42523360  1  0.088256  0.000146  -0.098371  -0.231305  8e-06  3.999086  0.0
C  C246  1  0.40135071  0.76421620  0.42529860  1  -0.029475  0.00017  -0.098117  -0.229468  1.3e-05  3.99873  0.0
C  C247  1  0.09912575  0.33771528  0.57476778  1  0.088197  0.000146  -0.098349  -0.231182  8e-06  3.998818  0.0
C  C248  1  0.71898968  0.34426155  0.73696001  1  0.273183  0.000726  -0.054681  -0.074277  0.000463  3.875974  0.001
C  C249  1  0.77990917  0.60784652  0.26282927  1  0.296136  0.00072  -0.054265  -0.071772  0.00046  3.874028  0.001
C  C250  1  0.28100317  0.65574549  0.26305271  1  0.272127  0.000727  -0.054577  -0.074091  0.000463  3.875834  0.001
C  C251  1  0.22009045  0.39215551  0.73717259  1  0.295926  0.00072  -0.054351  -0.072034  0.00046  3.874249  0.001
C  C252  1  0.53214450  0.17687776  0.50935473  1  0.001763  0.000357  -0.014145  0.111169  0.000196  3.954534  0.0
C  C253  1  0.96733889  0.66847976  0.49060677  1  -0.077026  0.000361  -0.014887  0.111424  0.000197  3.954417  0.0
C  C254  1  0.46786874  0.82312698  0.49065129  1  0.001703  0.000357  -0.014048  0.111514  0.000196  3.954225  0.0
C  C255  1  0.03265997  0.33152059  0.50939490  1  -0.076883  0.000361  -0.01488  0.111302  0.000197  3.954307  0.0
C  C256  1  0.42799024  0.11710694  0.50429700  1  0.021495  -0.000682  -0.016654  0.100812  -0.000725  3.954823  0.0
C  C257  1  0.07128077  0.61337906  0.49571220  1  0.027993  -0.000693  -0.017313  0.099855  -0.000737  3.954227  0.0
C  C258  1  0.57202180  0.88289755  0.49570510  1  0.020564  -0.000682  -0.016763  0.100597  -0.000725  3.954655  0.0
C  C259  1  0.92871102  0.38661166  0.50429166  1  0.02766  -0.000693  -0.017296  0.099923  -0.000737  3.953961  0.0
C  C260  1  0.57154285  0.17626778  0.44395992  1  -0.077672  9e-06  -0.24194  -0.414313  -1.4e-05  3.983493  0.0
C  C261  1  0.92820724  0.73347625  0.55601791  1  -0.076583  9e-06  -0.241845  -0.413694  -1.3e-05  3.984851  0.0
C  C262  1  0.42846571  0.82373621  0.55604316  1  -0.077622  9e-06  -0.241912  -0.414334  -1.4e-05  3.983583  0.0
C  C263  1  0.07178468  0.26652019  0.44398282  1  -0.076627  9e-06  -0.241782  -0.413559  -1.3e-05  3.984677  0.0
C  C264  1  0.35587614  0.05440744  0.43361497  1  -0.05869  2e-06  -0.239962  -0.394493  -1.9e-05  3.959518  0.0
C  C265  1  0.14329908  0.62100621  0.56639039  1  -0.061218  2e-06  -0.239644  -0.393126  -2e-05  3.960621  0.0
C  C266  1  0.64413331  0.94559760  0.56638916  1  -0.058541  2e-06  -0.239884  -0.394277  -1.9e-05  3.959547  0.0
C  C267  1  0.85670751  0.37900401  0.43361740  1  -0.060621  2e-06  -0.239797  -0.393631  -2e-05  3.960869  0.0
N  N268  1  0.94160381  0.73841765  0.76463086  1  -1.184453  0.071937  -0.353677  -0.340336  0.041229  3.561267  0.063
N  N269  1  0.55848689  0.97436413  0.23540633  1  -1.203654  0.072424  -0.354014  -0.340062  0.041488  3.561578  0.064
N  N270  1  0.05838875  0.26158790  0.23536568  1  -1.184694  0.071938  -0.353778  -0.340396  0.041229  3.56145  0.063
N  N271  1  0.44151201  0.02562408  0.76459357  1  -1.20449  0.072409  -0.35403  -0.340164  0.041481  3.561624  0.064
N  N272  1  0.99569580  0.87633336  0.74891161  1  -1.249745  0.001427  -0.244481  -0.017732  0.000253  3.73889  0.001
N  N273  1  0.50416710  0.12804997  0.25134592  1  -1.26563  0.001426  -0.244245  -0.018194  0.000241  3.738259  0.001
N  N274  1  0.00430350  0.12367189  0.25108979  1  -1.248924  0.001428  -0.244517  -0.017934  0.000254  3.738697  0.001
N  N275  1  0.49584015  0.87194612  0.74865445  1  -1.265562  0.001425  -0.244189  -0.01801  0.000241  3.737857  0.001
N  N276  1  0.44658518  0.18501064  0.69836054  1  -1.215288  0.060574  -0.356838  -0.340012  0.035013  3.583225  0.052
N  N277  1  0.05244988  0.48711092  0.30169185  1  -1.181127  0.060778  -0.357182  -0.339845  0.035132  3.583781  0.053
N  N278  1  0.55340706  0.81499133  0.30163906  1  -1.214944  0.060576  -0.356778  -0.339936  0.035017  3.583158  0.052
N  N279  1  0.94755127  0.51289542  0.69831136  1  -1.181359  0.060775  -0.357183  -0.339926  0.035131  3.583706  0.053
N  N280  1  0.60555316  0.28317020  0.70572751  1  -1.223883  0.001577  -0.243487  -0.016203  0.000421  3.732275  0.001
N  N281  1  0.89359814  0.57827644  0.29420602  1  -1.217089  0.001532  -0.242541  -0.016863  0.000379  3.732545  0.001
N  N282  1  0.39444399  0.71683322  0.29427867  1  -1.223848  0.001577  -0.24353  -0.01632  0.000421  3.732123  0.001
N  N283  1  0.10640181  0.42172284  0.70579678  1  -1.216964  0.001531  -0.2425  -0.016849  0.000379  3.732473  0.001
O  O284  1  0.23942459  0.01461555  0.65067158  1  -1.147902  0.083471  -0.319069  -0.54763  0.046554  2.292061  0.075
O  O285  1  0.25980558  0.36449652  0.34984914  1  -1.146213  0.083391  -0.31892  -0.54853  0.046477  2.29359  0.075
O  O286  1  0.76056091  0.98537893  0.34932572  1  -1.147528  0.083478  -0.318982  -0.547614  0.046559  2.291993  0.075
O  O287  1  0.74018982  0.63550772  0.65014758  1  -1.146138  0.083405  -0.318872  -0.548393  0.046483  2.293536  0.075
O  O288  1  0.38051649  0.23669690  0.84098474  1  -1.14536  0.08135  -0.320775  -0.54149  0.045425  2.204091  0.072
O  O289  1  0.11972134  0.39656428  0.15937960  1  -1.14464  0.081369  -0.320857  -0.541467  0.045503  2.206579  0.072
O  O290  1  0.61947513  0.76329257  0.15901568  1  -1.14581  0.081348  -0.320821  -0.541585  0.045423  2.204231  0.072
O  O291  1  0.88027910  0.60344081  0.84062457  1  -1.144635  0.081367  -0.320813  -0.541431  0.045502  2.206455  0.072
O  O292  1  0.21994898  0.13226063  0.81324651  1  -1.144573  0.068235  -0.305267  -0.523582  0.038188  2.239736  0.06
O  O293  1  0.28052789  0.31988868  0.18729782  1  -1.145371  0.068126  -0.304949  -0.52284  0.038063  2.240449  0.06
O  O294  1  0.78003988  0.86773593  0.18674992  1  -1.144362  0.068228  -0.305201  -0.523616  0.038185  2.239606  0.06
O  O295  1  0.71946091  0.68010064  0.81270098  1  -1.145341  0.068123  -0.304913  -0.522846  0.038061  2.240414  0.06
O  O296  1  0.17150333  0.16384096  0.67231826  1  -1.155043  0.062819  -0.302664  -0.52487  0.03502  2.225152  0.056
O  O297  1  0.32749587  0.49167652  0.32782144  1  -1.149253  0.063191  -0.302391  -0.524707  0.035228  2.228203  0.056
O  O298  1  0.82850168  0.83615722  0.32769007  1  -1.155037  0.062802  -0.302725  -0.524993  0.03501  2.225144  0.056
O  O299  1  0.67250764  0.50832808  0.67217563  1  -1.148965  0.063192  -0.302425  -0.524727  0.035228  2.228524  0.056
