# generated using pymatgen
data_AgH2C6Cl3O
_symmetry_space_group_name_H-M   'P 1'
_cell_length_a   5.67870835
_cell_length_b   11.40346813
_cell_length_c   23.75000000
_cell_angle_alpha   90.00000000
_cell_angle_beta   90.00000000
_cell_angle_gamma   90.00000000
_symmetry_Int_Tables_number   1
_chemical_formula_structural   AgH2C6Cl3O
_chemical_formula_sum   'Ag8 H16 C48 Cl24 O8'
_cell_volume   1537.97803092
_cell_formula_units_Z   8
loop_
 _symmetry_equiv_pos_site_id
 _symmetry_equiv_pos_as_xyz
  1  'x, y, z'
loop_
 _atom_site_type_symbol
 _atom_site_label
 _atom_site_symmetry_multiplicity
 _atom_site_fract_x
 _atom_site_fract_y
 _atom_site_fract_z
 _atom_site_occupancy
 _atom_site_hle17_bader_spin_density
 _atom_site_hle17_ddec_charge
 _atom_site_hle17_ddec_spin_density
 _atom_site_hle17_ddec_sum_bond_order
 _atom_site_hle17_magmom
 _atom_site_hse06_10hf_bader_spin_density
 _atom_site_hse06_10hf_ddec_charge
 _atom_site_hse06_10hf_ddec_spin_density
 _atom_site_hse06_10hf_ddec_sum_bond_order
 _atom_site_hse06_10hf_magmom
 _atom_site_hse06_bader_spin_density
 _atom_site_hse06_ddec_charge
 _atom_site_hse06_ddec_spin_density
 _atom_site_hse06_ddec_sum_bond_order
 _atom_site_hse06_magmom
 _atom_site_pbe_bader_charge
 _atom_site_pbe_bader_spin_density
 _atom_site_pbe_cm5_charge
 _atom_site_pbe_ddec_charge
 _atom_site_pbe_ddec_spin_density
 _atom_site_pbe_ddec_sum_bond_order
 _atom_site_pbe_magmom
Ag  Ag0  1  0.11550690  0.15292278  0.19322316  1  0  0.613969  0  1.390957  0  0  0.507843  0  1.809503  0  0  0.533417  0  1.764865  0  0.626249  0  0.42372  0.489678  0  1.840645  0
Ag  Ag1  1  0.61550617  0.34707599  0.19322316  1  0  0.613981  0  1.390954  0  0  0.507848  0  1.809518  0  0  0.53342  0  1.764886  0  0.625747  0  0.423725  0.489687  0  1.840655  0
Ag  Ag2  1  0.61550617  0.15292278  0.30677684  1  0  0.613976  0  1.390951  0  0  0.507855  0  1.80949  0  0  0.533431  0  1.764854  0  0.626248  0  0.423726  0.489692  0  1.840631  0
Ag  Ag3  1  0.11550514  0.34707424  0.30677600  1  0  0.61397  0  1.390954  0  0  0.507842  0  1.809524  0  0  0.533411  0  1.764897  0  0.625699  0  0.42372  0.489677  0  1.840668  0
Ag  Ag4  1  0.88449339  0.84707651  0.80677600  1  0  0.613971  0  1.390942  0  0  0.507842  0  1.809491  0  0  0.533421  0  1.764845  0  0.626202  0  0.423719  0.489679  0  1.840631  0
Ag  Ag5  1  0.38449413  0.65292417  0.80677684  1  0  0.613981  0  1.390939  0  0  0.507842  0  1.809518  0  0  0.533413  0  1.764885  0  0.625745  0  0.423723  0.489679  0  1.840659  0
Ag  Ag6  1  0.38449236  0.84707739  0.69322316  1  0  0.613974  0  1.390956  0  0  0.507857  0  1.809485  0  0  0.533435  0  1.764844  0  0.626248  0  0.423726  0.489694  0  1.840626  0
Ag  Ag7  1  0.88449515  0.65292593  0.69322400  1  0  0.613986  0  1.39095  0  0  0.507856  0  1.80952  0  0  0.533424  0  1.764895  0  0.62572  0  0.423734  0.489688  0  1.840669  0
H  H8  1  0.67897130  0.99482016  0.02810695  1  0  0.120522  0  0.956818  0  0  0.127694  0  1.025128  0  0  0.131075  0  1.021908  0  0.127045  0  0.096348  0.125275  0  1.027385  0
H  H9  1  0.17897204  0.50517965  0.02810695  1  0  0.120531  0  0.956791  0  0  0.127695  0  1.025101  0  0  0.131089  0  1.021867  0  0.127082  0  0.096345  0.12527  0  1.027372  0
H  H10  1  0.17897204  0.99482016  0.47189305  1  0  0.120535  0  0.956791  0  0  0.127698  0  1.025108  0  0  0.131093  0  1.021873  0  0.127046  0  0.096352  0.125276  0  1.027368  0
H  H11  1  0.67897130  0.50518052  0.47189305  1  0  0.120511  0  0.956833  0  0  0.127661  0  1.025155  0  0  0.131045  0  1.021931  0  0.127047  0  0.096338  0.125238  0  1.027422  0
H  H12  1  0.32102723  0.00518000  0.97189305  1  0  0.120527  0  0.956823  0  0  0.127692  0  1.025134  0  0  0.131056  0  1.021931  0  0.127082  0  0.096347  0.125268  0  1.0274  0
H  H13  1  0.82102825  0.49481964  0.97189305  1  0  0.120518  0  0.95682  0  0  0.127679  0  1.025131  0  0  0.131056  0  1.021914  0  0.127048  0  0.096339  0.125254  0  1.0274  0
H  H14  1  0.82102649  0.00518000  0.52810695  1  0  0.120526  0  0.956836  0  0  0.127684  0  1.025151  0  0  0.131053  0  1.021942  0  0.127089  0  0.096349  0.125264  0  1.027407  0
H  H15  1  0.32102723  0.49482052  0.52810695  1  0  0.120509  0  0.956842  0  0  0.127677  0  1.025142  0  0  0.131041  0  1.021939  0  0.127081  0  0.096335  0.125254  0  1.027405  0
H  H16  1  0.84900997  0.99078016  0.23277811  1  0  0.133878  0  0.971091  0  0  0.138606  0  1.040118  0  0  0.142694  0  1.03749  0  0.140612  0  0.095513  0.135705  0  1.042093  0
H  H17  1  0.34900894  0.50922052  0.23277811  1  0  0.133886  0  0.971079  0  0  0.138619  0  1.040105  0  0  0.142706  0  1.037478  0  0.14061  0  0.095517  0.135718  0  1.042079  0
H  H18  1  0.34901070  0.99078016  0.26722189  1  0  0.133871  0  0.97108  0  0  0.138601  0  1.040115  0  0  0.142688  0  1.037488  0  0.140611  0  0.095504  0.1357  0  1.04209  0
H  H19  1  0.84900997  0.50921965  0.26722189  1  0  0.133904  0  0.971067  0  0  0.138634  0  1.040087  0  0  0.142721  0  1.037459  0  0.14061  0  0.095513  0.135732  0  1.042061  0
H  H20  1  0.15099032  0.00922000  0.76722189  1  0  0.133875  0  0.971093  0  0  0.138603  0  1.040123  0  0  0.14269  0  1.037496  0  0.140611  0  0.095513  0.135702  0  1.042098  0
H  H21  1  0.65098959  0.49077964  0.76722189  1  0  0.133896  0  0.971076  0  0  0.138629  0  1.040102  0  0  0.142716  0  1.037474  0  0.14061  0  0.095513  0.135728  0  1.042076  0
H  H22  1  0.65098959  0.00922000  0.73277811  1  0  0.133891  0  0.971081  0  0  0.138624  0  1.040108  0  0  0.14271  0  1.03748  0  0.140612  0  0.095515  0.135722  0  1.042082  0
H  H23  1  0.15099032  0.49077964  0.73277811  1  0  0.133889  0  0.971081  0  0  0.138618  0  1.040108  0  0  0.142705  0  1.037481  0  0.140608  0  0.095512  0.135716  0  1.042082  0
C  C24  1  0.64345970  0.07539548  0.16756000  1  0  0.29772  0  3.93351  0  0  0.278026  0  4.190827  0  0  0.293928  0  4.207421  0  0.651029  0  0.052914  0.267009  0  4.179458  0
C  C25  1  0.14345692  0.42460679  0.16756000  1  0  0.297782  0  3.933472  0  0  0.27807  0  4.190826  0  0  0.29397  0  4.207418  0  0.6511  0  0.052941  0.267053  0  4.17946  0
C  C26  1  0.14345868  0.07539548  0.33244000  1  0  0.297705  0  3.933495  0  0  0.278021  0  4.190813  0  0  0.293916  0  4.207409  0  0.651044  0  0.052917  0.267003  0  4.179444  0
C  C27  1  0.64345618  0.42460679  0.33244000  1  0  0.297883  0  3.933384  0  0  0.278161  0  4.190739  0  0  0.294063  0  4.207329  0  0.651099  0  0.052983  0.267144  0  4.179372  0
C  C28  1  0.35654059  0.92460468  0.83244000  1  0  0.297731  0  3.933574  0  0  0.278042  0  4.190889  0  0  0.293943  0  4.207483  0  0.651037  0  0.05293  0.267024  0  4.17952  0
C  C29  1  0.85654161  0.57539425  0.83244000  1  0  0.297851  0  3.93345  0  0  0.278153  0  4.190761  0  0  0.294056  0  4.207352  0  0.651099  0  0.05298  0.267137  0  4.179393  0
C  C30  1  0.85653985  0.92460468  0.66756000  1  0  0.29772  0  3.933496  0  0  0.278029  0  4.190819  0  0  0.293926  0  4.207415  0  0.65104  0  0.052916  0.267011  0  4.179449  0
C  C31  1  0.35654235  0.57539425  0.66756000  1  0  0.297834  0  3.933475  0  0  0.278133  0  4.190784  0  0  0.294035  0  4.207375  0  0.651128  0  0.05298  0.267116  0  4.179416  0
C  C32  1  0.59307501  0.06825292  0.10898821  1  0  0.014795  0  3.75743  0  0  0.023944  0  4.031387  0  0  0.02072  0  4.05271  0  0.054653  0  -0.018622  0.025468  0  4.017361  0
C  C33  1  0.09307574  0.43174848  0.10898821  1  0  0.014781  0  3.75758  0  0  0.023922  0  4.031561  0  0  0.020697  0  4.05289  0  0.054917  0  -0.018635  0.025451  0  4.017525  0
C  C34  1  0.09307398  0.06825204  0.39101179  1  0  0.01475  0  3.757528  0  0  0.023898  0  4.031479  0  0  0.020677  0  4.052808  0  0.054917  0  -0.018642  0.025424  0  4.017453  0
C  C35  1  0.59307501  0.43174848  0.39101179  1  0  0.014768  0  3.757527  0  0  0.023919  0  4.031501  0  0  0.020692  0  4.052827  0  0.054929  0  -0.018633  0.025445  0  4.01747  0
C  C36  1  0.40692528  0.93174812  0.89101179  1  0  0.014743  0  3.757547  0  0  0.023893  0  4.031495  0  0  0.020668  0  4.052817  0  0.054921  0  -0.018661  0.025419  0  4.017467  0
C  C37  1  0.90692455  0.56825169  0.89101179  1  0  0.014757  0  3.757575  0  0  0.02392  0  4.031517  0  0  0.020695  0  4.052836  0  0.054933  0  -0.018633  0.025446  0  4.017487  0
C  C38  1  0.90692631  0.93174812  0.60898821  1  0  0.01476  0  3.757506  0  0  0.02391  0  4.031458  0  0  0.020687  0  4.052782  0  0.05492  0  -0.018641  0.025436  0  4.017431  0
C  C39  1  0.40692528  0.56825169  0.60898779  1  0  0.014746  0  3.757602  0  0  0.023913  0  4.031539  0  0  0.020688  0  4.052857  0  0.054926  0  -0.018643  0.025439  0  4.017508  0
C  C40  1  0.71941184  0.99624341  0.07287116  1  0  -0.141589  0  3.763349  0  0  -0.177606  0  4.024553  0  0  -0.175154  0  4.042751  0  0.065843  0  -0.105033  -0.178794  0  4.012464  0
C  C41  1  0.21941257  0.50375640  0.07287074  1  0  -0.141551  0  3.763414  0  0  -0.177561  0  4.024635  0  0  -0.175125  0  4.042823  0  0.065815  0  -0.104998  -0.17875  0  4.012545  0
C  C42  1  0.21941257  0.99624341  0.42712884  1  0  -0.141537  0  3.763374  0  0  -0.177547  0  4.024575  0  0  -0.175111  0  4.042767  0  0.065842  0  -0.105009  -0.178736  0  4.012486  0
C  C43  1  0.71941184  0.50375727  0.42712926  1  0  -0.141522  0  3.763404  0  0  -0.17751  0  4.024609  0  0  -0.175061  0  4.042802  0  0.065828  0  -0.104993  -0.1787  0  4.012521  0
C  C44  1  0.28058845  0.00375675  0.92712884  1  0  -0.141552  0  3.763398  0  0  -0.177557  0  4.024595  0  0  -0.17509  0  4.042801  0  0.065842  0  -0.105007  -0.178744  0  4.012503  0
C  C45  1  0.78058772  0.49624289  0.92712926  1  0  -0.141537  0  3.763431  0  0  -0.177543  0  4.024628  0  0  -0.175088  0  4.042825  0  0.065823  0  -0.104998  -0.178732  0  4.012537  0
C  C46  1  0.78058772  0.00375675  0.57287116  1  0  -0.141536  0  3.7634  0  0  -0.177541  0  4.024614  0  0  -0.17508  0  4.042815  0  0.06584  0  -0.105007  -0.178728  0  4.012527  0
C  C47  1  0.28058845  0.49624289  0.57287074  1  0  -0.141537  0  3.763421  0  0  -0.177541  0  4.024622  0  0  -0.175078  0  4.042824  0  0.065827  0  -0.104996  -0.178727  0  4.01253  0
C  C48  1  0.90406650  0.92665406  0.09302189  1  0  0.05418  0  3.829466  0  0  0.058037  0  4.105553  0  0  0.056115  0  4.128438  0  0.040068  0  -0.015936  0.058823  0  4.090211  0
C  C49  1  0.40406724  0.57334487  0.09302147  1  0  0.054144  0  3.829452  0  0  0.057996  0  4.105545  0  0  0.056081  0  4.128422  0  0.040444  0  -0.015981  0.058776  0  4.090207  0
C  C50  1  0.40406724  0.92665406  0.40697811  1  0  0.054153  0  3.829481  0  0  0.058009  0  4.105573  0  0  0.056085  0  4.128464  0  0.04043  0  -0.015938  0.058792  0  4.090234  0
C  C51  1  0.90406826  0.57334575  0.40697853  1  0  0.054153  0  3.829427  0  0  0.058017  0  4.105509  0  0  0.056103  0  4.128384  0  0.040431  0  -0.015968  0.058796  0  4.09017  0
C  C52  1  0.09593203  0.07334611  0.90697811  1  0  0.05417  0  3.829474  0  0  0.058024  0  4.105565  0  0  0.056102  0  4.128447  0  0.04006  0  -0.015939  0.058808  0  4.090223  0
C  C53  1  0.59593129  0.42665529  0.90697853  1  0  0.054145  0  3.829458  0  0  0.057995  0  4.105563  0  0  0.056076  0  4.128442  0  0.040061  0  -0.01598  0.058774  0  4.090223  0
C  C54  1  0.59593305  0.07334611  0.59302189  1  0  0.054147  0  3.829454  0  0  0.057996  0  4.105557  0  0  0.056078  0  4.128433  0  0.040435  0  -0.015948  0.058776  0  4.090221  0
C  C55  1  0.09593027  0.42665441  0.59302147  1  0  0.054186  0  3.829418  0  0  0.058017  0  4.105551  0  0  0.056112  0  4.128409  0  0.04044  0  -0.015974  0.058797  0  4.090213  0
C  C56  1  0.95657140  0.92843772  0.15057221  1  0  0.085304  0  3.835708  0  0  0.087831  0  4.105701  0  0  0.093556  0  4.126779  0  0.110677  0  -0.008325  0.083964  0  4.09143  0
C  C57  1  0.45657214  0.57156121  0.15057221  1  0  0.085263  0  3.835765  0  0  0.08778  0  4.10577  0  0  0.093504  0  4.126844  0  0.110108  0  -0.008336  0.083917  0  4.091498  0
C  C58  1  0.45657037  0.92843772  0.34942779  1  0  0.085308  0  3.835717  0  0  0.087836  0  4.105705  0  0  0.093562  0  4.126782  0  0.110289  0  -0.008326  0.08397  0  4.091436  0
C  C59  1  0.95657316  0.57156121  0.34942779  1  0  0.085262  0  3.835798  0  0  0.087764  0  4.105814  0  0  0.093487  0  4.126889  0  0.110129  0  -0.00836  0.083907  0  4.091534  0
C  C60  1  0.04342889  0.07156244  0.84942779  1  0  0.085322  0  3.835675  0  0  0.087854  0  4.105659  0  0  0.093579  0  4.126739  0  0.110695  0  -0.008311  0.083988  0  4.091388  0
C  C61  1  0.54342639  0.42843808  0.84942779  1  0  0.0853  0  3.83569  0  0  0.087816  0  4.105699  0  0  0.093541  0  4.126774  0  0.110489  0  -0.008324  0.083958  0  4.091419  0
C  C62  1  0.54342992  0.07156244  0.65057221  1  0  0.085325  0  3.835714  0  0  0.087856  0  4.105704  0  0  0.09358  0  4.126782  0  0.110289  0  -0.008327  0.08399  0  4.091435  0
C  C63  1  0.04342713  0.42843896  0.65057221  1  0  0.085244  0  3.835778  0  0  0.087768  0  4.105774  0  0  0.093489  0  4.126846  0  0.110138  0  -0.008353  0.083905  0  4.091501  0
C  C64  1  0.83024338  0.00245890  0.18734021  1  0  -0.316694  0  3.831872  0  0  -0.323239  0  4.090592  0  0  -0.333795  0  4.109021  0  -0.068143  0  -0.160906  -0.315948  0  4.078293  0
C  C65  1  0.33024411  0.49754162  0.18734021  1  0  -0.316704  0  3.831924  0  0  -0.323247  0  4.090672  0  0  -0.333803  0  4.109101  0  -0.068151  0  -0.160914  -0.315958  0  4.07837  0
C  C66  1  0.33024411  0.00245890  0.31265979  1  0  -0.316666  0  3.831843  0  0  -0.323212  0  4.090557  0  0  -0.333766  0  4.108986  0  -0.068128  0  -0.160889  -0.315921  0  4.078258  0
C  C67  1  0.83024338  0.49754162  0.31265979  1  0  -0.316784  0  3.831945  0  0  -0.323339  0  4.090763  0  0  -0.333896  0  4.109193  0  -0.068141  0  -0.16091  -0.316052  0  4.07846  0
C  C68  1  0.16975691  0.99754126  0.81265979  1  0  -0.316688  0  3.831861  0  0  -0.323231  0  4.090572  0  0  -0.333787  0  4.109002  0  -0.068141  0  -0.160901  -0.31594  0  4.078273  0
C  C69  1  0.66975618  0.50245854  0.81265979  1  0  -0.316762  0  3.831892  0  0  -0.323308  0  4.090623  0  0  -0.333865  0  4.10905  0  -0.06814  0  -0.160928  -0.31602  0  4.07832  0
C  C70  1  0.66975618  0.99754126  0.68734021  1  0  -0.316733  0  3.831917  0  0  -0.323285  0  4.090639  0  0  -0.33384  0  4.109068  0  -0.068132  0  -0.16091  -0.315993  0  4.078339  0
C  C71  1  0.16975515  0.50245767  0.68734021  1  0  -0.316722  0  3.83194  0  0  -0.323292  0  4.090731  0  0  -0.333849  0  4.109162  0  -0.068186  0  -0.160911  -0.316002  0  4.078428  0
Cl  Cl72  1  0.36393311  0.15235102  0.08233011  1  0  -0.078548  0  1.50976  0  0  -0.056168  0  1.787391  0  0  -0.061263  0  1.781225  0  -0.215296  0  0.010462  -0.05244  0  1.792102  0
Cl  Cl73  1  0.86393062  0.34765301  0.08232968  1  0  -0.078568  0  1.509807  0  0  -0.056186  0  1.787451  0  0  -0.061278  0  1.781288  0  -0.215565  0  0.010439  -0.052458  0  1.792162  0
Cl  Cl74  1  0.86393414  0.15235102  0.41766989  1  0  -0.078551  0  1.509782  0  0  -0.056173  0  1.787417  0  0  -0.061263  0  1.781252  0  -0.215563  0  0.010457  -0.052443  0  1.792127  0
Cl  Cl75  1  0.36392959  0.34765213  0.41767032  1  0  -0.078576  0  1.509754  0  0  -0.056201  0  1.787412  0  0  -0.061296  0  1.781247  0  -0.215573  0  0.010433  -0.052473  0  1.792123  0
Cl  Cl76  1  0.63606718  0.84764914  0.91766989  1  0  -0.078553  0  1.509749  0  0  -0.056176  0  1.787389  0  0  -0.06127  0  1.781224  0  -0.215562  0  0.01046  -0.052446  0  1.792099  0
Cl  Cl77  1  0.13607144  0.65234716  0.91767032  1  0  -0.078576  0  1.509798  0  0  -0.056204  0  1.787439  0  0  -0.061298  0  1.781275  0  -0.215574  0  0.010429  -0.052475  0  1.792149  0
Cl  Cl78  1  0.13606615  0.84764914  0.58233011  1  0  -0.078552  0  1.509778  0  0  -0.056173  0  1.787413  0  0  -0.061267  0  1.78125  0  -0.215566  0  0.010459  -0.052445  0  1.792124  0
Cl  Cl79  1  0.63607070  0.65234716  0.58232968  1  0  -0.07858  0  1.509813  0  0  -0.056212  0  1.787453  0  0  -0.061304  0  1.781288  0  -0.215574  0  0.010424  -0.052483  0  1.792164  0
Cl  Cl80  1  0.06406034  0.84256385  0.04652589  1  0  -0.074935  0  1.462155  0  0  -0.063676  0  1.71949  0  0  -0.067334  0  1.716972  0  -0.196634  0  -0.007074  -0.061021  0  1.721604  0
Cl  Cl81  1  0.56406841  0.65743070  0.04652505  1  0  -0.074932  0  1.462131  0  0  -0.063647  0  1.719433  0  0  -0.067311  0  1.716922  0  -0.196644  0  -0.007051  -0.060988  0  1.721544  0
Cl  Cl82  1  0.56406137  0.84256473  0.45347411  1  0  -0.074932  0  1.462152  0  0  -0.06367  0  1.719489  0  0  -0.067327  0  1.716976  0  -0.196633  0  -0.007072  -0.061015  0  1.721602  0
Cl  Cl83  1  0.06406739  0.65743157  0.45347495  1  0  -0.074934  0  1.462121  0  0  -0.063662  0  1.719445  0  0  -0.067326  0  1.716931  0  -0.196651  0  -0.007056  -0.061002  0  1.721553  0
Cl  Cl84  1  0.93593995  0.15743631  0.95347411  1  0  -0.074936  0  1.46217  0  0  -0.063681  0  1.719512  0  0  -0.067339  0  1.716997  0  -0.196634  0  -0.007075  -0.061025  0  1.721626  0
Cl  Cl85  1  0.43593188  0.34256947  0.95347495  1  0  -0.074933  0  1.462153  0  0  -0.063647  0  1.719457  0  0  -0.06731  0  1.716947  0  -0.196647  0  -0.007047  -0.060988  0  1.721568  0
Cl  Cl86  1  0.43593892  0.15743631  0.54652589  1  0  -0.074929  0  1.462139  0  0  -0.063666  0  1.719477  0  0  -0.067327  0  1.716964  0  -0.196635  0  -0.007065  -0.061011  0  1.721593  0
Cl  Cl87  1  0.93593114  0.34256859  0.54652505  1  0  -0.074951  0  1.462189  0  0  -0.063657  0  1.719497  0  0  -0.067324  0  1.716979  0  -0.196663  0  -0.00705  -0.060999  0  1.721609  0
Cl  Cl88  1  0.17350248  0.83942358  0.17821474  1  0  -0.052378  0  1.441681  0  0  -0.038832  0  1.694995  0  0  -0.041647  0  1.690671  0  -0.190684  0  0.006363  -0.036746  0  1.698596  0
Cl  Cl89  1  0.67350703  0.66057360  0.17821516  1  0  -0.052363  0  1.441682  0  0  -0.038812  0  1.695004  0  0  -0.041627  0  1.69068  0  -0.190346  0  0.006371  -0.036729  0  1.698604  0
Cl  Cl90  1  0.67350175  0.83942358  0.32178484  1  0  -0.05238  0  1.441665  0  0  -0.038836  0  1.694979  0  0  -0.04165  0  1.690654  0  -0.190684  0  0.006362  -0.036748  0  1.69858  0
Cl  Cl91  1  0.17350953  0.66057360  0.32178568  1  0  -0.052356  0  1.441689  0  0  -0.038797  0  1.695021  0  0  -0.04161  0  1.690695  0  -0.190359  0  0.006375  -0.036714  0  1.698618  0
Cl  Cl92  1  0.82649605  0.16057746  0.82178526  1  0  -0.052401  0  1.441657  0  0  -0.038855  0  1.694963  0  0  -0.04167  0  1.690638  0  -0.1907  0  0.006344  -0.03677  0  1.698565  0
Cl  Cl93  1  0.32649150  0.33942656  0.82178484  1  0  -0.052371  0  1.441675  0  0  -0.038818  0  1.694992  0  0  -0.041634  0  1.690667  0  -0.190359  0  0.006366  -0.036736  0  1.698591  0
Cl  Cl94  1  0.32649854  0.16057659  0.67821516  1  0  -0.052386  0  1.441668  0  0  -0.038836  0  1.69497  0  0  -0.04165  0  1.690644  0  -0.190685  0  0.00636  -0.03675  0  1.698573  0
Cl  Cl95  1  0.82649076  0.33942656  0.67821474  1  0  -0.052362  0  1.441659  0  0  -0.038809  0  1.694978  0  0  -0.041623  0  1.690651  0  -0.190362  0  0.006368  -0.036724  0  1.698578  0
O  O96  1  0.52384976  0.14368348  0.20236758  1  0  -0.656206  0  2.241227  0  0  -0.562437  0  2.531874  0  0  -0.592287  0  2.519818  0  -1.145243  0  -0.369408  -0.540948  0  2.539393  0
O  O97  1  0.02384697  0.35631879  0.20236758  1  0  -0.656259  0  2.241178  0  0  -0.562484  0  2.531835  0  0  -0.592333  0  2.519776  0  -1.145299  0  -0.369432  -0.540998  0  2.539356  0
O  O98  1  0.02384873  0.14368348  0.29763242  1  0  -0.656206  0  2.241248  0  0  -0.562451  0  2.531907  0  0  -0.5923  0  2.519851  0  -1.145203  0  -0.369425  -0.540963  0  2.539427  0
O  O99  1  0.52384800  0.35631879  0.29763242  1  0  -0.656305  0  2.241137  0  0  -0.562534  0  2.531808  0  0  -0.592382  0  2.519748  0  -1.145296  0  -0.369463  -0.541047  0  2.539329  0
O  O100  1  0.47615053  0.85631668  0.79763242  1  0  -0.656199  0  2.241249  0  0  -0.562449  0  2.531914  0  0  -0.592298  0  2.519856  0  -1.145243  0  -0.369416  -0.54096  0  2.539433  0
O  O101  1  0.97615332  0.64368049  0.79763242  1  0  -0.656286  0  2.241171  0  0  -0.562517  0  2.531826  0  0  -0.592366  0  2.519766  0  -1.145254  0  -0.369447  -0.541031  0  2.539347  0
O  O102  1  0.97615156  0.85631668  0.70236758  1  0  -0.656186  0  2.241182  0  0  -0.562413  0  2.531822  0  0  -0.592263  0  2.519766  0  -1.145202  0  -0.369417  -0.540926  0  2.539342  0
O  O103  1  0.47615405  0.64368137  0.70236758  1  0  -0.656271  0  2.241219  0  0  -0.562509  0  2.53188  0  0  -0.592359  0  2.51982  0  -1.1453  0  -0.369436  -0.541022  0  2.5394  0
