# generated using pymatgen
data_CoH22C26(N3O5)2
_symmetry_space_group_name_H-M   'P 1'
_cell_length_a   7.63499844
_cell_length_b   9.41238909
_cell_length_c   9.51717535
_cell_angle_alpha   75.02212318
_cell_angle_beta   83.08491321
_cell_angle_gamma   90.73456123
_symmetry_Int_Tables_number   1
_chemical_formula_structural   CoH22C26(N3O5)2
_chemical_formula_sum   'Co1 H22 C26 N6 O10'
_cell_volume   655.20703100
_cell_formula_units_Z   1
loop_
 _symmetry_equiv_pos_site_id
 _symmetry_equiv_pos_as_xyz
  1  'x, y, z'
loop_
 _atom_site_type_symbol
 _atom_site_label
 _atom_site_symmetry_multiplicity
 _atom_site_fract_x
 _atom_site_fract_y
 _atom_site_fract_z
 _atom_site_occupancy
 _atom_site_hle17_ddec_charge
 _atom_site_hle17_ddec_spin_density
 _atom_site_hle17_ddec_sum_bond_order
 _atom_site_hle17_magmom
 _atom_site_hse06_10hf_ddec_charge
 _atom_site_hse06_10hf_ddec_spin_density
 _atom_site_hse06_10hf_ddec_sum_bond_order
 _atom_site_hse06_10hf_magmom
 _atom_site_hse06_ddec_charge
 _atom_site_hse06_ddec_spin_density
 _atom_site_hse06_ddec_sum_bond_order
 _atom_site_hse06_magmom
 _atom_site_pbe_cm5_charge
 _atom_site_pbe_ddec_charge
 _atom_site_pbe_ddec_spin_density
 _atom_site_pbe_ddec_sum_bond_order
 _atom_site_pbe_magmom
Co  Co0  1  0.49999856  0.50001035  0.50000156  1  0.774984  1.272802  2.409361  1.156  0.740228  1.044267  2.841735  0.974  0.798438  1.027685  2.772782  0.969  0.657877  0.728744  1.101274  2.870373  1.018
H  H1  1  0.26475610  0.55533590  0.68171886  1  0.39732  -0.000826  0.924202  -0.001  0.364084  -0.000348  0.994522  0.0  0.375315  -0.000406  0.978361  0.0  0.279627  0.35659  -0.00027  1.005137  0.0
H  H2  1  0.73524455  0.44467161  0.31828914  1  0.397095  -0.000825  0.924463  -0.001  0.363898  -0.000348  0.994722  0.0  0.375121  -0.000406  0.978573  0.0  0.279535  0.356406  -0.00027  1.005332  0.0
H  H3  1  0.15941256  0.41843781  0.65776291  1  0.395306  -0.000404  0.888601  0.0  0.367453  0.000265  0.965238  0.0  0.375773  5.9e-05  0.952984  0.0  0.290967  0.363195  0.000434  0.971613  0.001
H  H4  1  0.84060369  0.58156332  0.34224741  1  0.39524  -0.0004  0.888656  0.0  0.367418  0.000266  0.965271  0.0  0.375731  6e-05  0.953026  0.0  0.29098  0.363161  0.000434  0.971621  0.001
H  H5  1  0.24988653  0.27129911  0.49840083  1  0.102188  -0.000163  0.950807  0.0  0.106249  -0.000284  1.018216  0.0  0.109525  -0.0002  1.014034  0.0  0.128114  0.10392  -0.00035  1.021541  0.0
H  H6  1  0.75010909  0.72871604  0.50160476  1  0.102239  -0.000165  0.950712  0.0  0.106172  -0.000283  1.018277  0.0  0.109452  -0.000199  1.014099  0.0  0.128055  0.103831  -0.00035  1.021614  0.0
H  H7  1  0.43746947  0.86893121  0.75277321  1  0.107353  4.9e-05  0.981001  0.0  0.113837  -9.9e-05  1.049326  0.0  0.116529  -5.6e-05  1.047526  0.0  0.105971  0.111598  -0.000282  1.051919  0.0
H  H8  1  0.56252507  0.13107028  0.24721144  1  0.107233  4.6e-05  0.981085  0.0  0.113776  -9.9e-05  1.049357  0.0  0.11647  -5.6e-05  1.047554  0.0  0.105957  0.111538  -0.000282  1.051967  0.0
H  H9  1  0.70648663  0.01744019  0.77806448  1  0.111967  -0.000425  0.947965  0.0  0.115389  -6.5e-05  1.013732  0.0  0.118178  -5.3e-05  1.01375  0.0  0.106663  0.114686  -8.4e-05  1.012076  0.0
H  H10  1  0.29350876  0.98255443  0.22193220  1  0.112128  -0.000429  0.947863  0.0  0.115451  -6.6e-05  1.013702  0.0  0.118239  -5.3e-05  1.013721  0.0  0.106704  0.114753  -8.4e-05  1.012015  0.0
H  H11  1  0.73131124  0.28688514  0.65776080  1  0.10687  -0.000123  0.941799  0.0  0.107171  -0.000167  1.012955  0.0  0.110895  -0.000133  1.007952  0.0  0.122765  0.104541  -0.000237  1.016881  0.0
H  H12  1  0.26869073  0.71311278  0.34223880  1  0.106882  -0.000132  0.941806  0.0  0.107208  -0.000167  1.012916  0.0  0.110931  -0.000133  1.007917  0.0  0.122769  0.104579  -0.000237  1.016798  0.0
H  H13  1  0.15871707  0.86027978  0.64483812  1  0.084065  -0.000205  0.928632  0.0  0.093591  -2.3e-05  0.994596  0.0  0.096639  -1.6e-05  0.991324  0.0  0.118596  0.091293  -0.000122  0.997274  0.0
H  H14  1  0.84128902  0.13972585  0.35516146  1  0.08405  -0.000207  0.928534  0.0  0.093578  -2.3e-05  0.994515  0.0  0.096628  -1.6e-05  0.99124  0.0  0.118576  0.091281  -0.000123  0.997201  0.0
H  H15  1  0.10089242  0.42424822  0.27506978  1  0.116694  0.00024  0.942683  0.0  0.124163  0.000397  1.005845  0.0  0.129041  0.000273  1.002071  0.0  0.109793  0.120018  0.000515  1.008612  0.0
H  H16  1  0.89909428  0.57572625  0.72493962  1  0.116646  0.000235  0.942704  0.0  0.124139  0.000397  1.005836  0.0  0.129012  0.000273  1.002068  0.0  0.109745  0.119995  0.000515  1.008589  0.0
H  H17  1  0.88488306  0.33664660  0.13325366  1  0.12818  9.2e-05  0.974518  0.0  0.132423  7e-05  1.043188  0.0  0.136867  4.5e-05  1.039727  0.0  0.11279  0.129058  6.7e-05  1.045841  0.0
H  H18  1  0.11511101  0.66334693  0.86674233  1  0.128216  9.1e-05  0.974489  0.0  0.13242  7e-05  1.043199  0.0  0.136865  4.5e-05  1.039734  0.0  0.112808  0.129036  6.7e-05  1.04586  0.0
H  H19  1  0.31617026  0.20943398  0.86219386  1  0.110082  -4.6e-05  0.970017  0.0  0.114645  -6.4e-05  1.038957  0.0  0.116909  -5.3e-05  1.039467  0.0  0.109613  0.112806  -8.1e-05  1.038816  0.0
H  H20  1  0.68383639  0.79055167  0.13781766  1  0.110086  -5.1e-05  0.970147  0.0  0.114661  -6.4e-05  1.039059  0.0  0.116925  -5.3e-05  1.039567  0.0  0.109655  0.112809  -8.1e-05  1.038915  0.0
H  H21  1  0.53151968  0.29184922  0.00692920  1  0.112289  -8.3e-05  0.948739  0.0  0.117821  1e-05  1.014445  0.0  0.121426  4e-06  1.012351  0.0  0.10864  0.114845  -0.000138  1.017078  0.0
H  H22  1  0.46847505  0.70814044  0.99308866  1  0.112156  -8.8e-05  0.948839  0.0  0.117765  1e-05  1.014479  0.0  0.121372  4e-06  1.012384  0.0  0.108595  0.114791  -0.000138  1.017062  0.0
C  C23  1  0.34901609  0.21167995  0.56010502  1  0.085486  -0.018663  3.635643  -0.012  0.046554  -0.008533  3.887942  -0.005  0.05722  -0.006226  3.902595  -0.004  0.052239  0.039063  -0.009233  3.882086  -0.005
C  C24  1  0.65097834  0.78833850  0.43989885  1  0.085576  -0.018606  3.635504  -0.012  0.046759  -0.008537  3.887852  -0.005  0.057389  -0.006227  3.902547  -0.004  0.052404  0.039272  -0.009239  3.881948  -0.005
C  C25  1  0.32689166  0.05938157  0.61995702  1  -0.001386  0.002804  3.810972  0.005  0.019506  0.000364  4.050006  0.001  0.011835  0.000529  4.074163  0.001  -0.007843  0.025603  1.7e-05  4.032902  0.001
C  C26  1  0.67310929  0.94062837  0.38004198  1  -0.001568  0.002776  3.811132  0.005  0.019396  0.000364  4.050118  0.001  0.011728  0.000529  4.074271  0.001  -0.007916  0.025494  1.7e-05  4.03299  0.001
C  C27  1  0.45488940  0.98707674  0.70280358  1  -0.044404  -0.015089  3.667074  -0.01  -0.074764  -0.006625  3.915613  -0.004  -0.069632  -0.004421  3.933857  -0.003  -0.066489  -0.078448  -0.008782  3.903683  -0.005
C  C28  1  0.54510894  0.01292785  0.29718951  1  -0.044172  -0.015059  3.66697  -0.01  -0.074607  -0.006633  3.915486  -0.004  -0.06947  -0.004424  3.933728  -0.003  -0.066453  -0.078294  -0.00879  3.903577  -0.005
C  C29  1  0.60213697  0.06882032  0.71687682  1  -0.108793  0.003823  3.733919  0.005  -0.122697  0.000654  3.994459  0.001  -0.131417  0.000761  4.016492  0.001  -0.081023  -0.115794  0.000197  3.977128  0.001
C  C30  1  0.39785720  0.93117971  0.28312081  1  -0.108959  0.003809  3.733996  0.005  -0.122766  0.000655  3.994549  0.001  -0.131488  0.000761  4.016577  0.001  -0.081072  -0.115863  0.000197  3.977185  0.001
C  C31  1  0.61757164  0.21939584  0.65107647  1  0.135841  -0.015293  3.608305  -0.01  0.101842  -0.006269  3.869689  -0.004  0.112332  -0.004764  3.884025  -0.003  0.052219  0.094835  -0.007534  3.861029  -0.005
C  C32  1  0.38242134  0.78060964  0.34892105  1  0.13568  -0.015206  3.60857  -0.01  0.101751  -0.006274  3.869889  -0.004  0.112236  -0.004766  3.884217  -0.003  0.052147  0.094743  -0.007539  3.86119  -0.005
C  C33  1  0.17562146  0.97910426  0.59351458  1  0.104425  -0.001184  3.65918  -0.001  0.06692  -0.000211  3.924202  0.0  0.073932  -0.000263  3.939064  0.0  0.077264  0.062366  -0.00046  3.913414  0.0
C  C34  1  0.82438190  0.02089588  0.40648439  1  0.104384  -0.001091  3.659097  -0.001  0.066852  -0.000209  3.924121  0.0  0.073864  -0.000263  3.938981  0.0  0.077291  0.062298  -0.000461  3.913323  0.0
C  C35  1  0.45958618  0.40938015  0.23758311  1  0.619643  -0.009605  3.887358  -0.005  0.570371  -0.004108  4.194113  -0.002  0.607529  -0.002169  4.186943  -0.001  0.212505  0.545523  -0.006473  4.198821  -0.004
C  C36  1  0.54041183  0.59062410  0.76242271  1  0.619514  -0.009597  3.887312  -0.005  0.570234  -0.004109  4.194081  -0.002  0.607389  -0.002169  4.18692  -0.001  0.212427  0.545386  -0.006473  4.198783  -0.004
C  C37  1  0.32954717  0.36509858  0.14832289  1  -0.04013  -0.006432  3.699454  -0.004  -0.018513  -0.000745  3.931231  0.0  -0.023763  -0.000365  3.951525  0.0  -0.004633  -0.017539  -0.003125  3.920504  -0.002
C  C38  1  0.67045723  0.63489489  0.85168069  1  -0.040223  -0.006497  3.699462  -0.004  -0.018585  -0.000745  3.931263  0.0  -0.023841  -0.000364  3.95156  0.0  -0.004651  -0.017601  -0.003122  3.920448  -0.002
C  C39  1  0.14761109  0.37779317  0.18438665  1  -0.05032  0.00024  3.687553  0.001  -0.076772  -0.000306  3.939815  0.0  -0.076933  -1.2e-05  3.956878  0.0  -0.075689  -0.076372  -0.000601  3.930059  0.0
C  C40  1  0.85239484  0.62220482  0.81561261  1  -0.050258  0.000294  3.687532  0.001  -0.076736  -0.000307  3.939797  0.0  -0.076891  -1.4e-05  3.956858  0.0  -0.075682  -0.076338  -0.000602  3.929963  0.0
C  C41  1  0.02673896  0.32841326  0.10731566  1  -0.109108  -0.004777  3.718224  -0.003  -0.131172  5.4e-05  3.97601  0.0  -0.132428  0.000121  3.995042  0.0  -0.079648  -0.131658  -0.002131  3.964647  -0.001
C  C42  1  0.97325530  0.67159008  0.89268120  1  -0.109126  -0.004834  3.718293  -0.003  -0.131142  5.4e-05  3.976093  0.0  -0.1324  0.000123  3.995127  0.0  -0.079632  -0.131867  -0.002128  3.965691  -0.001
C  C43  1  0.09132930  0.27012739  0.99146345  1  0.08042  -0.000587  3.732069  0.001  0.065497  -0.001007  3.985003  -0.001  0.063245  -0.000336  4.007382  0.0  0.078243  0.067587  -0.002436  3.970401  -0.001
C  C44  1  0.90866621  0.72987163  0.00853220  1  0.08047  -0.000547  3.73205  0.002  0.065494  -0.001007  3.985027  -0.001  0.063243  -0.000339  4.007408  0.0  0.078218  0.062777  -0.002447  3.967793  -0.001
C  C45  1  0.27153669  0.25767926  0.95176861  1  -0.093512  -0.005131  3.705388  -0.003  -0.114263  -8.8e-05  3.959336  0.0  -0.113539  2e-06  3.977177  0.0  -0.077208  -0.11607  -0.001218  3.949252  -0.001
C  C46  1  0.72846252  0.74231742  0.04823465  1  -0.093536  -0.005182  3.70551  -0.003  -0.11428  -8.8e-05  3.959491  0.0  -0.113556  2e-06  3.977326  0.0  -0.077294  -0.116305  -0.001215  3.950314  -0.001
C  C47  1  0.39030461  0.30369453  0.03257461  1  -0.051657  0.000282  3.691441  0.001  -0.072719  -0.000856  3.93664  -0.001  -0.074429  -0.000446  3.956203  0.0  -0.073983  -0.072339  -0.001467  3.926313  -0.001
C  C48  1  0.60969994  0.69630337  0.96742688  1  -0.051461  0.00033  3.691419  0.001  -0.072607  -0.000857  3.936623  -0.001  -0.074323  -0.000449  3.956203  0.0  -0.073891  -0.072228  -0.001467  3.926182  -0.001
N  N49  1  0.49014415  0.29020738  0.57577180  1  -0.259285  -0.017517  3.390568  -0.011  -0.20772  -0.009947  3.672192  -0.007  -0.233026  -0.008641  3.689152  -0.006  -0.345105  -0.195465  -0.011147  3.663241  -0.008
N  N50  1  0.50985033  0.70980259  0.42422246  1  -0.259223  -0.017547  3.390567  -0.011  -0.20783  -0.009948  3.672378  -0.007  -0.233115  -0.008642  3.689323  -0.006  -0.345136  -0.195576  -0.011148  3.663421  -0.008
N  N51  1  0.06647577  0.04675931  0.50766456  1  -0.208511  0.001446  3.052737  0.002  -0.180069  0.000391  3.346045  0.001  -0.190242  0.000395  3.364655  0.001  -0.212822  -0.172622  0.000349  3.332343  0.001
N  N52  1  0.93352079  0.95323304  0.49233570  1  -0.208163  0.001406  3.05255  0.002  -0.179676  0.000392  3.345796  0.001  -0.189846  0.000395  3.364406  0.001  -0.212697  -0.172225  0.00035  3.332077  0.001
N  N53  1  0.96517163  0.22157051  0.90851108  1  0.461115  -0.028999  3.936526  -0.023  0.509696  -5.5e-05  4.209057  0.0  0.530579  0.000116  4.217025  0.0  0.053093  0.494102  -0.007891  4.205819  -0.006
N  N54  1  0.03484384  0.77842690  0.09147493  1  0.461273  -0.028954  3.93599  -0.023  0.509819  -5.5e-05  4.208599  0.0  0.530692  0.000116  4.216572  0.0  0.053302  0.511194  -0.007864  4.179916  -0.006
O  O55  1  0.39538574  0.47907845  0.33090027  1  -0.564243  -0.010051  2.179353  -0.006  -0.536735  -0.00354  2.467687  -0.002  -0.576878  -0.004565  2.461  -0.004  -0.297514  -0.508524  0.000495  2.467855  0.003
O  O56  1  0.60460739  0.52093786  0.66910105  1  -0.564114  -0.010051  2.179453  -0.006  -0.536579  -0.003536  2.46776  -0.002  -0.576701  -0.004562  2.461037  -0.004  -0.29748  -0.508374  0.000499  2.467941  0.003
O  O57  1  0.61782810  0.37314395  0.21920726  1  -0.605294  -0.006149  2.014274  -0.005  -0.555395  -0.002297  2.24382  -0.002  -0.580491  -0.001129  2.235318  -0.001  -0.304544  -0.537435  -0.005283  2.249681  -0.004
O  O58  1  0.38216023  0.62684794  0.78080534  1  -0.605358  -0.006151  2.014199  -0.005  -0.555413  -0.002297  2.243706  -0.002  -0.580508  -0.001128  2.235202  -0.001  -0.304551  -0.537453  -0.005281  2.249565  -0.004
O  O59  1  0.81800071  0.16991881  0.97359164  1  -0.3472  -0.016286  1.742632  -0.013  -0.323943  0.000107  1.934323  0.0  -0.333371  0.000248  1.931201  0.0  -0.122979  -0.321424  -0.00537  1.938197  -0.004
O  O60  1  0.18201353  0.83007866  0.02639131  1  -0.34719  -0.016248  1.742491  -0.013  -0.323875  0.000107  1.934133  0.0  -0.333311  0.000249  1.931023  0.0  -0.122929  -0.327199  -0.005365  1.930024  -0.004
O  O61  1  0.01121813  0.23505660  0.77469566  1  -0.375979  -0.013171  1.787923  -0.01  -0.341932  -0.001749  1.983195  -0.002  -0.352593  -0.000717  1.978655  -0.001  -0.124188  -0.341013  -0.006977  1.989374  -0.006
O  O62  1  0.98880658  0.76493882  0.22528797  1  -0.376045  -0.01314  1.787653  -0.01  -0.342157  -0.001751  1.983046  -0.002  -0.35278  -0.000719  1.978468  -0.001  -0.124373  -0.347074  -0.006973  1.981316  -0.006
O  O63  1  0.21724261  0.51416985  0.60529822  1  -0.787078  0.025729  1.881579  0.045  -0.750767  0.022949  2.073782  0.037  -0.77438  0.018579  2.04327  0.031  -0.5744  -0.731432  0.028972  2.090275  0.046
O  O64  1  0.78276194  0.48583552  0.39470996  1  -0.7868  0.02572  1.881755  0.045  -0.750517  0.022945  2.073922  0.037  -0.774141  0.018576  2.043467  0.031  -0.574323  -0.731183  0.028969  2.090412  0.046
