# generated using pymatgen
data_LaH14C14N9O11
_symmetry_space_group_name_H-M   'P 1'
_cell_length_a   7.49519683
_cell_length_b   9.10720213
_cell_length_c   15.15563387
_cell_angle_alpha   89.99989310
_cell_angle_beta   90.00006320
_cell_angle_gamma   104.34434956
_symmetry_Int_Tables_number   1
_chemical_formula_structural   LaH14C14N9O11
_chemical_formula_sum   'La2 H28 C28 N18 O22'
_cell_volume   1002.27552364
_cell_formula_units_Z   2
loop_
 _symmetry_equiv_pos_site_id
 _symmetry_equiv_pos_as_xyz
  1  'x, y, z'
loop_
 _atom_site_type_symbol
 _atom_site_label
 _atom_site_symmetry_multiplicity
 _atom_site_fract_x
 _atom_site_fract_y
 _atom_site_fract_z
 _atom_site_occupancy
 _atom_site_hle17_bader_spin_density
 _atom_site_hle17_ddec_charge
 _atom_site_hle17_ddec_spin_density
 _atom_site_hle17_ddec_sum_bond_order
 _atom_site_hle17_magmom
 _atom_site_hse06_10hf_bader_spin_density
 _atom_site_hse06_10hf_ddec_charge
 _atom_site_hse06_10hf_ddec_spin_density
 _atom_site_hse06_10hf_ddec_sum_bond_order
 _atom_site_hse06_10hf_magmom
 _atom_site_hse06_bader_spin_density
 _atom_site_hse06_ddec_charge
 _atom_site_hse06_ddec_spin_density
 _atom_site_hse06_ddec_sum_bond_order
 _atom_site_hse06_magmom
 _atom_site_pbe_bader_spin_density
 _atom_site_pbe_cm5_charge
 _atom_site_pbe_ddec_charge
 _atom_site_pbe_ddec_spin_density
 _atom_site_pbe_ddec_sum_bond_order
 _atom_site_pbe_magmom
La  La0  1  0.61281716  0.13792539  0.75000039  1  0  2.097065  0  1.710953  0  0  1.968209  0  2.222658  0  0  2.069964  0  2.119614  0  0  1.373044  1.892277  0  2.294319  0
La  La1  1  0.38718139  0.86207365  0.24999972  1  0  2.097095  0  1.710887  0  0  1.968206  0  2.222667  0  0  2.06996  0  2.119621  0  0  1.373045  1.892272  0  2.294327  0
H  H2  1  0.74270097  0.78073969  0.42853150  1  0  0.337859  0  0.911777  0  0  0.316288  0  0.971332  0  0  0.326958  0  0.962712  0  0  0.314143  0.308594  0  0.97787  0
H  H3  1  0.25730217  0.21925997  0.92853188  1  0  0.337836  0  0.911777  0  0  0.31629  0  0.971292  0  0  0.326959  0  0.962675  0  0  0.314131  0.308594  0  0.977833  0
H  H4  1  0.25729960  0.21926161  0.57146730  1  0  0.33788  0  0.911756  0  0  0.316329  0  0.971277  0  0  0.326999  0  0.962654  0  0  0.31415  0.308629  0  0.97782  0
H  H5  1  0.74269906  0.78073906  0.07146758  1  0  0.33786  0  0.911747  0  0  0.31631  0  0.971268  0  0  0.32698  0  0.962649  0  0  0.314146  0.308613  0  0.977809  0
H  H6  1  0.80934151  0.06422824  0.50713569  1  0  0.135263  0  0.91713  0  0  0.148767  0  0.971583  0  0  0.152553  0  0.968429  0  0  0.131185  0.145852  0  0.974605  0
H  H7  1  0.19065904  0.93577035  0.00713483  1  0  0.135218  0  0.917142  0  0  0.148671  0  0.971657  0  0  0.152457  0  0.968503  0  0  0.131159  0.145753  0  0.974675  0
H  H8  1  0.19065704  0.93577079  0.49286443  1  0  0.135244  0  0.917159  0  0  0.14873  0  0.971626  0  0  0.152515  0  0.968473  0  0  0.131177  0.145819  0  0.974649  0
H  H9  1  0.80934219  0.06422869  0.99286529  1  0  0.135224  0  0.917152  0  0  0.148677  0  0.971671  0  0  0.152463  0  0.968515  0  0  0.131155  0.145763  0  0.974691  0
H  H10  1  0.96268438  0.11387027  0.41544175  1  0  0.117609  0  0.95635  0  0  0.120532  0  1.035261  0  0  0.123937  0  1.031983  0  0  0.117314  0.117895  0  1.038139  0
H  H11  1  0.03731241  0.88613056  0.91544126  1  0  0.117603  0  0.956318  0  0  0.120535  0  1.035221  0  0  0.12394  0  1.031942  0  0  0.117302  0.117894  0  1.038096  0
H  H12  1  0.03731284  0.88612876  0.58455771  1  0  0.11762  0  0.956323  0  0  0.120542  0  1.035243  0  0  0.123946  0  1.031967  0  0  0.117316  0.11791  0  1.038121  0
H  H13  1  0.96268549  0.11387074  0.08455885  1  0  0.117583  0  0.956399  0  0  0.120531  0  1.035263  0  0  0.123935  0  1.031987  0  0  0.11732  0.117895  0  1.03814  0
H  H14  1  0.92973963  0.32733305  0.32882367  1  0  0.095072  0  0.945642  0  0  0.102213  0  1.011959  0  0  0.104969  0  1.007627  0  0  0.141796  0.100281  0  1.014805  0
H  H15  1  0.07025469  0.67266462  0.82882212  1  0  0.095042  0  0.945638  0  0  0.102188  0  1.011964  0  0  0.104946  0  1.007634  0  0  0.141799  0.100257  0  1.01481  0
H  H16  1  0.07025759  0.67266598  0.67117645  1  0  0.095047  0  0.945618  0  0  0.102195  0  1.011937  0  0  0.104951  0  1.007606  0  0  0.14179  0.100264  0  1.014783  0
H  H17  1  0.92973952  0.32733328  0.17117734  1  0  0.095074  0  0.94562  0  0  0.102234  0  1.011913  0  0  0.104991  0  1.00758  0  0  0.141795  0.1003  0  1.014763  0
H  H18  1  0.62201177  0.77382584  0.58922551  1  0  0.11176  0  0.951294  0  0  0.117219  0  1.017088  0  0  0.12075  0  1.013296  0  0  0.138706  0.114653  0  1.019839  0
H  H19  1  0.37799091  0.22617479  0.08922620  1  0  0.111806  0  0.951258  0  0  0.117258  0  1.017062  0  0  0.12079  0  1.013267  0  0  0.138715  0.114691  0  1.019815  0
H  H20  1  0.37798846  0.22617433  0.41077461  1  0  0.111736  0  0.951247  0  0  0.117197  0  1.01705  0  0  0.120728  0  1.013258  0  0  0.138698  0.11463  0  1.019802  0
H  H21  1  0.62201066  0.77382538  0.91077392  1  0  0.111772  0  0.951293  0  0  0.117232  0  1.017087  0  0  0.120763  0  1.013297  0  0  0.138708  0.114667  0  1.019838  0
H  H22  1  0.58116478  0.45844714  0.69673553  1  0  0.399161  0  0.913623  0  0  0.359282  0  0.992273  0  0  0.371396  0  0.974996  0  0  0.283183  0.350594  0  1.004629  0
H  H23  1  0.41883405  0.54155317  0.19673523  1  0  0.399127  0  0.913655  0  0  0.359255  0  0.992298  0  0  0.371367  0  0.975023  0  0  0.283184  0.350566  0  1.004655  0
H  H24  1  0.41883412  0.54155302  0.30326525  1  0  0.39913  0  0.91365  0  0  0.359258  0  0.992292  0  0  0.371371  0  0.975017  0  0  0.283183  0.350569  0  1.004651  0
H  H25  1  0.58116485  0.45844699  0.80326489  1  0  0.399134  0  0.913649  0  0  0.359257  0  0.9923  0  0  0.371371  0  0.975023  0  0  0.283172  0.35057  0  1.004656  0
H  H26  1  0.00866786  0.35919569  0.80152484  1  0  0.405379  0  0.902176  0  0  0.369259  0  0.975133  0  0  0.380815  0  0.958493  0  0  0.28913  0.361019  0  0.986913  0
H  H27  1  0.99133111  0.64080434  0.30152541  1  0  0.405344  0  0.902218  0  0  0.369227  0  0.975172  0  0  0.380782  0  0.958534  0  0  0.289113  0.360986  0  0.986952  0
H  H28  1  0.99133104  0.64080448  0.19847528  1  0  0.405358  0  0.9022  0  0  0.369245  0  0.975147  0  0  0.3808  0  0.958509  0  0  0.289126  0.361005  0  0.986927  0
H  H29  1  0.00866745  0.35919470  0.69847537  1  0  0.405355  0  0.902208  0  0  0.369239  0  0.975158  0  0  0.380796  0  0.958518  0  0  0.289126  0.361  0  0.986938  0
C  C30  1  0.67996155  0.03152180  0.37872468  1  0  0.672205  0  3.88546  0  0  0.625029  0  4.197518  0  0  0.657377  0  4.194068  0  0  0.203052  0.603125  0  4.198636  0
C  C31  1  0.32003817  0.96847573  0.87872360  1  0  0.672319  0  3.885385  0  0  0.625099  0  4.197511  0  0  0.657447  0  4.194059  0  0  0.20307  0.603189  0  4.198631  0
C  C32  1  0.32004035  0.96847950  0.62127544  1  0  0.67236  0  3.885324  0  0  0.625153  0  4.197421  0  0  0.657502  0  4.193968  0  0  0.203082  0.603254  0  4.198543  0
C  C33  1  0.67996271  0.03152217  0.12127586  1  0  0.672226  0  3.885454  0  0  0.62502  0  4.197548  0  0  0.657368  0  4.194098  0  0  0.20304  0.603114  0  4.198667  0
C  C34  1  0.82784912  0.11818979  0.44192559  1  0  -0.165803  0  3.606156  0  0  -0.227696  0  3.862467  0  0  -0.226811  0  3.864895  0  0  -0.060635  -0.228828  0  3.861977  0
C  C35  1  0.17215004  0.88180983  0.94192387  1  0  -0.165742  0  3.606066  0  0  -0.227569  0  3.862356  0  0  -0.226682  0  3.864781  0  0  -0.060581  -0.228679  0  3.861839  0
C  C36  1  0.17215145  0.88181151  0.55807585  1  0  -0.165802  0  3.606166  0  0  -0.227666  0  3.86247  0  0  -0.22678  0  3.864896  0  0  -0.060602  -0.228819  0  3.862005  0
C  C37  1  0.82784886  0.11819034  0.05807559  1  0  -0.165767  0  3.60619  0  0  -0.227609  0  3.862504  0  0  -0.226722  0  3.86493  0  0  -0.060604  -0.228742  0  3.862015  0
C  C38  1  0.86993960  0.37376005  0.38454416  1  0  0.278241  0  3.642444  0  0  0.208609  0  3.928872  0  0  0.228767  0  3.935813  0  0  0.189316  0.195505  0  3.923596  0
C  C39  1  0.13005849  0.62624087  0.88454336  1  0  0.27833  0  3.642427  0  0  0.208661  0  3.928878  0  0  0.228815  0  3.935825  0  0  0.189291  0.195558  0  3.923604  0
C  C40  1  0.13005998  0.62624238  0.61545530  1  0  0.278295  0  3.642483  0  0  0.208641  0  3.928938  0  0  0.228799  0  3.935879  0  0  0.189328  0.195538  0  3.92366  0
C  C41  1  0.86993874  0.37375816  0.11545676  1  0  0.278248  0  3.642489  0  0  0.208636  0  3.928902  0  0  0.228797  0  3.935843  0  0  0.189334  0.195532  0  3.923627  0
C  C42  1  0.74458654  0.31555185  0.53310013  1  0  0.490575  0  3.836966  0  0  0.441543  0  4.125247  0  0  0.471429  0  4.128266  0  0  0.241888  0.421414  0  4.122702  0
C  C43  1  0.25541371  0.68444553  0.03309959  1  0  0.490647  0  3.836758  0  0  0.441557  0  4.125156  0  0  0.471443  0  4.128173  0  0  0.24188  0.421428  0  4.122614  0
C  C44  1  0.25541469  0.68444719  0.46690065  1  0  0.490653  0  3.836725  0  0  0.441554  0  4.12512  0  0  0.471441  0  4.128136  0  0  0.241896  0.421429  0  4.122571  0
C  C45  1  0.74458584  0.31555237  0.96689987  1  0  0.490601  0  3.836894  0  0  0.441594  0  4.125167  0  0  0.47148  0  4.128185  0  0  0.241913  0.421466  0  4.122623  0
C  C46  1  0.72919759  0.46785263  0.53241251  1  0  -0.088776  0  3.86483  0  0  -0.090237  0  4.129144  0  0  -0.100349  0  4.153042  0  0  0.073214  -0.084107  0  4.113365  0
C  C47  1  0.27080600  0.53214702  0.03241083  1  0  -0.088853  0  3.864833  0  0  -0.090331  0  4.129222  0  0  -0.100441  0  4.153117  0  0  0.073161  -0.084202  0  4.113441  0
C  C48  1  0.27080431  0.53214867  0.46758827  1  0  -0.088743  0  3.864732  0  0  -0.090213  0  4.129113  0  0  -0.100326  0  4.153009  0  0  0.073244  -0.084082  0  4.113337  0
C  C49  1  0.72919690  0.46785315  0.96758731  1  0  -0.088813  0  3.864867  0  0  -0.090273  0  4.129189  0  0  -0.100384  0  4.153087  0  0  0.073227  -0.084141  0  4.113413  0
C  C50  1  0.78193645  0.55740510  0.45713486  1  0  0.331973  0  3.835418  0  0  0.290947  0  4.115433  0  0  0.306218  0  4.132453  0  0  0.219839  0.280656  0  4.1039  0
C  C51  1  0.21806540  0.44259448  0.95713299  1  0  0.332112  0  3.835361  0  0  0.291091  0  4.115364  0  0  0.306363  0  4.132382  0  0  0.219899  0.280804  0  4.103825  0
C  C52  1  0.21806245  0.44259507  0.54286592  1  0  0.331987  0  3.835292  0  0  0.290968  0  4.115306  0  0  0.306242  0  4.132323  0  0  0.219807  0.280663  0  4.103789  0
C  C53  1  0.78193716  0.55740455  0.04286581  1  0  0.33203  0  3.835362  0  0  0.290978  0  4.11542  0  0  0.306249  0  4.132441  0  0  0.219823  0.280681  0  4.103893  0
C  C54  1  0.66940949  0.68245049  0.55817969  1  0  0.249029  0  3.614669  0  0  0.184255  0  3.9052  0  0  0.197974  0  3.915412  0  0  0.158917  0.175743  0  3.897238  0
C  C55  1  0.33059148  0.31754909  0.05818026  1  0  0.2489  0  3.614735  0  0  0.184131  0  3.905267  0  0  0.197852  0  3.915478  0  0  0.158881  0.175618  0  3.897305  0
C  C56  1  0.33058808  0.31754968  0.44181977  1  0  0.24907  0  3.614696  0  0  0.18429  0  3.905232  0  0  0.198009  0  3.915445  0  0  0.158906  0.175769  0  3.897272  0
C  C57  1  0.66940875  0.68245108  0.94182052  1  0  0.248964  0  3.614727  0  0  0.184183  0  3.905263  0  0  0.197903  0  3.915475  0  0  0.158879  0.175669  0  3.897301  0
N  N58  1  0.81867917  0.27561153  0.45355814  1  0  -0.166719  0  3.449194  0  0  -0.080509  0  3.679278  0  0  -0.101416  0  3.700396  0  0  -0.230716  -0.066424  0  3.664693  0
N  N59  1  0.18132133  0.72438807  0.95355725  1  0  -0.166828  0  3.449193  0  0  -0.080605  0  3.679317  0  0  -0.101512  0  3.700436  0  0  -0.230728  -0.066526  0  3.66473  0
N  N60  1  0.18132041  0.72439091  0.54644198  1  0  -0.166795  0  3.449201  0  0  -0.080551  0  3.679301  0  0  -0.101455  0  3.700415  0  0  -0.23073  -0.066462  0  3.664722  0
N  N61  1  0.81867989  0.27561097  0.04644287  1  0  -0.166708  0  3.449205  0  0  -0.080556  0  3.679335  0  0  -0.101464  0  3.700453  0  0  -0.230722  -0.06647  0  3.664751  0
N  N62  1  0.85638670  0.51478985  0.38298030  1  0  -0.393861  0  3.097578  0  0  -0.343434  0  3.366385  0  0  -0.360517  0  3.37441  0  0  -0.305699  -0.332112  0  3.360696  0
N  N63  1  0.14361139  0.48521107  0.88297900  1  0  -0.393961  0  3.097616  0  0  -0.3435  0  3.366415  0  0  -0.360582  0  3.374441  0  0  -0.305675  -0.332181  0  3.360726  0
N  N64  1  0.14361155  0.48521258  0.61702048  1  0  -0.393867  0  3.0976  0  0  -0.343436  0  3.366412  0  0  -0.360519  0  3.374438  0  0  -0.305701  -0.33211  0  3.360729  0
N  N65  1  0.85638618  0.51478909  0.11702046  1  0  -0.393895  0  3.097605  0  0  -0.343481  0  3.366437  0  0  -0.360566  0  3.374464  0  0  -0.30571  -0.332157  0  3.360751  0
N  N66  1  0.74366899  0.69366468  0.47484700  1  0  -0.358267  0  3.293409  0  0  -0.291938  0  3.534386  0  0  -0.311104  0  3.543744  0  0  -0.361717  -0.278749  0  3.528039  0
N  N67  1  0.25633387  0.30633372  0.97484728  1  0  -0.358238  0  3.293363  0  0  -0.291919  0  3.53433  0  0  -0.311088  0  3.543689  0  0  -0.361699  -0.278726  0  3.527975  0
N  N68  1  0.25633090  0.30633436  0.52515180  1  0  -0.358361  0  3.29342  0  0  -0.292029  0  3.534376  0  0  -0.311198  0  3.543732  0  0  -0.361723  -0.278821  0  3.528024  0
N  N69  1  0.74366701  0.69366418  0.02515284  1  0  -0.358259  0  3.293377  0  0  -0.29192  0  3.534338  0  0  -0.311088  0  3.543694  0  0  -0.361701  -0.278721  0  3.527985  0
N  N70  1  0.65999592  0.54844565  0.59528411  1  0  -0.358276  0  3.054274  0  0  -0.309637  0  3.316595  0  0  -0.323406  0  3.331506  0  0  -0.313885  -0.299861  0  3.305971  0
N  N71  1  0.34000543  0.45155496  0.09528388  1  0  -0.358204  0  3.054188  0  0  -0.309546  0  3.316498  0  0  -0.323317  0  3.331409  0  0  -0.313857  -0.299769  0  3.305873  0
N  N72  1  0.34000331  0.45155565  0.40471600  1  0  -0.358249  0  3.054215  0  0  -0.309599  0  3.31653  0  0  -0.323369  0  3.331442  0  0  -0.313844  -0.299822  0  3.305907  0
N  N73  1  0.65999514  0.54844634  0.90471624  1  0  -0.358247  0  3.054288  0  0  -0.309606  0  3.316606  0  0  -0.323375  0  3.331518  0  0  -0.31388  -0.29983  0  3.305983  0
N  N74  1  0.89007474  0.93273304  0.75000003  1  0  0.710472  0  4.133571  0  0  0.745608  0  4.422688  0  0  0.773647  0  4.429761  0  0  0.098187  0.725413  0  4.417646  0
N  N75  1  0.10992617  0.06726939  0.25000009  1  0  0.710538  0  4.133534  0  0  0.745689  0  4.422614  0  0  0.773728  0  4.429685  0  0  0.098241  0.725491  0  4.417574  0
O  O76  1  0.68618861  0.89672873  0.35844725  1  0  -0.651731  0  1.974291  0  0  -0.604657  0  2.207692  0  0  -0.635016  0  2.201063  0  0  -0.337777  -0.582877  0  2.211167  0
O  O77  1  0.31381276  0.10327000  0.85844779  1  0  -0.651718  0  1.974265  0  0  -0.60465  0  2.20769  0  0  -0.63501  0  2.201059  0  0  -0.337755  -0.58287  0  2.21117  0
O  O78  1  0.31381029  0.10327144  0.64155287  1  0  -0.651767  0  1.97419  0  0  -0.604707  0  2.207616  0  0  -0.635066  0  2.200983  0  0  -0.337789  -0.582925  0  2.211091  0
O  O79  1  0.68618846  0.89672904  0.14155299  1  0  -0.65169  0  1.974276  0  0  -0.604624  0  2.207696  0  0  -0.634983  0  2.201064  0  0  -0.337757  -0.582842  0  2.21117  0
O  O80  1  0.56021511  0.09395962  0.34825673  1  0  -0.646378  0  1.958004  0  0  -0.605181  0  2.195045  0  0  -0.635025  0  2.189378  0  0  -0.347421  -0.58429  0  2.198297  0
O  O81  1  0.43978557  0.90603686  0.84825711  1  0  -0.646468  0  1.958012  0  0  -0.605262  0  2.195068  0  0  -0.635107  0  2.1894  0  0  -0.347458  -0.584371  0  2.198324  0
O  O82  1  0.43978612  0.90603941  0.65174339  1  0  -0.646443  0  1.95802  0  0  -0.605237  0  2.195069  0  0  -0.635082  0  2.189402  0  0  -0.347424  -0.584344  0  2.198322  0
O  O83  1  0.56021497  0.09395990  0.15174301  1  0  -0.646415  0  1.95801  0  0  -0.605197  0  2.195054  0  0  -0.635043  0  2.189388  0  0  -0.347421  -0.584304  0  2.198306  0
O  O84  1  0.69935619  0.21972706  0.59333256  1  0  -0.594632  0  2.065877  0  0  -0.544288  0  2.315696  0  0  -0.574821  0  2.309855  0  0  -0.341449  -0.522602  0  2.319127  0
O  O85  1  0.30064585  0.78027582  0.09333193  1  0  -0.594668  0  2.065741  0  0  -0.544296  0  2.315598  0  0  -0.574829  0  2.309758  0  0  -0.341454  -0.52261  0  2.319031  0
O  O86  1  0.30064339  0.78027538  0.40666756  1  0  -0.594709  0  2.065781  0  0  -0.544342  0  2.315646  0  0  -0.574875  0  2.309805  0  0  -0.34148  -0.522654  0  2.319075  0
O  O87  1  0.69935640  0.21972661  0.90666752  1  0  -0.594638  0  2.065841  0  0  -0.544294  0  2.31565  0  0  -0.574826  0  2.309807  0  0  -0.341471  -0.522609  0  2.319082  0
O  O88  1  0.83714763  0.98092051  0.67795021  1  0  -0.501363  0  1.789818  0  0  -0.494998  0  2.018966  0  0  -0.515096  0  2.012821  0  0  -0.208665  -0.480396  0  2.023101  0
O  O89  1  0.16284949  0.01907873  0.17795036  1  0  -0.501368  0  1.789787  0  0  -0.495013  0  2.018941  0  0  -0.515109  0  2.012792  0  0  -0.208668  -0.480413  0  2.023077  0
O  O90  1  0.16284825  0.01907853  0.32204991  1  0  -0.501376  0  1.789799  0  0  -0.495017  0  2.018947  0  0  -0.515113  0  2.0128  0  0  -0.208673  -0.480415  0  2.023083  0
O  O91  1  0.83714941  0.98092143  0.82204976  1  0  -0.501369  0  1.789831  0  0  -0.495  0  2.018963  0  0  -0.515097  0  2.012817  0  0  -0.208664  -0.480399  0  2.023099  0
O  O92  1  0.98922700  0.84078647  0.75000010  1  0  -0.437895  0  1.797783  0  0  -0.425522  0  2.007776  0  0  -0.440176  0  2.002204  0  0  -0.163987  -0.415158  0  2.011625  0
O  O93  1  0.01077391  0.15921596  0.25000001  1  0  -0.437926  0  1.797728  0  0  -0.425585  0  2.007777  0  0  -0.440244  0  2.002206  0  0  -0.164021  -0.415211  0  2.011613  0
O  O94  1  0.93561457  0.30957318  0.74999973  1  0  -0.890546  0  1.908154  0  0  -0.842233  0  2.10692  0  0  -0.868192  0  2.072529  0  0  -0.643919  -0.82316  0  2.130117  0
O  O95  1  0.06438433  0.69042699  0.25000039  1  0  -0.890517  0  1.9082  0  0  -0.842191  0  2.106956  0  0  -0.868149  0  2.072568  0  0  -0.643899  -0.823119  0  2.130152  0
O  O96  1  0.54418769  0.39262834  0.75000023  1  0  -0.875701  0  1.878659  0  0  -0.828734  0  2.084656  0  0  -0.854342  0  2.047728  0  0  -0.650767  -0.809481  0  2.109847  0
O  O97  1  0.45581120  0.60737183  0.24999989  1  0  -0.875682  0  1.87866  0  0  -0.828727  0  2.084659  0  0  -0.85433  0  2.047729  0  0  -0.650795  -0.809476  0  2.109855  0
