# generated using pymatgen
data_Zn3H25C31N7O6
_symmetry_space_group_name_H-M   'P 1'
_cell_length_a   13.51733695
_cell_length_b   16.31003854
_cell_length_c   17.81958552
_cell_angle_alpha   89.99995863
_cell_angle_beta   94.41640583
_cell_angle_gamma   90.00001489
_symmetry_Int_Tables_number   1
_chemical_formula_structural   Zn3H25C31N7O6
_chemical_formula_sum   'Zn12 H100 C124 N28 O24'
_cell_volume   3916.98830728
_cell_formula_units_Z   4
loop_
 _symmetry_equiv_pos_site_id
 _symmetry_equiv_pos_as_xyz
  1  'x, y, z'
loop_
 _atom_site_type_symbol
 _atom_site_label
 _atom_site_symmetry_multiplicity
 _atom_site_fract_x
 _atom_site_fract_y
 _atom_site_fract_z
 _atom_site_occupancy
 _atom_site_pbe_bader_charge
 _atom_site_pbe_bader_spin_density
 _atom_site_pbe_cm5_charge
 _atom_site_pbe_ddec_charge
 _atom_site_pbe_ddec_spin_density
 _atom_site_pbe_ddec_sum_bond_order
 _atom_site_pbe_magmom
Zn  Zn0  1  0.99871781  0.28888448  0.74637392  1  1.22648  0  0.690487  0.668039  0  2.516855  0
Zn  Zn1  1  0.50128194  0.78888385  0.75362613  1  1.226515  0  0.690481  0.668001  0  2.516857  0
Zn  Zn2  1  0.00128330  0.71111717  0.25362684  1  1.226516  0  0.690464  0.667988  0  2.516907  0
Zn  Zn3  1  0.49871768  0.21111595  0.24637342  1  1.226472  0  0.690502  0.668104  0  2.516812  0
Zn  Zn4  1  0.73900259  0.28731390  0.07874450  1  1.267703  0  0.692034  0.757107  0  2.446905  0
Zn  Zn5  1  0.76099765  0.78731320  0.42125592  1  1.267689  0  0.69202  0.757102  0  2.446938  0
Zn  Zn6  1  0.26099555  0.71268590  0.92125441  1  1.267669  0  0.692033  0.757099  0  2.446887  0
Zn  Zn7  1  0.23900272  0.21268660  0.57874480  1  1.267723  0  0.692024  0.757112  0  2.446919  0
Zn  Zn8  1  0.76754658  0.20537692  0.91871217  1  1.265959  0  0.690856  0.756207  0  2.451129  0
Zn  Zn9  1  0.73245389  0.70537709  0.58128742  1  1.265994  0  0.690854  0.756159  0  2.451223  0
Zn  Zn10  1  0.23245452  0.79462350  0.08128691  1  1.26605  0  0.690855  0.756189  0  2.451196  0
Zn  Zn11  1  0.26754647  0.29462271  0.41871218  1  1.265953  0  0.690844  0.756175  0  2.451185  0
H  H12  1  0.92527454  0.22456419  0.15922854  1  0.095589  0  0.095607  0.117857  0  1.053824  0
H  H13  1  0.57472346  0.72456413  0.34077068  1  0.095434  0  0.09561  0.117843  0  1.053854  0
H  H14  1  0.07472360  0.77543561  0.84077037  1  0.095437  0  0.095595  0.117849  0  1.053803  0
H  H15  1  0.42527394  0.27543629  0.65922819  1  0.095579  0  0.095614  0.117846  0  1.053804  0
H  H16  1  0.10612495  0.22530106  0.19704907  1  0.075756  0  0.094299  0.091617  0  1.034492  0
H  H17  1  0.39387306  0.72530048  0.30295102  1  0.075756  0  0.094312  0.091632  0  1.034449  0
H  H18  1  0.89387245  0.77469936  0.80295092  1  0.075752  0  0.094305  0.091624  0  1.034464  0
H  H19  1  0.60612508  0.27469933  0.69704957  1  0.075755  0  0.094324  0.091628  0  1.034469  0
H  H20  1  0.22794204  0.23023243  0.09690932  1  0.001898  0  0.090092  0.087299  0  1.062951  0
H  H21  1  0.27205746  0.73023297  0.40309141  1  0.001893  0  0.090108  0.087297  0  1.062942  0
H  H22  1  0.77205759  0.76976738  0.90309192  1  0.001896  0  0.090101  0.087312  0  1.062943  0
H  H23  1  0.72794068  0.26976683  0.59690974  1  0.001902  0  0.090085  0.087284  0  1.062935  0
H  H24  1  0.16439144  0.23911618  0.96312006  1  0.071535  0  0.097404  0.098265  0  1.037235  0
H  H25  1  0.33560906  0.73911702  0.53688038  1  0.071539  0  0.09738  0.098203  0  1.03725  0
H  H26  1  0.83560892  0.76088485  0.03688066  1  0.071532  0  0.097405  0.098265  0  1.037192  0
H  H27  1  0.66439131  0.26088339  0.46312034  1  0.071548  0  0.097384  0.098227  0  1.037238  0
H  H28  1  0.78163997  0.23570250  0.70367751  1  0.046964  0  0.115143  0.053034  0  1.026301  0
H  H29  1  0.71836052  0.73570066  0.79632318  1  0.046936  0  0.115134  0.053028  0  1.0263  0
H  H30  1  0.21836040  0.76429976  0.29632321  1  0.046942  0  0.115127  0.053019  0  1.026281  0
H  H31  1  0.28163985  0.26429730  0.20367754  1  0.04696  0  0.115144  0.053015  0  1.026329  0
H  H32  1  0.08627812  0.22107783  0.33677340  1  0.100862  0  0.094492  0.112692  0  1.052685  0
H  H33  1  0.41372064  0.72107737  0.16322673  1  0.100835  0  0.09448  0.112666  0  1.052723  0
H  H34  1  0.91372003  0.77892197  0.66322719  1  0.100827  0  0.094489  0.112664  0  1.052713  0
H  H35  1  0.58627973  0.27892243  0.83677286  1  0.100831  0  0.094492  0.112677  0  1.052703  0
H  H36  1  0.90629969  0.20870703  0.29665444  1  0.087384  0  0.095743  0.09539  0  1.024345  0
H  H37  1  0.59369905  0.70870646  0.20334595  1  0.087373  0  0.095739  0.095365  0  1.024361  0
H  H38  1  0.09369846  0.79129155  0.70334727  1  0.087394  0  0.095721  0.095321  0  1.02438  0
H  H39  1  0.40630280  0.29129395  0.79665317  1  0.087376  0  0.095723  0.095356  0  1.024361  0
H  H40  1  0.78234536  0.20590931  0.39522826  1  0.014718  0  0.089243  0.087018  0  1.060558  0
H  H41  1  0.71765264  0.70590947  0.10477209  1  0.014759  0  0.089262  0.087033  0  1.060534  0
H  H42  1  0.21765353  0.79408865  0.60477406  1  0.014803  0  0.089272  0.087048  0  1.060561  0
H  H43  1  0.28234624  0.29409095  0.89522574  1  0.014755  0  0.089272  0.087053  0  1.060557  0
H  H44  1  0.84160862  0.22332921  0.52917817  1  0.092207  0  0.096812  0.096954  0  1.041837  0
H  H45  1  0.65838963  0.72332845  0.97082240  1  0.092243  0  0.096821  0.096959  0  1.041811  0
H  H46  1  0.15839175  0.77666998  0.47082423  1  0.092258  0  0.096838  0.096998  0  1.041783  0
H  H47  1  0.34160850  0.27667074  0.02917539  1  0.09227  0  0.096832  0.096964  0  1.041854  0
H  H48  1  0.22055803  0.25127441  0.79156805  1  0.06579  0  0.115217  0.053686  0  1.024051  0
H  H49  1  0.27944173  0.75127449  0.70843178  1  0.065777  0  0.115209  0.053675  0  1.02408  0
H  H50  1  0.77944308  0.74872539  0.20843327  1  0.065814  0  0.115208  0.053706  0  1.024055  0
H  H51  1  0.72055641  0.24872531  0.29156713  1  0.065821  0  0.115212  0.053718  0  1.024047  0
H  H52  1  0.10982246  0.42740155  0.67938586  1  0.108848  0  0.118284  0.086558  0  0.994538  0
H  H53  1  0.39017735  0.92740157  0.82061442  1  0.108846  0  0.118291  0.086546  0  0.994519  0
H  H54  1  0.89017717  0.57259947  0.32061482  1  0.108824  0  0.118284  0.086505  0  0.994552  0
H  H55  1  0.60982747  0.07259884  0.17938768  1  0.108795  0  0.11828  0.086533  0  0.994492  0
H  H56  1  0.10721048  0.58218844  0.67677043  1  0.095795  0  0.114455  0.120949  0  0.988005  0
H  H57  1  0.39278849  0.08218714  0.82322890  1  0.095788  0  0.114463  0.120987  0  0.987975  0
H  H58  1  0.89278766  0.41781382  0.32322847  1  0.095794  0  0.11445  0.120979  0  0.987999  0
H  H59  1  0.60721856  0.91781328  0.17677388  1  0.095744  0  0.11443  0.120949  0  0.987975  0
H  H60  1  0.97671537  0.65519017  0.74372006  1  0.117412  0  0.11635  0.11777  0  1.001169  0
H  H61  1  0.52328286  0.15518946  0.75627887  1  0.117418  0  0.116339  0.117765  0  1.001246  0
H  H62  1  0.02328128  0.34481086  0.25627764  1  0.117436  0  0.116341  0.117773  0  1.001213  0
H  H63  1  0.47672270  0.84480850  0.24372102  1  0.117371  0  0.11634  0.11779  0  1.001109  0
H  H64  1  0.85674253  0.57264955  0.81236393  1  0.102924  0  0.114476  0.120366  0  0.987063  0
H  H65  1  0.64325717  0.07265015  0.68763570  1  0.102949  0  0.114482  0.120387  0  0.987044  0
H  H66  1  0.14325709  0.42735148  0.18763506  1  0.102894  0  0.114479  0.12038  0  0.987066  0
H  H67  1  0.35674542  0.92734904  0.31236290  1  0.10299  0  0.114475  0.120412  0  0.987119  0
H  H68  1  0.87170687  0.41842797  0.81129505  1  0.097628  0  0.118425  0.087188  0  0.992525  0
H  H69  1  0.62829217  0.91842804  0.68870319  1  0.097214  0  0.118407  0.087188  0  0.992508  0
H  H70  1  0.12829276  0.58157245  0.18870507  1  0.097616  0  0.11842  0.087191  0  0.992518  0
H  H71  1  0.37170819  0.08157177  0.31129472  1  0.097132  0  0.118404  0.08714  0  0.992574  0
H  H72  1  0.79004603  0.04771393  0.84103750  1  0.105607  0  0.123466  0.093183  0  0.975644  0
H  H73  1  0.70995440  0.54771465  0.65896219  1  0.105586  0  0.123469  0.093201  0  0.97566  0
H  H74  1  0.20995359  0.95228588  0.15896206  1  0.105583  0  0.123446  0.093168  0  0.975654  0
H  H75  1  0.29004597  0.45228577  0.34103797  1  0.105591  0  0.123452  0.093169  0  0.975641  0
H  H76  1  0.73134782  0.90236181  0.85128525  1  0.100967  0  0.111301  0.114227  0  1.001753  0
H  H77  1  0.76865122  0.40236184  0.64871412  1  0.100964  0  0.111291  0.114239  0  1.001711  0
H  H78  1  0.26865032  0.09763861  0.14871422  1  0.100955  0  0.111282  0.114216  0  1.001731  0
H  H79  1  0.23134766  0.59763796  0.35128539  1  0.100981  0  0.111313  0.114255  0  1.001737  0
H  H80  1  0.62555832  0.86580942  0.95520561  1  0.139608  0  0.10721  0.109133  0  1.044707  0
H  H81  1  0.87444071  0.36580956  0.54479378  1  0.139619  0  0.107227  0.109163  0  1.044635  0
H  H82  1  0.37444057  0.13419100  0.04479446  1  0.139789  0  0.107221  0.109153  0  1.044655  0
H  H83  1  0.12555817  0.63419024  0.45520573  1  0.139619  0  0.107227  0.109146  0  1.044662  0
H  H84  1  0.58477318  0.97585795  0.04739756  1  0.086168  0  0.104685  0.104382  0  1.027509  0
H  H85  1  0.91522637  0.47585778  0.45260213  1  0.086168  0  0.104649  0.104302  0  1.027473  0
H  H86  1  0.41522719  0.02414247  0.95260259  1  0.086175  0  0.104686  0.104381  0  1.027513  0
H  H87  1  0.08477325  0.52414141  0.54739742  1  0.086168  0  0.104668  0.104348  0  1.027501  0
H  H88  1  0.65117650  0.11819414  0.02967777  1  0.116054  0  0.115281  0.081202  0  1.02709  0
H  H89  1  0.84882295  0.61819464  0.47032272  1  0.116046  0  0.115245  0.081128  0  1.027118  0
H  H90  1  0.34882312  0.88180628  0.97032234  1  0.116073  0  0.115286  0.081215  0  1.027083  0
H  H91  1  0.15117741  0.38180516  0.52967744  1  0.116049  0  0.115245  0.081136  0  1.027108  0
H  H92  1  0.83697436  0.37813493  0.96144264  1  0.106801  0  0.115324  0.079662  0  1.025899  0
H  H93  1  0.66303210  0.87813512  0.53855773  1  0.106806  0  0.115344  0.079686  0  1.025897  0
H  H94  1  0.16302601  0.62186549  0.03855808  1  0.10679  0  0.115321  0.079649  0  1.025897  0
H  H95  1  0.33697420  0.12186529  0.46144220  1  0.106793  0  0.115318  0.079642  0  1.025909  0
H  H96  1  0.90953492  0.51846141  0.94436140  1  0.084198  0  0.104811  0.105562  0  1.023711  0
H  H97  1  0.59047293  0.01846148  0.55563985  1  0.084292  0  0.104804  0.105557  0  1.023728  0
H  H98  1  0.09046396  0.48153840  0.05563811  1  0.084215  0  0.104811  0.105556  0  1.023721  0
H  H99  1  0.40953560  0.98153894  0.44436189  1  0.084288  0  0.104814  0.105567  0  1.023694  0
H  H100  1  0.89405636  0.62342472  0.04659704  1  0.118141  0  0.10652  0.107994  0  1.051535  0
H  H101  1  0.60594830  0.12342449  0.45340430  1  0.118107  0  0.106492  0.107958  0  1.051534  0
H  H102  1  0.10594253  0.37657569  0.95340303  1  0.118136  0  0.10652  0.108  0  1.051525  0
H  H103  1  0.39405652  0.87657532  0.54659611  1  0.118135  0  0.106547  0.108004  0  1.051496  0
H  H104  1  0.80834800  0.58422305  0.16014745  1  0.084123  0  0.110579  0.113397  0  1.00379  0
H  H105  1  0.69165219  0.08422230  0.33985198  1  0.084119  0  0.110599  0.113443  0  1.003811  0
H  H106  1  0.19165014  0.41577676  0.83985258  1  0.084116  0  0.110579  0.113391  0  1.00383  0
H  H107  1  0.30834743  0.91577689  0.66014701  1  0.084118  0  0.110601  0.113439  0  1.003819  0
H  H108  1  0.74198325  0.44045207  0.16910916  1  0.134188  0  0.122327  0.092696  0  0.980667  0
H  H109  1  0.75801628  0.94045144  0.33088944  1  0.134077  0  0.122368  0.092751  0  0.980618  0
H  H110  1  0.25801489  0.55954773  0.83089087  1  0.134124  0  0.122313  0.092689  0  0.98065  0
H  H111  1  0.24198260  0.05954775  0.66910839  1  0.13419  0  0.122335  0.092719  0  0.98067  0
C  C112  1  0.94160593  0.23042873  0.04068827  1  0.616293  0  0.079177  0.321368  0  4.076327  0
C  C113  1  0.55839429  0.73042856  0.45931051  1  0.616273  0  0.079151  0.321323  0  4.076373  0
C  C114  1  0.05839369  0.76957047  0.95931129  1  0.616258  0  0.079138  0.321352  0  4.076357  0
C  C115  1  0.44160533  0.26956940  0.54068793  1  0.61624  0  0.079187  0.321364  0  4.076255  0
C  C116  1  0.97923728  0.22682294  0.11689411  1  -0.061874  0  -0.123599  -0.2302  0  3.985711  0
C  C117  1  0.52076221  0.72682222  0.38310631  1  -0.061724  0  -0.123626  -0.230221  0  3.985851  0
C  C118  1  0.02076161  0.77317747  0.88310653  1  -0.061709  0  -0.123551  -0.230188  0  3.985716  0
C  C119  1  0.47923593  0.27317758  0.61689372  1  -0.061861  0  -0.123592  -0.230094  0  3.985621  0
C  C120  1  0.08028245  0.22739733  0.13754549  1  -0.063308  0  -0.102547  -0.062955  0  4.065612  0
C  C121  1  0.41971705  0.72739733  0.36245468  1  -0.063295  0  -0.102502  -0.062902  0  4.065567  0
C  C122  1  0.91971717  0.77260308  0.86245462  1  -0.063303  0  -0.102531  -0.062927  0  4.065533  0
C  C123  1  0.58028109  0.27260309  0.63754535  1  -0.063298  0  -0.102561  -0.063005  0  4.065633  0
C  C124  1  0.14824876  0.23100863  0.08211697  1  0.021921  0  -0.124838  -0.150975  0  4.097399  0
C  C125  1  0.35175074  0.73100918  0.41788376  1  0.022051  0  -0.124903  -0.151049  0  4.097519  0
C  C126  1  0.85175087  0.76899178  0.91788371  1  0.022059  0  -0.124927  -0.151103  0  4.097533  0
C  C127  1  0.64824740  0.26899123  0.58211739  1  0.022013  0  -0.124855  -0.151009  0  4.097447  0
C  C128  1  0.11287684  0.23595653  0.00712989  1  -0.112632  0  -0.099654  -0.089535  0  4.031265  0
C  C129  1  0.38712414  0.73595703  0.49287036  1  -0.112765  0  -0.099634  -0.089434  0  4.031241  0
C  C130  1  0.88712427  0.76404388  0.99287087  1  -0.112764  0  -0.099622  -0.089455  0  4.031192  0
C  C131  1  0.61287548  0.26404277  0.50712976  1  -0.112665  0  -0.099646  -0.089476  0  4.031271  0
C  C132  1  0.01065253  0.23761830  0.98413757  1  -0.062855  0  -0.042028  -0.161995  0  3.962174  0
C  C133  1  0.48934797  0.73761859  0.51586175  1  -0.062855  0  -0.041972  -0.161962  0  3.962127  0
C  C134  1  0.98934784  0.76238211  0.01586203  1  -0.062875  0  -0.042017  -0.16199  0  3.962068  0
C  C135  1  0.51065166  0.26238183  0.48413781  1  -0.06288  0  -0.042037  -0.162052  0  3.962227  0
C  C136  1  0.98555293  0.25015489  0.90233133  1  1.28346  0  0.203746  0.434167  0  4.153179  0
C  C137  1  0.51444830  0.75015378  0.59766827  1  1.283441  0  0.203746  0.434202  0  4.153189  0
C  C138  1  0.01444892  0.74984614  0.09766835  1  1.283434  0  0.203753  0.434202  0  4.153201  0
C  C139  1  0.48555281  0.24984480  0.40233137  1  1.283457  0  0.203787  0.434249  0  4.153213  0
C  C140  1  0.79047242  0.22941494  0.76519385  1  1.341965  0  0.128191  0.280117  0  4.190984  0
C  C141  1  0.70952658  0.72941437  0.73480676  1  1.341969  0  0.128191  0.280106  0  4.190972  0
C  C142  1  0.20952721  0.77058609  0.23480683  1  1.341968  0  0.128199  0.280147  0  4.190934  0
C  C143  1  0.29047231  0.27058359  0.26519388  1  1.341842  0  0.128199  0.280217  0  4.191078  0
C  C144  1  0.06635245  0.22902565  0.45455274  1  0.615472  0  0.077536  0.320166  0  4.078077  0
C  C145  1  0.43364556  0.72902467  0.04544791  1  0.615462  0  0.077504  0.320105  0  4.078252  0
C  C146  1  0.93364569  0.77097415  0.54544898  1  0.615663  0  0.07746  0.320046  0  4.078191  0
C  C147  1  0.56635331  0.27097513  0.95455104  1  0.615644  0  0.077514  0.320137  0  4.078185  0
C  C148  1  0.03100784  0.22090185  0.37817998  1  -0.124538  0  -0.123495  -0.229887  0  3.992439  0
C  C149  1  0.46899017  0.72090143  0.12182011  1  -0.124574  0  -0.123495  -0.229889  0  3.992561  0
C  C150  1  0.96899104  0.77909734  0.62182066  1  -0.124588  0  -0.123482  -0.229853  0  3.992413  0
C  C151  1  0.53100871  0.27909776  0.87817940  1  -0.124591  0  -0.123477  -0.229858  0  3.992509  0
C  C152  1  0.93063135  0.21375053  0.35628597  1  -0.090183  0  -0.101448  -0.059665  0  4.057208  0
C  C153  1  0.56936665  0.71375000  0.14371437  1  -0.090169  0  -0.101411  -0.059576  0  4.057205  0
C  C154  1  0.06936680  0.78624744  0.64371574  1  -0.090236  0  -0.101352  -0.059471  0  4.057052  0
C  C155  1  0.43063372  0.28625041  0.85628467  1  -0.090233  0  -0.101375  -0.059539  0  4.057161  0
C  C156  1  0.86129008  0.21349115  0.41081704  1  -0.003694  0  -0.124339  -0.147943  0  4.091886  0
C  C157  1  0.63870792  0.71349068  0.08918330  1  -0.003688  0  -0.124369  -0.14797  0  4.091899  0
C  C158  1  0.13870807  0.78650804  0.58918467  1  -0.003758  0  -0.124432  -0.148073  0  4.091978  0
C  C159  1  0.36129244  0.28650851  0.91081517  1  -0.003693  0  -0.124417  -0.148066  0  4.091956  0
C  C160  1  0.89430096  0.22320416  0.48593315  1  -0.103737  0  -0.099435  -0.089548  0  4.031607  0
C  C161  1  0.60569704  0.72320313  0.01406775  1  -0.103719  0  -0.099444  -0.089574  0  4.031478  0
C  C162  1  0.10569867  0.77679503  0.51406921  1  -0.103873  0  -0.099419  -0.08955  0  4.031632  0
C  C163  1  0.39430184  0.27679606  0.98593120  1  -0.103882  0  -0.099458  -0.089566  0  4.031683  0
C  C164  1  0.99550109  0.23294295  0.51002072  1  -0.001791  0  -0.042129  -0.160819  0  3.964804  0
C  C165  1  0.50449717  0.73294214  0.98997984  1  -0.001742  0  -0.042117  -0.160754  0  3.964712  0
C  C166  1  0.00449780  0.76705563  0.48998104  1  -0.001758  0  -0.042153  -0.160831  0  3.964909  0
C  C167  1  0.49550171  0.26705583  0.01001854  1  -0.001801  0  -0.042143  -0.160826  0  3.964894  0
C  C168  1  0.01778846  0.24877662  0.59163797  1  1.291785  0  0.20334  0.432697  0  4.152143  0
C  C169  1  0.48220982  0.74877659  0.90836233  1  1.29175  0  0.2033  0.432627  0  4.152271  0
C  C170  1  0.98221339  0.75122380  0.40836283  1  1.291753  0  0.203366  0.432714  0  4.152304  0
C  C171  1  0.51778684  0.25122444  0.09163705  1  1.292129  0  0.203393  0.432768  0  4.152307  0
C  C172  1  0.21245929  0.24234374  0.73032068  1  1.332245  0  0.129448  0.284177  0  4.185735  0
C  C173  1  0.28754046  0.74234377  0.76967859  1  1.332227  0  0.129397  0.284088  0  4.185798  0
C  C174  1  0.78754181  0.75765607  0.26967952  1  1.332269  0  0.129333  0.284011  0  4.18582  0
C  C175  1  0.71245693  0.25765603  0.23031971  1  1.332677  0  0.12936  0.284028  0  4.185703  0
C  C176  1  0.05524316  0.46249220  0.70809174  1  0.444745  0  0.046792  0.07603  0  3.95923  0
C  C177  1  0.44475739  0.96249225  0.79190799  1  0.444752  0  0.046832  0.076144  0  3.95914  0
C  C178  1  0.94475720  0.53750883  0.29190842  1  0.444737  0  0.046902  0.076226  0  3.959193  0
C  C179  1  0.55524520  0.03750878  0.20809173  1  0.44475  0  0.046849  0.076138  0  3.959041  0
C  C180  1  0.05329999  0.54785312  0.70668104  1  -0.079231  0  -0.076835  -0.1299  0  3.969046  0
C  C181  1  0.44669824  0.04785309  0.79331883  1  -0.079113  0  -0.07685  -0.130002  0  3.969021  0
C  C182  1  0.94669815  0.45214791  0.29331843  1  -0.079098  0  -0.076851  -0.130003  0  3.96907  0
C  C183  1  0.55330659  0.95214672  0.20668382  1  -0.079103  0  -0.076813  -0.12996  0  3.969083  0
C  C184  1  0.98135810  0.58866304  0.74455068  1  0.033671  0  -0.04965  0.005605  0  3.908988  0
C  C185  1  0.51864086  0.08866356  0.75544833  1  0.033538  0  -0.049633  0.005619  0  3.909038  0
C  C186  1  0.01864078  0.41133737  0.25544883  1  0.033545  0  -0.049625  0.005631  0  3.909017  0
C  C187  1  0.48136321  0.91133563  0.24455035  1  0.033571  0  -0.049609  0.00566  0  3.908865  0
C  C188  1  0.91452115  0.54256810  0.78298852  1  -0.014622  0  -0.076882  -0.128052  0  3.973777  0
C  C189  1  0.58547705  0.04256866  0.71701048  1  -0.014592  0  -0.076866  -0.128015  0  3.973819  0
C  C190  1  0.08547773  0.45743171  0.21701043  1  -0.014566  0  -0.076884  -0.128072  0  3.973752  0
C  C191  1  0.41452480  0.95743053  0.28298920  1  -0.014619  0  -0.076909  -0.128208  0  3.973735  0
C  C192  1  0.92221039  0.45746223  0.78235193  1  0.4389  0  0.047304  0.076803  0  3.958854  0
C  C193  1  0.57778941  0.95746226  0.71764745  1  0.439268  0  0.047252  0.07667  0  3.958905  0
C  C194  1  0.07778849  0.54253880  0.21764814  1  0.438941  0  0.047235  0.076701  0  3.958797  0
C  C195  1  0.42221467  0.04253693  0.28235292  1  0.439479  0  0.047329  0.076897  0  3.958781  0
C  C196  1  0.74522509  0.02838348  0.88618887  1  0.505041  0  0.053425  0.090736  0  3.94081  0
C  C197  1  0.75477237  0.52838363  0.61380954  1  0.505032  0  0.053458  0.090672  0  3.940794  0
C  C198  1  0.25477156  0.97161694  0.11380940  1  0.50505  0  0.05344  0.090681  0  3.940791  0
C  C199  1  0.24522726  0.47161617  0.38619057  1  0.505047  0  0.053426  0.090684  0  3.940829  0
C  C200  1  0.71191255  0.94824151  0.89196815  1  -0.057419  0  -0.076874  -0.116217  0  3.969183  0
C  C201  1  0.78808725  0.44824281  0.60803180  1  -0.057372  0  -0.076907  -0.116228  0  3.968997  0
C  C202  1  0.28808633  0.05175891  0.10803137  1  -0.057406  0  -0.076878  -0.11619  0  3.969153  0
C  C203  1  0.21191238  0.55175761  0.39196831  1  -0.057382  0  -0.076898  -0.116261  0  3.969101  0
C  C204  1  0.65346478  0.92806863  0.95043311  1  -0.058326  0  -0.059622  -0.0114  0  3.918724  0
C  C205  1  0.84653501  0.42806937  0.54956629  1  -0.058384  0  -0.059577  -0.011395  0  3.918509  0
C  C206  1  0.34653411  0.07193179  0.04956696  1  -0.058724  0  -0.059611  -0.01141  0  3.918695  0
C  C207  1  0.15346461  0.57193104  0.45043383  1  -0.058313  0  -0.059587  -0.011352  0  3.918564  0
C  C208  1  0.63094935  0.98900877  0.00138491  1  -0.007371  0  -0.085422  -0.136752  0  3.982622  0
C  C209  1  0.86904945  0.48900978  0.49861474  1  -0.007249  0  -0.085464  -0.13675  0  3.982538  0
C  C210  1  0.36904953  0.01099165  0.99861517  1  -0.007106  0  -0.085425  -0.136742  0  3.982621  0
C  C211  1  0.13095017  0.51099003  0.50138482  1  -0.007363  0  -0.085441  -0.136774  0  3.982622  0
C  C212  1  0.66720347  0.06788793  0.99205966  1  0.434898  0  0.048954  0.093658  0  3.925344  0
C  C213  1  0.83279697  0.56788880  0.50794002  1  0.434852  0  0.049011  0.093767  0  3.925228  0
C  C214  1  0.33279689  0.93211248  0.00793994  1  0.434837  0  0.048945  0.093615  0  3.925367  0
C  C215  1  0.16720340  0.43211162  0.49206014  1  0.434848  0  0.049023  0.093778  0  3.925318  0
C  C216  1  0.83195798  0.42631177  0.00348336  1  0.399525  0  0.049505  0.095693  0  3.923983  0
C  C217  1  0.66804378  0.92631038  0.49651593  1  0.3992  0  0.049545  0.095718  0  3.923917  0
C  C218  1  0.16804313  0.57368803  0.99651740  1  0.399189  0  0.049533  0.095769  0  3.923905  0
C  C219  1  0.33195881  0.07368820  0.50348323  1  0.398952  0  0.049512  0.095734  0  3.924102  0
C  C220  1  0.87171266  0.50398748  0.99452224  1  0.035522  0  -0.083644  -0.131699  0  3.980875  0
C  C221  1  0.62828850  0.00398637  0.50547584  1  0.035513  0  -0.083624  -0.131643  0  3.980821  0
C  C222  1  0.12828399  0.49601294  0.00547603  1  0.035866  0  -0.083656  -0.131719  0  3.980873  0
C  C223  1  0.37171929  0.99601405  0.49452530  1  0.035984  0  -0.083622  -0.131658  0  3.980832  0
C  C224  1  0.86357066  0.56204963  0.05119661  1  -0.039147  0  -0.060987  -0.016075  0  3.926249  0
C  C225  1  0.63643249  0.06204941  0.44880356  1  -0.039077  0  -0.060966  -0.016051  0  3.926228  0
C  C226  1  0.13642748  0.43795078  0.94880230  1  -0.03917  0  -0.060969  -0.016077  0  3.926252  0
C  C227  1  0.36357159  0.93795040  0.55119736  1  -0.039155  0  -0.060964  -0.016019  0  3.925999  0
C  C228  1  0.81571873  0.54037829  0.11487039  1  -0.002638  0  -0.078018  -0.119488  0  3.971288  0
C  C229  1  0.68428293  0.04037751  0.38512915  1  -0.002626  0  -0.07805  -0.119583  0  3.971413  0
C  C230  1  0.18427941  0.45962152  0.88512908  1  -0.002658  0  -0.078057  -0.119495  0  3.971337  0
C  C231  1  0.31571967  0.95962168  0.61487113  1  -0.002636  0  -0.0781  -0.119628  0  3.971263  0
C  C232  1  0.77834186  0.46136498  0.12004195  1  0.436732  0  0.053398  0.091823  0  3.936116  0
C  C233  1  0.72165990  0.96136430  0.37995676  1  0.43676  0  0.053305  0.091741  0  3.936213  0
C  C234  1  0.22165627  0.53863482  0.87995752  1  0.436687  0  0.053385  0.0918  0  3.936121  0
C  C235  1  0.27834121  0.03863550  0.62004175  1  0.436741  0  0.053378  0.091816  0  3.936141  0
N  N236  1  0.89215640  0.23767362  0.87310678  1  -0.866091  0  -0.309133  -0.34795  0  3.564731  0
N  N237  1  0.60784483  0.73767312  0.62689282  1  -0.866162  0  -0.30914  -0.34803  0  3.564785  0
N  N238  1  0.10784545  0.76232679  0.12689290  1  -0.866218  0  -0.309136  -0.348018  0  3.564863  0
N  N239  1  0.39215628  0.26232607  0.37310682  1  -0.866094  0  -0.309141  -0.34795  0  3.564731  0
N  N240  1  0.88011189  0.24814389  0.79541257  1  -0.886349  0  -0.312096  -0.27368  0  3.667097  0
N  N241  1  0.61988785  0.74814394  0.70458695  1  -0.886345  0  -0.312084  -0.273623  0  3.66708  0
N  N242  1  0.11988773  0.75185653  0.20458699  1  -0.886341  0  -0.31208  -0.273647  0  3.667111  0
N  N243  1  0.38011177  0.25185525  0.29541261  1  -0.886358  0  -0.312093  -0.27377  0  3.667185  0
N  N244  1  0.11182066  0.24357246  0.62162256  1  -0.875301  0  -0.308431  -0.345282  0  3.562321  0
N  N245  1  0.38817910  0.74357182  0.87837727  1  -0.875329  0  -0.308408  -0.345226  0  3.56232  0
N  N246  1  0.88818119  0.75642734  0.37837880  1  -0.875302  0  -0.308415  -0.345222  0  3.562408  0
N  N247  1  0.61181904  0.25642860  0.12162108  1  -0.875441  0  -0.308435  -0.345247  0  3.562452  0
N  N248  1  0.12216756  0.25694947  0.69897788  1  -0.909677  0  -0.312523  -0.276909  0  3.664925  0
N  N249  1  0.37783220  0.75694950  0.80102194  1  -0.909678  0  -0.312525  -0.2769  0  3.66493  0
N  N250  1  0.87783429  0.74305156  0.30102292  1  -0.909683  0  -0.312519  -0.276919  0  3.665109  0
N  N251  1  0.62216519  0.24305214  0.19897692  1  -0.909911  0  -0.312538  -0.27695  0  3.665082  0
N  N252  1  0.99108416  0.41788846  0.74538679  1  -1.228411  0  -0.324962  -0.218993  0  3.574244  0
N  N253  1  0.50891488  0.91788845  0.75461257  1  -1.228411  0  -0.324951  -0.218947  0  3.574201  0
N  N254  1  0.00891547  0.58211195  0.25461389  1  -1.228454  0  -0.32496  -0.218945  0  3.574216  0
N  N255  1  0.49108623  0.08211196  0.24538819  1  -1.228436  0  -0.324999  -0.219007  0  3.574143  0
N  N256  1  0.72325234  0.08707492  0.93531028  1  -1.252912  0  -0.328504  -0.215335  0  3.572401  0
N  N257  1  0.77674811  0.58707573  0.56468995  1  -1.252921  0  -0.328503  -0.215256  0  3.57228  0
N  N258  1  0.27674728  0.91292550  0.06468928  1  -1.252898  0  -0.3285  -0.215262  0  3.572381  0
N  N259  1  0.22325226  0.41292469  0.43531077  1  -1.252922  0  -0.328508  -0.215279  0  3.572371  0
N  N260  1  0.78624701  0.40548224  0.06525462  1  -1.24535  0  -0.32748  -0.214646  0  3.56538  0
N  N261  1  0.71375548  0.90548091  0.43474361  1  -1.245067  0  -0.32747  -0.214643  0  3.565421  0
N  N262  1  0.21375187  0.59451818  0.93474490  1  -1.245253  0  -0.327435  -0.214633  0  3.565428  0
N  N263  1  0.28624785  0.09451829  0.56525447  1  -1.245364  0  -0.327479  -0.214706  0  3.565506  0
O  O264  1  0.84334222  0.22773284  0.02489739  1  -1.203291  0  -0.356363  -0.551997  0  2.525484  0
O  O265  1  0.65665800  0.72773207  0.47510195  1  -1.203302  0  -0.356353  -0.551977  0  2.525411  0
O  O266  1  0.15665666  0.77226758  0.97510213  1  -1.20328  0  -0.356362  -0.552003  0  2.525464  0
O  O267  1  0.34334237  0.27226712  0.52489708  1  -1.203302  0  -0.356374  -0.552003  0  2.525485  0
O  O268  1  0.05499861  0.27289050  0.86133041  1  -1.173986  0  -0.329194  -0.529656  0  2.277447  0
O  O269  1  0.44500264  0.77288822  0.63866949  1  -1.173953  0  -0.329189  -0.529636  0  2.27746  0
O  O270  1  0.94500324  0.72711237  0.13866927  1  -1.173925  0  -0.32919  -0.529641  0  2.277387  0
O  O271  1  0.55499773  0.22711036  0.36133067  1  -1.173968  0  -0.329212  -0.529693  0  2.277503  0
O  O272  1  0.71769361  0.20497598  0.80142869  1  -1.175291  0  -0.32678  -0.49178  0  2.341001  0
O  O273  1  0.78230613  0.70497546  0.69857198  1  -1.175264  0  -0.326771  -0.491773  0  2.340981  0
O  O274  1  0.28230602  0.79502505  0.19857199  1  -1.175275  0  -0.326783  -0.4918  0  2.340979  0
O  O275  1  0.21769350  0.29502312  0.30142926  1  -1.175152  0  -0.326805  -0.491836  0  2.341042  0
O  O276  1  0.16435925  0.23306734  0.47159841  1  -1.201966  0  -0.35667  -0.554969  0  2.532919  0
O  O277  1  0.33563877  0.73306696  0.02840167  1  -1.202014  0  -0.356646  -0.554951  0  2.532976  0
O  O278  1  0.83563889  0.76693185  0.52840162  1  -1.202015  0  -0.356629  -0.554893  0  2.532921  0
O  O279  1  0.66435937  0.26693161  0.97159836  1  -1.201987  0  -0.35667  -0.554991  0  2.532917  0
O  O280  1  0.94552239  0.26720891  0.63165031  1  -1.171683  0  -0.330062  -0.530604  0  2.274413  0
O  O281  1  0.55447662  0.76720882  0.86835027  1  -1.171621  0  -0.330034  -0.530568  0  2.274431  0
O  O282  1  0.05447872  0.73279212  0.36835101  1  -1.171707  0  -0.330076  -0.530623  0  2.274547  0
O  O283  1  0.44552152  0.23279221  0.13164920  1  -1.171689  0  -0.330057  -0.530627  0  2.27453  0
O  O284  1  0.28676173  0.21876809  0.69535372  1  -1.169815  0  -0.328102  -0.487563  0  2.33439  0
O  O285  1  0.21323802  0.71876747  0.80464556  1  -1.169748  0  -0.32807  -0.487496  0  2.334394  0
O  O286  1  0.71323938  0.78123171  0.30464760  1  -1.169793  0  -0.328025  -0.487479  0  2.334383  0
O  O287  1  0.78676085  0.28123172  0.19535226  1  -1.170177  0  -0.328034  -0.487482  0  2.334347  0
