# generated using pymatgen
data_Zn4C24Cl12O13
_symmetry_space_group_name_H-M   'P 1'
_cell_length_a   18.65956862
_cell_length_b   18.65952333
_cell_length_c   18.65951813
_cell_angle_alpha   90.00025182
_cell_angle_beta   119.99997475
_cell_angle_gamma   120.00001756
_symmetry_Int_Tables_number   1
_chemical_formula_structural   Zn4C24Cl12O13
_chemical_formula_sum   'Zn8 C48 Cl24 O26'
_cell_volume   4593.95426167
_cell_formula_units_Z   2
loop_
 _symmetry_equiv_pos_site_id
 _symmetry_equiv_pos_as_xyz
  1  'x, y, z'
loop_
 _atom_site_type_symbol
 _atom_site_label
 _atom_site_symmetry_multiplicity
 _atom_site_fract_x
 _atom_site_fract_y
 _atom_site_fract_z
 _atom_site_occupancy
 _atom_site_pbe_bader_charge
 _atom_site_pbe_bader_spin_density
 _atom_site_pbe_cm5_charge
 _atom_site_pbe_ddec_charge
 _atom_site_pbe_ddec_spin_density
 _atom_site_pbe_ddec_sum_bond_order
 _atom_site_pbe_magmom
Zn  Zn0  1  0.58580575  0.62870543  0.04290319  1  1.312652  0  0.682661  0.986293  0  2.362801  0
Zn  Zn1  1  0.41419281  0.45709608  0.87129450  1  1.312211  0  0.682703  0.986345  0  2.362746  0
Zn  Zn2  1  0.41420090  0.45709848  0.04290095  1  1.31395  0  0.682773  0.986415  0  2.362607  0
Zn  Zn3  1  0.58579708  0.45709981  0.04290261  1  1.313957  0  0.682765  0.986478  0  2.362487  0
Zn  Zn4  1  0.41419298  0.87129495  0.45709705  1  1.312246  0  0.682666  0.986286  0  2.362799  0
Zn  Zn5  1  0.58579833  0.04290302  0.45710077  1  1.313965  0  0.682788  0.986553  0  2.362627  0
Zn  Zn6  1  0.58580598  0.04290276  0.62870603  1  1.312634  0  0.682727  0.986393  0  2.362753  0
Zn  Zn7  1  0.41420012  0.04289900  0.45709863  1  1.314032  0  0.682821  0.986509  0  2.362507  0
C  C8  1  0.49999841  0.63726642  0.86273082  1  1.562321  0  0.229681  0.628976  0  4.130239  0
C  C9  1  0.22546425  0.36273271  0.86273653  1  1.549858  0  0.229705  0.628934  0  4.130068  0
C  C10  1  0.50000184  0.63727069  0.13726900  1  1.576223  0  0.229734  0.629161  0  4.129643  0
C  C11  1  0.49999715  0.36273294  0.13726689  1  1.556166  0  0.2298  0.629189  0  4.130119  0
C  C12  1  0.77453593  0.63726341  0.13726938  1  1.569957  0  0.229623  0.628984  0  4.13012  0
C  C13  1  0.50000085  0.36273253  0.86273335  1  1.576129  0  0.229711  0.629065  0  4.130097  0
C  C14  1  0.49999787  0.86273198  0.36273119  1  1.574233  0  0.229704  0.629003  0  4.129995  0
C  C15  1  0.77453719  0.13726945  0.63727176  1  1.63508  0  0.229704  0.629034  0  4.129986  0
C  C16  1  0.49999795  0.86273134  0.63726886  1  1.565328  0  0.229778  0.62919  0  4.129917  0
C  C17  1  0.50000005  0.13726712  0.63726717  1  1.571883  0  0.229653  0.628925  0  4.13008  0
C  C18  1  0.22546331  0.86273486  0.36273271  1  1.549867  0  0.22971  0.629063  0  4.130048  0
C  C19  1  0.49999392  0.13726893  0.36273129  1  1.556272  0  0.229784  0.629111  0  4.129936  0
C  C20  1  0.89000659  0.69500307  0.19500490  1  0.063401  0  -0.014002  -0.122234  0  3.852738  0
C  C21  1  0.10999239  0.80499625  0.30499814  1  0.062049  0  -0.013997  -0.12225  0  3.8528  0
C  C22  1  0.94623013  0.65817864  0.22311602  1  0.110057  0  0.017042  0.077018  0  3.977686  0
C  C23  1  0.05376991  0.84182108  0.27688541  1  0.060711  0  0.017009  0.076959  0  3.977718  0
C  C24  1  0.05377022  0.71194945  0.27688624  1  0.174423  0  0.016983  0.076874  0  3.977782  0
C  C25  1  0.94622895  0.78805071  0.22311529  1  0.21094  0  0.017028  0.076972  0  3.977686  0
C  C26  1  0.10999468  0.30499807  0.80499996  1  0.061892  0  -0.013905  -0.121945  0  3.852388  0
C  C27  1  0.89000615  0.19500347  0.69500481  1  -0.001657  0  -0.013966  -0.122066  0  3.852519  0
C  C28  1  0.05376952  0.27688554  0.84182198  1  0.06359  0  0.017001  0.076863  0  3.97775  0
C  C29  1  0.94622752  0.22311417  0.65817928  1  0.197933  0  0.016948  0.076792  0  3.97763  0
C  C30  1  0.94622899  0.22311496  0.78805154  1  0.212088  0  0.016974  0.076835  0  3.977756  0
C  C31  1  0.05377078  0.27688618  0.71195162  1  0.086869  0  0.016983  0.076931  0  3.977544  0
C  C32  1  0.49999874  0.69499996  0.19500117  1  0.112884  0  -0.01401  -0.122313  0  3.852631  0
C  C33  1  0.49999820  0.80499666  0.30499657  1  0.114794  0  -0.013973  -0.121985  0  3.852532  0
C  C34  1  0.43506517  0.65818034  0.22311622  1  0.15947  0  0.017064  0.077035  0  3.977634  0
C  C35  1  0.56493453  0.84182233  0.27688611  1  0.159947  0  0.016954  0.076759  0  3.977678  0
C  C36  1  0.43506353  0.71194991  0.27688490  1  0.02517  0  0.017009  0.076807  0  3.977751  0
C  C37  1  0.56493520  0.78805046  0.22311480  1  0.02555  0  0.017041  0.077015  0  3.97758  0
C  C38  1  0.50000013  0.30499681  0.80499766  1  0.113397  0  -0.013978  -0.122147  0  3.852702  0
C  C39  1  0.49999990  0.19500327  0.69500402  1  0.11705  0  -0.013945  -0.122128  0  3.852599  0
C  C40  1  0.56493615  0.27688486  0.84182155  1  0.159274  0  0.017015  0.076878  0  3.977767  0
C  C41  1  0.43506475  0.22311478  0.65818004  1  0.158851  0  0.017059  0.077011  0  3.977652  0
C  C42  1  0.56493630  0.22311511  0.78805051  1  0.026063  0  0.017013  0.076932  0  3.977722  0
C  C43  1  0.43506435  0.27688559  0.71195041  1  0.025825  0  0.017018  0.076849  0  3.977763  0
C  C44  1  0.49999850  0.69500285  0.80499590  1  0.119268  0  -0.013972  -0.12213  0  3.85274  0
C  C45  1  0.49999963  0.80499865  0.69500307  1  0.11882  0  -0.014011  -0.122246  0  3.852654  0
C  C46  1  0.43506364  0.65817868  0.71194962  1  0.137748  0  0.017012  0.076895  0  3.977756  0
C  C47  1  0.56493439  0.84182009  0.78805090  1  0.055638  0  0.017073  0.077038  0  3.977664  0
C  C48  1  0.43506351  0.71194980  0.65817930  1  0.015747  0  0.01702  0.07689  0  3.977698  0
C  C49  1  0.56493470  0.78804981  0.84182131  1  0.177106  0  0.017032  0.076906  0  3.977709  0
C  C50  1  0.49999581  0.30499527  0.19500440  1  0.064653  0  -0.013972  -0.122231  0  3.852477  0
C  C51  1  0.49999690  0.19500300  0.30499727  1  0.064046  0  -0.013912  -0.122005  0  3.85238  0
C  C52  1  0.56493453  0.27688472  0.22311612  1  0.077749  0  0.017148  0.077178  0  3.977503  0
C  C53  1  0.43506047  0.22311519  0.27688402  1  0.07844  0  0.016976  0.076775  0  3.977767  0
C  C54  1  0.56493317  0.22311342  0.27688569  1  0.200067  0  0.016966  0.076784  0  3.977636  0
C  C55  1  0.43506129  0.27688397  0.22311418  1  0.200394  0  0.016958  0.076805  0  3.9779  0
Cl  Cl56  1  0.88943069  0.54693450  0.19471488  1  -0.129676  0  0.007668  -0.030962  0  1.675707  0
Cl  Cl57  1  0.11056829  0.95306482  0.30528280  1  -0.129715  0  0.0077  -0.03092  0  1.675702  0
Cl  Cl58  1  0.11056908  0.65750333  0.30528657  1  -0.13939  0  0.007722  -0.03086  0  1.675681  0
Cl  Cl59  1  0.88943096  0.84249639  0.19471807  1  -0.138386  0  0.007674  -0.030926  0  1.675685  0
Cl  Cl60  1  0.11056731  0.30528515  0.95306501  1  -0.132539  0  0.007698  -0.030915  0  1.675757  0
Cl  Cl61  1  0.88942867  0.19471417  0.54693358  1  -0.12963  0  0.007699  -0.030894  0  1.675718  0
Cl  Cl62  1  0.88943199  0.19471479  0.84249753  1  -0.139561  0  0.007717  -0.030867  0  1.675711  0
Cl  Cl63  1  0.11056928  0.30528653  0.65750424  1  -0.139379  0  0.007668  -0.030956  0  1.67564  0
Cl  Cl64  1  0.35222006  0.54693499  0.19471616  1  -0.123024  0  0.007721  -0.030905  0  1.675631  0
Cl  Cl65  1  0.64777946  0.95306684  0.30528447  1  -0.122926  0  0.007728  -0.030873  0  1.675658  0
Cl  Cl66  1  0.35221810  0.65750328  0.30528375  1  -0.124582  0  0.007732  -0.030867  0  1.675616  0
Cl  Cl67  1  0.64778062  0.84249710  0.19471594  1  -0.124626  0  0.007754  -0.030881  0  1.675614  0
Cl  Cl68  1  0.64777987  0.30528462  0.95306577  1  -0.123053  0  0.00776  -0.030834  0  1.675675  0
Cl  Cl69  1  0.35222016  0.19471546  0.54693538  1  -0.122821  0  0.007699  -0.03094  0  1.675605  0
Cl  Cl70  1  0.64778307  0.19471757  0.84249719  1  -0.124579  0  0.007721  -0.030903  0  1.675625  0
Cl  Cl71  1  0.35221882  0.30528437  0.65750382  1  -0.124587  0  0.007746  -0.030843  0  1.675627  0
Cl  Cl72  1  0.35221801  0.54693348  0.65750201  1  -0.130176  0  0.007719  -0.030893  0  1.675618  0
Cl  Cl73  1  0.64778089  0.95306485  0.84249734  1  -0.127898  0  0.007721  -0.030913  0  1.675646  0
Cl  Cl74  1  0.35221738  0.65750381  0.54693433  1  -0.118068  0  0.007726  -0.030861  0  1.675632  0
Cl  Cl75  1  0.64778039  0.84249602  0.95306606  1  -0.115816  0  0.007729  -0.030884  0  1.675619  0
Cl  Cl76  1  0.64777923  0.30528613  0.19471682  1  -0.140892  0  0.007673  -0.030966  0  1.675563  0
Cl  Cl77  1  0.35221843  0.19471708  0.30528519  1  -0.128942  0  0.007774  -0.030786  0  1.675695  0
Cl  Cl78  1  0.64777906  0.19471435  0.30528517  1  -0.128465  0  0.007704  -0.030887  0  1.675576  0
Cl  Cl79  1  0.35221610  0.30528177  0.19471505  1  -0.141024  0  0.007736  -0.030829  0  1.67561  0
O  O80  1  0.49999859  0.50000201  0.99999877  1  -1.180755  0  -0.573588  -1.037442  0  2.536767  0
O  O81  1  0.56023948  0.67512028  0.94535819  1  -1.153374  0  -0.312332  -0.54176  0  2.449813  0
O  O82  1  0.27023897  0.38512155  0.82487750  1  -1.158892  0  -0.31244  -0.541847  0  2.449583  0
O  O83  1  0.43975855  0.55463881  0.11487881  1  -1.154814  0  -0.312377  -0.541866  0  2.449513  0
O  O84  1  0.43975878  0.55463821  0.82487690  1  -1.153835  0  -0.312356  -0.541764  0  2.449711  0
O  O85  1  0.56024407  0.67512442  0.11488191  1  -1.150611  0  -0.312377  -0.541811  0  2.449591  0
O  O86  1  0.27023765  0.38511626  0.94535958  1  -1.152617  0  -0.31237  -0.541727  0  2.44993  0
O  O87  1  0.43975968  0.38511777  0.11488315  1  -1.153473  0  -0.312401  -0.541822  0  2.44997  0
O  O88  1  0.72976044  0.55464002  0.11488192  1  -1.152581  0  -0.312346  -0.541748  0  2.449924  0
O  O89  1  0.56023824  0.38511900  0.11487972  1  -1.153346  0  -0.312351  -0.541888  0  2.449775  0
O  O90  1  0.72976151  0.67512179  0.11488121  1  -1.158704  0  -0.312368  -0.541821  0  2.449601  0
O  O91  1  0.43976061  0.38511589  0.82488104  1  -1.150777  0  -0.312362  -0.541794  0  2.44982  0
O  O92  1  0.56024424  0.38512348  0.94536183  1  -1.154902  0  -0.312402  -0.541877  0  2.44968  0
O  O93  1  0.49999962  0.99999760  0.50000237  1  -1.180761  0  -0.573602  -1.037501  0  2.536828  0
O  O94  1  0.43975863  0.82487861  0.38511870  1  -1.150579  0  -0.312347  -0.541799  0  2.449778  0
O  O95  1  0.72975823  0.11488033  0.55463734  1  -1.153052  0  -0.312422  -0.541921  0  2.449513  0
O  O96  1  0.56024067  0.94536264  0.67512380  1  -1.153857  0  -0.31241  -0.541877  0  2.449553  0
O  O97  1  0.56023825  0.94536160  0.38511831  1  -1.154872  0  -0.312362  -0.541817  0  2.449661  0
O  O98  1  0.43975873  0.82487933  0.55464082  1  -1.155837  0  -0.312356  -0.54182  0  2.44977  0
O  O99  1  0.72976408  0.11488352  0.67512302  1  -1.158311  0  -0.312411  -0.541793  0  2.450025  0
O  O100  1  0.56024168  0.11488120  0.67512231  1  -1.150329  0  -0.312359  -0.541786  0  2.449722  0
O  O101  1  0.27023854  0.94535930  0.38511576  1  -1.152921  0  -0.312377  -0.541802  0  2.449884  0
O  O102  1  0.43976019  0.11487904  0.55463938  1  -1.154891  0  -0.312365  -0.541773  0  2.449782  0
O  O103  1  0.27023704  0.82487775  0.38512214  1  -1.158505  0  -0.312447  -0.541831  0  2.449634  0
O  O104  1  0.56024042  0.11488330  0.38512169  1  -1.153333  0  -0.312386  -0.541918  0  2.449472  0
O  O105  1  0.43975491  0.11487905  0.38511521  1  -1.153545  0  -0.312441  -0.541858  0  2.449916  0
