# generated using pymatgen
data_MnH10C6N2O5
_symmetry_space_group_name_H-M   'P 1'
_cell_length_a   7.16970441
_cell_length_b   7.61770247
_cell_length_c   9.50408810
_cell_angle_alpha   113.65133748
_cell_angle_beta   112.15388365
_cell_angle_gamma   89.98326417
_symmetry_Int_Tables_number   1
_chemical_formula_structural   MnH10C6N2O5
_chemical_formula_sum   'Mn2 H20 C12 N4 O10'
_cell_volume   433.34772412
_cell_formula_units_Z   2
loop_
 _symmetry_equiv_pos_site_id
 _symmetry_equiv_pos_as_xyz
  1  'x, y, z'
loop_
 _atom_site_type_symbol
 _atom_site_label
 _atom_site_symmetry_multiplicity
 _atom_site_fract_x
 _atom_site_fract_y
 _atom_site_fract_z
 _atom_site_occupancy
 _atom_site_hle17_ddec_charge
 _atom_site_hle17_ddec_spin_density
 _atom_site_hle17_ddec_sum_bond_order
 _atom_site_hle17_magmom
 _atom_site_hse06_10hf_ddec_charge
 _atom_site_hse06_10hf_ddec_spin_density
 _atom_site_hse06_10hf_ddec_sum_bond_order
 _atom_site_hse06_10hf_magmom
 _atom_site_hse06_ddec_charge
 _atom_site_hse06_ddec_spin_density
 _atom_site_hse06_ddec_sum_bond_order
 _atom_site_hse06_magmom
 _atom_site_pbe_cm5_charge
 _atom_site_pbe_ddec_charge
 _atom_site_pbe_ddec_spin_density
 _atom_site_pbe_ddec_sum_bond_order
 _atom_site_pbe_magmom
Mn  Mn0  1  0.27224728  0.80505357  0.61021051  1  1.165591  4.79497  1.739372  4.68  0.997735  4.724972  2.223901  4.547  1.05829  4.764412  2.15546  4.605  0.581364  0.949404  4.685872  2.275739  4.491
Mn  Mn1  1  0.66213647  0.19494010  0.38985247  1  1.165764  4.794853  1.738805  4.68  0.998029  4.725334  2.223622  4.547  1.058549  4.764799  2.155163  4.605  0.581635  0.949856  4.686256  2.275259  4.491
H  H2  1  0.89866430  0.61550277  0.44487903  1  0.411365  -0.000443  0.897779  0.0  0.379472  0.00041  0.963939  0.001  0.391001  7.8e-05  0.947155  0.001  0.290505  0.371257  0.000721  0.975872  0.001
H  H3  1  0.45383531  0.38456556  0.55519260  1  0.411586  -0.000445  0.897507  0.0  0.379233  0.000406  0.964412  0.001  0.390844  7.7e-05  0.947551  0.001  0.290539  0.371006  0.000724  0.976314  0.001
H  H4  1  0.45380679  0.17079740  0.55517948  1  0.411838  -0.000429  0.897315  0.0  0.379301  0.000425  0.964407  0.001  0.390922  9.1e-05  0.947518  0.001  0.290532  0.371095  0.000726  0.976281  0.001
H  H5  1  0.89864310  0.82927094  0.44487512  1  0.41203  -0.000438  0.897118  0.0  0.37973  0.000413  0.963676  0.001  0.391302  8.1e-05  0.94687  0.001  0.290722  0.371565  0.000719  0.975483  0.001
H  H6  1  0.33605691  0.56069821  0.12131426  1  0.13871  -0.000336  0.943819  0.0  0.149875  -0.000176  1.001507  0.0  0.153847  -0.000238  0.998194  0.0  0.107568  0.146968  -0.000125  1.004093  0.0
H  H7  1  0.21470009  0.43935828  0.87879212  1  0.138333  -0.000343  0.943813  0.0  0.149764  -0.000174  1.001614  0.0  0.153775  -0.000239  0.998259  0.0  0.107561  0.146783  -0.000125  1.004278  0.0
H  H8  1  0.13530794  0.59639513  0.19279683  1  0.16453  -0.000159  0.903963  0.0  0.176657  0.000191  0.962495  0.0  0.180351  3.5e-05  0.960415  0.0  0.123351  0.173978  0.000374  0.964098  0.001
H  H9  1  0.94249341  0.40374544  0.80727123  1  0.163689  -0.000174  0.904528  0.0  0.176074  0.000177  0.96319  0.0  0.179718  2.4e-05  0.961182  0.0  0.123215  0.173468  0.000375  0.964647  0.001
H  H10  1  0.76724671  0.35139838  0.15146286  1  0.076304  -0.000304  0.913108  0.0  0.09048  -0.00012  0.975626  0.0  0.09159  -0.000234  0.973929  0.0  0.121023  0.089534  7e-06  0.977031  0.0
H  H11  1  0.61603271  0.64852847  0.84844841  1  0.076105  -0.000299  0.91297  0.0  0.09035  -9.1e-05  0.975215  0.0  0.091494  -0.000215  0.973394  0.0  0.121196  0.089419  7e-06  0.976628  0.0
H  H12  1  0.61589682  0.19993388  0.84858203  1  0.076731  -0.000298  0.914446  0.0  0.090653  -6.7e-05  0.976917  0.0  0.091779  -0.000199  0.975169  0.0  0.121213  0.089741  8e-06  0.978294  0.0
H  H13  1  0.76739311  0.79998424  0.15133778  1  0.076685  -0.000328  0.913338  0.0  0.090437  -0.000125  0.975799  0.0  0.091572  -0.000238  0.974074  0.0  0.120868  0.089391  9e-06  0.977329  0.0
H  H14  1  0.99983049  0.29037455  0.26357959  1  0.071468  -0.00039  0.9212  0.0  0.084089  -0.000289  0.987088  0.0  0.084493  -0.000385  0.986982  0.0  0.119039  0.083671  -0.000196  0.987391  0.0
H  H15  1  0.73644642  0.70955077  0.73631333  1  0.071199  -0.000401  0.922125  0.0  0.0838  -0.000298  0.987869  0.0  0.084163  -0.000392  0.987747  0.0  0.119365  0.083497  -0.000199  0.988049  0.0
H  H16  1  0.73635002  0.02670624  0.73638697  1  0.071247  -0.000396  0.921865  0.0  0.08364  -0.000291  0.988059  0.0  0.083996  -0.000385  0.987999  0.0  0.119333  0.083419  -0.000197  0.988111  0.0
H  H17  1  0.99990238  0.97324093  0.26350825  1  0.071716  -0.000393  0.921378  0.0  0.084023  -0.000302  0.987143  0.0  0.084362  -0.000394  0.987107  0.0  0.119026  0.08365  -0.000194  0.987366  0.0
H  H18  1  0.04822219  0.94377094  0.88760261  1  0.07089  -0.000353  0.930974  0.0  0.081997  -0.000308  0.999795  0.0  0.082274  -0.000383  0.99979  0.0  0.11688  0.081789  -0.000204  0.99989  0.0
H  H19  1  0.16054012  0.05617855  0.11231682  1  0.07029  -0.00034  0.930692  0.0  0.081504  -0.000306  0.999474  0.0  0.081763  -0.000382  0.999495  0.0  0.116636  0.081289  -0.000204  0.999584  0.0
H  H20  1  0.45392194  0.11753730  0.99998110  1  0.086114  -0.000648  0.934279  0.0  0.094953  -0.000512  1.004722  0.0  0.096577  -0.000593  1.003006  0.0  0.123113  0.093738  -0.000401  1.005956  0.0
H  H21  1  0.45401929  0.88231898  0.99990500  1  0.085443  -0.000656  0.935277  0.0  0.095001  -0.000515  1.004717  0.0  0.096595  -0.000594  1.003068  0.0  0.123085  0.093722  -0.000401  1.00605  0.0
C  C22  1  0.38479174  0.49807817  0.33171661  1  0.752279  0.006733  3.792238  0.007  0.699421  0.013224  4.091243  0.013  0.735818  0.009682  4.082431  0.01  0.233904  0.673818  0.017187  4.096636  0.016
C  C23  1  0.05306095  0.50198858  0.66837451  1  0.75237  0.006737  3.791379  0.007  0.698387  0.013255  4.092439  0.013  0.734828  0.009696  4.083623  0.01  0.233629  0.672787  0.017178  4.097869  0.016
C  C24  1  0.05284796  0.16619204  0.66838203  1  0.75182  0.00673  3.789669  0.007  0.698323  0.013224  4.090265  0.013  0.734697  0.009684  4.081546  0.01  0.233341  0.672628  0.017227  4.095775  0.016
C  C25  1  0.38457130  0.83387626  0.33172744  1  0.751247  0.00675  3.794382  0.007  0.699115  0.013275  4.092303  0.013  0.73546  0.009723  4.083543  0.01  0.233721  0.673515  0.017181  4.097864  0.016
C  C26  1  0.30245445  0.61635034  0.23255111  1  -0.438571  0.001831  3.639666  0.002  -0.480827  0.002962  3.888346  0.002  -0.491413  0.001944  3.887641  0.002  -0.162739  -0.47336  0.003989  3.888887  0.002
C  C27  1  0.06992321  0.38375678  0.76754567  1  -0.436489  0.001828  3.637559  0.002  -0.478997  0.002958  3.887764  0.002  -0.489564  0.001943  3.887139  0.002  -0.161995  -0.471561  0.003981  3.888357  0.002
C  C28  1  0.85567516  0.23343927  0.14988306  1  0.08581  -0.00014  3.61931  0.0  0.015179  0.001434  3.885869  0.001  0.023465  0.000905  3.895169  0.0  0.021498  0.009587  0.001947  3.879289  0.001
C  C29  1  0.70598113  0.76649811  0.85002315  1  0.085615  -8e-05  3.620559  0.0  0.015703  0.001501  3.886766  0.001  0.0242  0.000957  3.895761  0.0  0.020932  0.009935  0.001945  3.880382  0.001
C  C30  1  0.70589382  0.08350651  0.85009402  1  0.08501  -4e-05  3.622298  0.0  0.015103  0.001482  3.888885  0.001  0.023472  0.000944  3.898117  0.0  0.020998  0.009377  0.001951  3.882351  0.001
C  C31  1  0.85575495  0.91641485  0.14980387  1  0.084633  -4.1e-05  3.621359  0.0  0.015572  0.00149  3.885784  0.001  0.023892  0.000952  3.895129  0.0  0.021648  0.010019  0.00195  3.879177  0.001
C  C32  1  0.01509109  0.99998855  0.99996561  1  0.084832  -0.000534  3.638624  0.0  0.01713  -0.000441  3.905166  0.0  0.025166  -0.000544  3.914645  0.0  0.016664  0.011591  -0.000376  3.898593  0.0
C  C33  1  0.54201610  0.99993724  0.99993030  1  0.06976  0.000677  3.578793  0.0  -0.000281  0.003672  3.836612  0.001  0.006702  0.002758  3.847547  0.001  0.018945  -0.004946  0.004558  3.828852  0.002
N  N34  1  0.73553633  0.07755896  0.15513009  1  -0.314529  0.030027  3.166117  0.018  -0.225986  0.034409  3.419608  0.019  -0.24645  0.030867  3.436801  0.016  -0.338814  -0.210618  0.03786  3.406641  0.021
N  N35  1  0.58044221  0.92235182  0.84475752  1  -0.312749  0.030088  3.164774  0.018  -0.225453  0.034633  3.41913  0.019  -0.245957  0.030999  3.436228  0.016  -0.338909  -0.210133  0.037836  3.406621  0.021
N  N36  1  0.89954213  0.16023445  0.99999273  1  -0.283388  0.002749  3.138898  0.004  -0.219465  0.003137  3.405208  0.004  -0.234942  0.00234  3.42206  0.003  -0.348649  -0.208444  0.004128  3.393275  0.005
N  N37  1  0.89963386  0.83971535  0.99992292  1  -0.283315  0.002714  3.140093  0.003  -0.219783  0.003112  3.405939  0.004  -0.235353  0.002302  3.422799  0.003  -0.34809  -0.208792  0.004125  3.393942  0.005
O  O38  1  0.95160355  0.70489532  0.40994534  1  -0.840456  0.030861  1.89252  0.022  -0.785924  0.04023  2.097845  0.028  -0.809897  0.035445  2.062424  0.024  -0.578606  -0.767666  0.044635  2.122619  0.032
O  O39  1  0.54169859  0.29513404  0.59012194  1  -0.840676  0.030828  1.89208  0.022  -0.785734  0.040116  2.097675  0.028  -0.809861  0.035374  2.062114  0.024  -0.578771  -0.767461  0.04468  2.122385  0.032
O  O40  1  0.36315814  0.54324941  0.46939095  1  -0.673446  0.032296  2.067844  0.021  -0.595952  0.040378  2.321523  0.026  -0.628092  0.035883  2.30867  0.022  -0.30333  -0.572464  0.044729  2.329927  0.03
O  O41  1  0.89374002  0.45683894  0.53069504  1  -0.673729  0.032253  2.065047  0.021  -0.59612  0.040352  2.31896  0.026  -0.628322  0.035855  2.306225  0.022  -0.303443  -0.572542  0.044759  2.327257  0.03
O  O42  1  0.89366610  0.07374620  0.53063033  1  -0.673094  0.032298  2.065168  0.021  -0.595288  0.040464  2.318772  0.026  -0.627441  0.035941  2.306073  0.022  -0.303162  -0.571754  0.044732  2.327028  0.03
O  O43  1  0.36295569  0.92639170  0.46943970  1  -0.672943  0.032254  2.066914  0.021  -0.595554  0.040421  2.319768  0.026  -0.627704  0.035915  2.306998  0.023  -0.303271  -0.572132  0.044637  2.328312  0.03
O  O44  1  0.46809261  0.35733207  0.27101174  1  -0.636486  0.032706  2.013578  0.021  -0.571325  0.041485  2.277315  0.026  -0.600463  0.036421  2.262727  0.022  -0.30309  -0.549894  0.046426  2.286957  0.03
O  O45  1  0.19697202  0.64263666  0.72898753  1  -0.63751  0.032775  2.016031  0.021  -0.571046  0.041526  2.279207  0.026  -0.600188  0.036461  2.264726  0.022  -0.303215  -0.549536  0.046436  2.28884  0.03
O  O46  1  0.19659363  0.08602446  0.72914224  1  -0.637085  0.032723  2.013259  0.021  -0.57137  0.041471  2.277108  0.026  -0.600579  0.036412  2.262683  0.022  -0.303444  -0.549997  0.046356  2.286773  0.03
O  O47  1  0.46774911  0.91394305  0.27104542  1  -0.636534  0.032722  2.014716  0.021  -0.571623  0.041471  2.277865  0.026  -0.600733  0.036411  2.263381  0.022  -0.303519  -0.550197  0.046385  2.287685  0.03
